data_image0
_chemical_formula_structural       Ag4K8S16Sb4
_chemical_formula_sum              "Ag4 K8 S16 Sb4"
_cell_length_a       10.4248
_cell_length_b       10.6733
_cell_length_c       8.00685
_cell_angle_alpha    90
_cell_angle_beta     90
_cell_angle_gamma    90

_space_group_name_H-M_alt    "P 1"
_space_group_IT_number       1

loop_
  _space_group_symop_operation_xyz
  'x, y, z'

loop_
  _atom_site_type_symbol
  _atom_site_label
  _atom_site_symmetry_multiplicity
  _atom_site_fract_x
  _atom_site_fract_y
  _atom_site_fract_z
  _atom_site_occupancy
  Ag  Ag1       1.0  0.00000  0.50000  0.22700  1.0000
  Ag  Ag2       1.0  0.50000  0.50000  0.45300  1.0000
  Ag  Ag3       1.0  0.50000  0.00000  0.72700  1.0000
  Ag  Ag4       1.0  0.00000  0.00000  0.95300  1.0000
  K   K1        1.0  0.50000  0.00000  0.26200  1.0000
  K   K2        1.0  0.74900  0.27100  0.44800  1.0000
  K   K3        1.0  0.25100  0.72900  0.44800  1.0000
  K   K4        1.0  0.00000  0.00000  0.44900  1.0000
  K   K5        1.0  0.00000  0.50000  0.76200  1.0000
  K   K6        1.0  0.24900  0.22900  0.94800  1.0000
  K   K7        1.0  0.75100  0.77100  0.94800  1.0000
  K   K8        1.0  0.50000  0.50000  0.94900  1.0000
  S   S1        1.0  0.78400  0.42000  0.08550  1.0000
  S   S2        1.0  0.21600  0.58000  0.08550  1.0000
  S   S3        1.0  0.79100  0.05090  0.13600  1.0000
  S   S4        1.0  0.20900  0.94900  0.13600  1.0000
  S   S5        1.0  0.45300  0.29800  0.26600  1.0000
  S   S6        1.0  0.54700  0.70200  0.26600  1.0000
  S   S7        1.0  0.07730  0.28200  0.29800  1.0000
  S   S8        1.0  0.92300  0.71800  0.29800  1.0000
  S   S9        1.0  0.28400  0.08010  0.58500  1.0000
  S   S10       1.0  0.71600  0.92000  0.58500  1.0000
  S   S11       1.0  0.29100  0.44900  0.63600  1.0000
  S   S12       1.0  0.70900  0.55100  0.63600  1.0000
  S   S13       1.0  0.95300  0.20200  0.76600  1.0000
  S   S14       1.0  0.04660  0.79800  0.76600  1.0000
  S   S15       1.0  0.57700  0.21800  0.79800  1.0000
  S   S16       1.0  0.42300  0.78200  0.79800  1.0000
  Sb  Sb1       1.0  0.27400  0.27700  0.44900  1.0000
  Sb  Sb2       1.0  0.72600  0.72300  0.44900  1.0000
  Sb  Sb3       1.0  0.77400  0.22300  0.94900  1.0000
  Sb  Sb4       1.0  0.22600  0.77700  0.94900  1.0000
