data_image0
_chemical_formula_structural       Ho8O20Si4
_chemical_formula_sum              "Ho8 O20 Si4"
_cell_length_a       9.00041
_cell_length_b       6.83136
_cell_length_c       6.64366
_cell_angle_alpha    90
_cell_angle_beta     106.09
_cell_angle_gamma    90

_space_group_name_H-M_alt    "P 1"
_space_group_IT_number       1

loop_
  _space_group_symop_operation_xyz
  'x, y, z'

loop_
  _atom_site_type_symbol
  _atom_site_label
  _atom_site_symmetry_multiplicity
  _atom_site_fract_x
  _atom_site_fract_y
  _atom_site_fract_z
  _atom_site_occupancy
  Ho  Ho1       1.0  0.87700  0.64000  0.06370  1.0000
  Ho  Ho2       1.0  0.52800  0.62600  0.23200  1.0000
  Ho  Ho3       1.0  0.47200  0.12600  0.26800  1.0000
  Ho  Ho4       1.0  0.12300  0.14000  0.43600  1.0000
  Ho  Ho5       1.0  0.87700  0.86000  0.56400  1.0000
  Ho  Ho6       1.0  0.52800  0.87400  0.73200  1.0000
  Ho  Ho7       1.0  0.47200  0.37400  0.76800  1.0000
  Ho  Ho8       1.0  0.12300  0.36000  0.93600  1.0000
  O   O1        1.0  0.38800  0.86300  0.00769  1.0000
  O   O2        1.0  0.89600  0.28400  0.02380  1.0000
  O   O3        1.0  0.38500  0.38300  0.05960  1.0000
  O   O4        1.0  0.20800  0.07230  0.15900  1.0000
  O   O5        1.0  0.87400  0.95000  0.23100  1.0000
  O   O6        1.0  0.12600  0.45000  0.26900  1.0000
  O   O7        1.0  0.79200  0.57200  0.34100  1.0000
  O   O8        1.0  0.61500  0.88300  0.44000  1.0000
  O   O9        1.0  0.10400  0.78400  0.47600  1.0000
  O   O10       1.0  0.61200  0.36300  0.49200  1.0000
  O   O11       1.0  0.38800  0.63700  0.50800  1.0000
  O   O12       1.0  0.89600  0.21600  0.52400  1.0000
  O   O13       1.0  0.38500  0.11700  0.56000  1.0000
  O   O14       1.0  0.20800  0.42800  0.65900  1.0000
  O   O15       1.0  0.87400  0.55000  0.73100  1.0000
  O   O16       1.0  0.12600  0.04980  0.76900  1.0000
  O   O17       1.0  0.79200  0.92800  0.84100  1.0000
  O   O18       1.0  0.61500  0.61700  0.94000  1.0000
  O   O19       1.0  0.10400  0.71600  0.97600  1.0000
  O   O20       1.0  0.61200  0.13700  0.99200  1.0000
  Si  Si1       1.0  0.79800  0.09000  0.02970  1.0000
  Si  Si2       1.0  0.20200  0.59000  0.47000  1.0000
  Si  Si3       1.0  0.79800  0.41000  0.53000  1.0000
  Si  Si4       1.0  0.20200  0.91000  0.97000  1.0000
