data_image0
_chemical_formula_structural       Na4O20P4Ti4
_chemical_formula_sum              "Na4 O20 P4 Ti4"
_cell_length_a       6.53173
_cell_length_b       8.51694
_cell_length_c       7.02661
_cell_angle_alpha    90
_cell_angle_beta     114.563
_cell_angle_gamma    90

_space_group_name_H-M_alt    "P 1"
_space_group_IT_number       1

loop_
  _space_group_symop_operation_xyz
  'x, y, z'

loop_
  _atom_site_type_symbol
  _atom_site_label
  _atom_site_symmetry_multiplicity
  _atom_site_fract_x
  _atom_site_fract_y
  _atom_site_fract_z
  _atom_site_occupancy
  Na  Na1       1.0  0.24800  0.41800  0.22900  1.0000
  Na  Na2       1.0  0.75200  0.91800  0.27100  1.0000
  Na  Na3       1.0  0.24800  0.08180  0.72900  1.0000
  Na  Na4       1.0  0.75200  0.58200  0.77100  1.0000
  O   O1        1.0  0.06590  0.17700  0.09080  1.0000
  O   O2        1.0  0.57400  0.68000  0.09370  1.0000
  O   O3        1.0  0.85000  0.46500  0.12800  1.0000
  O   O4        1.0  0.35300  0.96800  0.12800  1.0000
  O   O5        1.0  0.25200  0.67900  0.24800  1.0000
  O   O6        1.0  0.74800  0.17900  0.25200  1.0000
  O   O7        1.0  0.64700  0.46800  0.37200  1.0000
  O   O8        1.0  0.15000  0.96500  0.37200  1.0000
  O   O9        1.0  0.42600  0.18000  0.40600  1.0000
  O   O10       1.0  0.93400  0.67700  0.40900  1.0000
  O   O11       1.0  0.06590  0.32300  0.59100  1.0000
  O   O12       1.0  0.57400  0.82000  0.59400  1.0000
  O   O13       1.0  0.85000  0.03540  0.62800  1.0000
  O   O14       1.0  0.35300  0.53200  0.62800  1.0000
  O   O15       1.0  0.25200  0.82100  0.74800  1.0000
  O   O16       1.0  0.74800  0.32100  0.75200  1.0000
  O   O17       1.0  0.64700  0.03220  0.87200  1.0000
  O   O18       1.0  0.15000  0.53500  0.87200  1.0000
  O   O19       1.0  0.42600  0.32000  0.90600  1.0000
  O   O20       1.0  0.93400  0.82300  0.90900  1.0000
  P   P1        1.0  0.24900  0.06900  0.24900  1.0000
  P   P2        1.0  0.75100  0.56900  0.25100  1.0000
  P   P3        1.0  0.24900  0.43100  0.74900  1.0000
  P   P4        1.0  0.75100  0.93100  0.75100  1.0000
  Ti  Ti1       1.0  0.74600  0.24500  0.00615  1.0000
  Ti  Ti2       1.0  0.25400  0.74500  0.49400  1.0000
  Ti  Ti3       1.0  0.74600  0.25500  0.50600  1.0000
  Ti  Ti4       1.0  0.25400  0.75500  0.99400  1.0000
