data_image0
_chemical_formula_structural       Cs4O20P4V4
_chemical_formula_sum              "Cs4 O20 P4 V4"
_cell_length_a       7.26481
_cell_length_b       7.52345
_cell_length_c       9.81011
_cell_angle_alpha    90
_cell_angle_beta     90
_cell_angle_gamma    90

_space_group_name_H-M_alt    "P 1"
_space_group_IT_number       1

loop_
  _space_group_symop_operation_xyz
  'x, y, z'

loop_
  _atom_site_type_symbol
  _atom_site_label
  _atom_site_symmetry_multiplicity
  _atom_site_fract_x
  _atom_site_fract_y
  _atom_site_fract_z
  _atom_site_occupancy
  Cs  Cs1       1.0  0.87100  0.13900  0.16700  1.0000
  Cs  Cs2       1.0  0.12900  0.63900  0.33300  1.0000
  Cs  Cs3       1.0  0.62900  0.86100  0.66700  1.0000
  Cs  Cs4       1.0  0.37100  0.36100  0.83300  1.0000
  O   O1        1.0  0.06190  0.45700  0.02620  1.0000
  O   O2        1.0  0.65500  0.48400  0.04860  1.0000
  O   O3        1.0  0.82600  0.74700  0.10600  1.0000
  O   O4        1.0  0.48100  0.74500  0.16400  1.0000
  O   O5        1.0  0.29700  0.06120  0.19900  1.0000
  O   O6        1.0  0.70300  0.56100  0.30100  1.0000
  O   O7        1.0  0.51900  0.24500  0.33600  1.0000
  O   O8        1.0  0.17400  0.24700  0.39400  1.0000
  O   O9        1.0  0.34500  0.98400  0.45100  1.0000
  O   O10       1.0  0.93800  0.95700  0.47400  1.0000
  O   O11       1.0  0.43800  0.54300  0.52600  1.0000
  O   O12       1.0  0.84500  0.51600  0.54900  1.0000
  O   O13       1.0  0.67400  0.25300  0.60600  1.0000
  O   O14       1.0  0.01940  0.25500  0.66400  1.0000
  O   O15       1.0  0.20300  0.93900  0.69900  1.0000
  O   O16       1.0  0.79700  0.43900  0.80100  1.0000
  O   O17       1.0  0.98100  0.75500  0.83600  1.0000
  O   O18       1.0  0.32600  0.75300  0.89400  1.0000
  O   O19       1.0  0.15500  0.01570  0.95100  1.0000
  O   O20       1.0  0.56200  0.04300  0.97400  1.0000
  P   P1        1.0  0.65800  0.63500  0.15900  1.0000
  P   P2        1.0  0.34200  0.13500  0.34100  1.0000
  P   P3        1.0  0.84200  0.36500  0.65900  1.0000
  P   P4        1.0  0.15800  0.86500  0.84100  1.0000
  V   V1        1.0  0.38800  0.93200  0.03900  1.0000
  V   V2        1.0  0.61200  0.43200  0.46100  1.0000
  V   V3        1.0  0.11200  0.06820  0.53900  1.0000
  V   V4        1.0  0.88800  0.56800  0.96100  1.0000
