data_image0
_chemical_formula_structural       Au4Bi8O20
_chemical_formula_sum              "Au4 Bi8 O20"
_cell_length_a       8.67743
_cell_length_b       8.67743
_cell_length_c       5.83048
_cell_angle_alpha    90
_cell_angle_beta     90
_cell_angle_gamma    90

_space_group_name_H-M_alt    "P 1"
_space_group_IT_number       1

loop_
  _space_group_symop_operation_xyz
  'x, y, z'

loop_
  _atom_site_type_symbol
  _atom_site_label
  _atom_site_symmetry_multiplicity
  _atom_site_fract_x
  _atom_site_fract_y
  _atom_site_fract_z
  _atom_site_occupancy
  Au  Au1       1.0  0.25000  0.25000  0.09740  1.0000
  Au  Au2       1.0  0.75000  0.75000  0.40300  1.0000
  Au  Au3       1.0  0.25000  0.25000  0.59700  1.0000
  Au  Au4       1.0  0.75000  0.75000  0.90300  1.0000
  Bi  Bi1       1.0  0.60200  0.10200  0.25000  1.0000
  Bi  Bi2       1.0  0.89800  0.39800  0.25000  1.0000
  Bi  Bi3       1.0  0.39800  0.60200  0.25000  1.0000
  Bi  Bi4       1.0  0.10200  0.89800  0.25000  1.0000
  Bi  Bi5       1.0  0.89800  0.10200  0.75000  1.0000
  Bi  Bi6       1.0  0.60200  0.39800  0.75000  1.0000
  Bi  Bi7       1.0  0.10200  0.60200  0.75000  1.0000
  Bi  Bi8       1.0  0.39800  0.89800  0.75000  1.0000
  O   O1        1.0  0.75000  0.25000  0.00000  1.0000
  O   O2        1.0  0.25000  0.75000  0.00000  1.0000
  O   O3        1.0  0.33300  0.03460  0.11300  1.0000
  O   O4        1.0  0.03460  0.16700  0.11300  1.0000
  O   O5        1.0  0.46500  0.33300  0.11300  1.0000
  O   O6        1.0  0.16700  0.46500  0.11300  1.0000
  O   O7        1.0  0.66700  0.53500  0.38700  1.0000
  O   O8        1.0  0.96500  0.66700  0.38700  1.0000
  O   O9        1.0  0.53500  0.83300  0.38700  1.0000
  O   O10       1.0  0.83300  0.96500  0.38700  1.0000
  O   O11       1.0  0.75000  0.25000  0.50000  1.0000
  O   O12       1.0  0.25000  0.75000  0.50000  1.0000
  O   O13       1.0  0.16700  0.03460  0.61300  1.0000
  O   O14       1.0  0.46500  0.16700  0.61300  1.0000
  O   O15       1.0  0.03460  0.33300  0.61300  1.0000
  O   O16       1.0  0.33300  0.46500  0.61300  1.0000
  O   O17       1.0  0.83300  0.53500  0.88700  1.0000
  O   O18       1.0  0.53500  0.66700  0.88700  1.0000
  O   O19       1.0  0.96500  0.83300  0.88700  1.0000
  O   O20       1.0  0.66700  0.96500  0.88700  1.0000
