data_image0
_chemical_formula_structural       Cs4H20N8
_chemical_formula_sum              "Cs4 H20 N8"
_cell_length_a       6.81328
_cell_length_b       5.48433
_cell_length_c       9.84229
_cell_angle_alpha    90
_cell_angle_beta     90
_cell_angle_gamma    90

_space_group_name_H-M_alt    "P 1"
_space_group_IT_number       1

loop_
  _space_group_symop_operation_xyz
  'x, y, z'

loop_
  _atom_site_type_symbol
  _atom_site_label
  _atom_site_symmetry_multiplicity
  _atom_site_fract_x
  _atom_site_fract_y
  _atom_site_fract_z
  _atom_site_occupancy
  Cs  Cs1       1.0  0.30400  0.25000  0.06900  1.0000
  Cs  Cs2       1.0  0.80400  0.25000  0.43100  1.0000
  Cs  Cs3       1.0  0.19600  0.75000  0.56900  1.0000
  Cs  Cs4       1.0  0.69600  0.75000  0.93100  1.0000
  H   H1        1.0  0.88000  0.25000  0.01130  1.0000
  H   H2        1.0  0.73000  0.25000  0.13700  1.0000
  H   H3        1.0  0.91100  0.59300  0.19300  1.0000
  H   H4        1.0  0.91100  0.90700  0.19300  1.0000
  H   H5        1.0  0.23400  0.75000  0.24100  1.0000
  H   H6        1.0  0.73400  0.75000  0.25900  1.0000
  H   H7        1.0  0.41100  0.59300  0.30700  1.0000
  H   H8        1.0  0.41100  0.90700  0.30700  1.0000
  H   H9        1.0  0.23000  0.25000  0.36300  1.0000
  H   H10       1.0  0.38000  0.25000  0.48900  1.0000
  H   H11       1.0  0.62000  0.75000  0.51100  1.0000
  H   H12       1.0  0.77000  0.75000  0.63700  1.0000
  H   H13       1.0  0.58900  0.09350  0.69300  1.0000
  H   H14       1.0  0.58900  0.40700  0.69300  1.0000
  H   H15       1.0  0.26600  0.25000  0.74100  1.0000
  H   H16       1.0  0.76600  0.25000  0.75900  1.0000
  H   H17       1.0  0.08880  0.09350  0.80700  1.0000
  H   H18       1.0  0.08880  0.40700  0.80700  1.0000
  H   H19       1.0  0.27000  0.75000  0.86300  1.0000
  H   H20       1.0  0.12000  0.75000  0.98900  1.0000
  N   N1        1.0  0.87800  0.25000  0.11600  1.0000
  N   N2        1.0  0.38400  0.75000  0.24800  1.0000
  N   N3        1.0  0.88400  0.75000  0.25200  1.0000
  N   N4        1.0  0.37800  0.25000  0.38400  1.0000
  N   N5        1.0  0.62200  0.75000  0.61600  1.0000
  N   N6        1.0  0.11600  0.25000  0.74800  1.0000
  N   N7        1.0  0.61600  0.25000  0.75200  1.0000
  N   N8        1.0  0.12200  0.75000  0.88400  1.0000
