data_image0
_chemical_formula_structural       Mn8O20Tb4
_chemical_formula_sum              "Mn8 O20 Tb4"
_cell_length_a       7.24789
_cell_length_b       8.51669
_cell_length_c       5.72981
_cell_angle_alpha    90
_cell_angle_beta     90
_cell_angle_gamma    90

_space_group_name_H-M_alt    "P 1"
_space_group_IT_number       1

loop_
  _space_group_symop_operation_xyz
  'x, y, z'

loop_
  _atom_site_type_symbol
  _atom_site_label
  _atom_site_symmetry_multiplicity
  _atom_site_fract_x
  _atom_site_fract_y
  _atom_site_fract_z
  _atom_site_occupancy
  Mn  Mn1       1.0  0.50000  0.00000  0.25400  1.0000
  Mn  Mn2       1.0  0.00000  0.50000  0.25400  1.0000
  Mn  Mn3       1.0  0.91300  0.15200  0.50000  1.0000
  Mn  Mn4       1.0  0.41300  0.34800  0.50000  1.0000
  Mn  Mn5       1.0  0.58700  0.65200  0.50000  1.0000
  Mn  Mn6       1.0  0.08660  0.84800  0.50000  1.0000
  Mn  Mn7       1.0  0.50000  0.00000  0.74600  1.0000
  Mn  Mn8       1.0  0.00000  0.50000  0.74600  1.0000
  O   O1        1.0  0.66600  0.05680  0.00000  1.0000
  O   O2        1.0  0.16600  0.44300  0.00000  1.0000
  O   O3        1.0  0.83400  0.55700  0.00000  1.0000
  O   O4        1.0  0.33400  0.94300  0.00000  1.0000
  O   O5        1.0  0.39200  0.20700  0.24200  1.0000
  O   O6        1.0  0.89200  0.29300  0.24200  1.0000
  O   O7        1.0  0.10800  0.70700  0.24200  1.0000
  O   O8        1.0  0.60800  0.79300  0.24200  1.0000
  O   O9        1.0  0.00000  0.00000  0.27100  1.0000
  O   O10       1.0  0.50000  0.50000  0.27100  1.0000
  O   O11       1.0  0.65200  0.06970  0.50000  1.0000
  O   O12       1.0  0.15200  0.43000  0.50000  1.0000
  O   O13       1.0  0.84800  0.57000  0.50000  1.0000
  O   O14       1.0  0.34800  0.93000  0.50000  1.0000
  O   O15       1.0  0.00000  0.00000  0.72900  1.0000
  O   O16       1.0  0.50000  0.50000  0.72900  1.0000
  O   O17       1.0  0.39200  0.20700  0.75800  1.0000
  O   O18       1.0  0.89200  0.29300  0.75800  1.0000
  O   O19       1.0  0.10800  0.70700  0.75800  1.0000
  O   O20       1.0  0.60800  0.79300  0.75800  1.0000
  Tb  Tb1       1.0  0.13500  0.17100  0.00000  1.0000
  Tb  Tb2       1.0  0.63500  0.32900  0.00000  1.0000
  Tb  Tb3       1.0  0.36500  0.67100  0.00000  1.0000
  Tb  Tb4       1.0  0.86500  0.82900  0.00000  1.0000
