data_image0
_chemical_formula_structural       C16Re6U10
_chemical_formula_sum              "C16 Re6 U10"
_cell_length_a       11.3848
_cell_length_b       11.3848
_cell_length_c       3.23304
_cell_angle_alpha    90
_cell_angle_beta     90
_cell_angle_gamma    90

_space_group_name_H-M_alt    "P 1"
_space_group_IT_number       1

loop_
  _space_group_symop_operation_xyz
  'x, y, z'

loop_
  _atom_site_type_symbol
  _atom_site_label
  _atom_site_symmetry_multiplicity
  _atom_site_fract_x
  _atom_site_fract_y
  _atom_site_fract_z
  _atom_site_occupancy
  C   C1        1.0  0.15200  0.09750  0.00000  1.0000
  C   C2        1.0  0.90200  0.15200  0.00000  1.0000
  C   C3        1.0  0.65400  0.15400  0.00000  1.0000
  C   C4        1.0  0.15400  0.34600  0.00000  1.0000
  C   C5        1.0  0.40200  0.34800  0.00000  1.0000
  C   C6        1.0  0.65200  0.40200  0.00000  1.0000
  C   C7        1.0  0.34800  0.59800  0.00000  1.0000
  C   C8        1.0  0.59800  0.65200  0.00000  1.0000
  C   C9        1.0  0.84600  0.65400  0.00000  1.0000
  C   C10       1.0  0.34600  0.84600  0.00000  1.0000
  C   C11       1.0  0.09750  0.84800  0.00000  1.0000
  C   C12       1.0  0.84800  0.90200  0.00000  1.0000
  C   C13       1.0  0.38300  0.11700  0.50000  1.0000
  C   C14       1.0  0.88300  0.38300  0.50000  1.0000
  C   C15       1.0  0.11700  0.61700  0.50000  1.0000
  C   C16       1.0  0.61700  0.88300  0.50000  1.0000
  Re  Re1       1.0  0.00000  0.00000  0.00000  1.0000
  Re  Re2       1.0  0.29600  0.20400  0.00000  1.0000
  Re  Re3       1.0  0.79600  0.29600  0.00000  1.0000
  Re  Re4       1.0  0.50000  0.50000  0.00000  1.0000
  Re  Re5       1.0  0.20400  0.70400  0.00000  1.0000
  Re  Re6       1.0  0.70400  0.79600  0.00000  1.0000
  U   U1        1.0  0.50000  0.00000  0.00000  1.0000
  U   U2        1.0  0.00000  0.50000  0.00000  1.0000
  U   U3        1.0  0.77200  0.04230  0.50000  1.0000
  U   U4        1.0  0.04230  0.22800  0.50000  1.0000
  U   U5        1.0  0.54200  0.27200  0.50000  1.0000
  U   U6        1.0  0.27200  0.45800  0.50000  1.0000
  U   U7        1.0  0.72800  0.54200  0.50000  1.0000
  U   U8        1.0  0.45800  0.72800  0.50000  1.0000
  U   U9        1.0  0.95800  0.77200  0.50000  1.0000
  U   U10       1.0  0.22800  0.95800  0.50000  1.0000
