data_image0
_chemical_formula_structural       Mn8O20Pr4
_chemical_formula_sum              "Mn8 O20 Pr4"
_cell_length_a       7.51753
_cell_length_b       8.68186
_cell_length_c       5.77062
_cell_angle_alpha    90
_cell_angle_beta     90
_cell_angle_gamma    90

_space_group_name_H-M_alt    "P 1"
_space_group_IT_number       1

loop_
  _space_group_symop_operation_xyz
  'x, y, z'

loop_
  _atom_site_type_symbol
  _atom_site_label
  _atom_site_symmetry_multiplicity
  _atom_site_fract_x
  _atom_site_fract_y
  _atom_site_fract_z
  _atom_site_occupancy
  Mn  Mn1       1.0  0.50000  0.00000  0.25700  1.0000
  Mn  Mn2       1.0  0.00000  0.50000  0.25700  1.0000
  Mn  Mn3       1.0  0.91100  0.15000  0.50000  1.0000
  Mn  Mn4       1.0  0.41100  0.35000  0.50000  1.0000
  Mn  Mn5       1.0  0.58900  0.65000  0.50000  1.0000
  Mn  Mn6       1.0  0.08900  0.85000  0.50000  1.0000
  Mn  Mn7       1.0  0.50000  0.00000  0.74300  1.0000
  Mn  Mn8       1.0  0.00000  0.50000  0.74300  1.0000
  O   O1        1.0  0.65900  0.05220  0.00000  1.0000
  O   O2        1.0  0.15900  0.44800  0.00000  1.0000
  O   O3        1.0  0.84100  0.55200  0.00000  1.0000
  O   O4        1.0  0.34100  0.94800  0.00000  1.0000
  O   O5        1.0  0.40100  0.20600  0.24900  1.0000
  O   O6        1.0  0.90100  0.29400  0.24900  1.0000
  O   O7        1.0  0.09940  0.70600  0.24900  1.0000
  O   O8        1.0  0.59900  0.79400  0.24900  1.0000
  O   O9        1.0  0.00000  0.00000  0.27800  1.0000
  O   O10       1.0  0.50000  0.50000  0.27800  1.0000
  O   O11       1.0  0.65300  0.06420  0.50000  1.0000
  O   O12       1.0  0.15300  0.43600  0.50000  1.0000
  O   O13       1.0  0.84700  0.56400  0.50000  1.0000
  O   O14       1.0  0.34700  0.93600  0.50000  1.0000
  O   O15       1.0  0.00000  0.00000  0.72200  1.0000
  O   O16       1.0  0.50000  0.50000  0.72200  1.0000
  O   O17       1.0  0.40100  0.20600  0.75100  1.0000
  O   O18       1.0  0.90100  0.29400  0.75100  1.0000
  O   O19       1.0  0.09940  0.70600  0.75100  1.0000
  O   O20       1.0  0.59900  0.79400  0.75100  1.0000
  Pr  Pr1       1.0  0.14000  0.17200  0.00000  1.0000
  Pr  Pr2       1.0  0.64000  0.32800  0.00000  1.0000
  Pr  Pr3       1.0  0.36000  0.67200  0.00000  1.0000
  Pr  Pr4       1.0  0.86000  0.82800  0.00000  1.0000
