data_image0
_chemical_formula_structural       C4F8Na4O12Y4
_chemical_formula_sum              "C4 F8 Na4 O12 Y4"
_cell_length_a       6.86368
_cell_length_b       9.07701
_cell_length_c       6.28408
_cell_angle_alpha    90
_cell_angle_beta     90
_cell_angle_gamma    90

_space_group_name_H-M_alt    "P 1"
_space_group_IT_number       1

loop_
  _space_group_symop_operation_xyz
  'x, y, z'

loop_
  _atom_site_type_symbol
  _atom_site_label
  _atom_site_symmetry_multiplicity
  _atom_site_fract_x
  _atom_site_fract_y
  _atom_site_fract_z
  _atom_site_occupancy
  C   C1        1.0  0.75000  0.05780  0.04070  1.0000
  C   C2        1.0  0.25000  0.55800  0.45900  1.0000
  C   C3        1.0  0.75000  0.44200  0.54100  1.0000
  C   C4        1.0  0.25000  0.94200  0.95900  1.0000
  F   F1        1.0  0.56100  0.63500  0.04450  1.0000
  F   F2        1.0  0.93900  0.63500  0.04450  1.0000
  F   F3        1.0  0.06080  0.13500  0.45600  1.0000
  F   F4        1.0  0.43900  0.13500  0.45600  1.0000
  F   F5        1.0  0.56100  0.86500  0.54400  1.0000
  F   F6        1.0  0.93900  0.86500  0.54400  1.0000
  F   F7        1.0  0.06080  0.36500  0.95600  1.0000
  F   F8        1.0  0.43900  0.36500  0.95600  1.0000
  Na  Na1       1.0  0.25000  0.21700  0.17000  1.0000
  Na  Na2       1.0  0.75000  0.71700  0.33000  1.0000
  Na  Na3       1.0  0.25000  0.28300  0.67000  1.0000
  Na  Na4       1.0  0.75000  0.78300  0.83000  1.0000
  O   O1        1.0  0.75000  0.18700  0.13400  1.0000
  O   O2        1.0  0.25000  0.95600  0.16100  1.0000
  O   O3        1.0  0.75000  0.94400  0.16400  1.0000
  O   O4        1.0  0.25000  0.44400  0.33600  1.0000
  O   O5        1.0  0.75000  0.45600  0.33900  1.0000
  O   O6        1.0  0.25000  0.68700  0.36600  1.0000
  O   O7        1.0  0.75000  0.31300  0.63400  1.0000
  O   O8        1.0  0.25000  0.54400  0.66100  1.0000
  O   O9        1.0  0.75000  0.55600  0.66400  1.0000
  O   O10       1.0  0.25000  0.05630  0.83600  1.0000
  O   O11       1.0  0.75000  0.04390  0.83900  1.0000
  O   O12       1.0  0.25000  0.81300  0.86600  1.0000
  Y   Y1        1.0  0.25000  0.57700  0.01350  1.0000
  Y   Y2        1.0  0.75000  0.07750  0.48700  1.0000
  Y   Y3        1.0  0.25000  0.92300  0.51300  1.0000
  Y   Y4        1.0  0.75000  0.42300  0.98700  1.0000
