data_image0
_chemical_formula_structural       H8O16Se4Zn4
_chemical_formula_sum              "H8 O16 Se4 Zn4"
_cell_length_a       4.74652
_cell_length_b       12.5221
_cell_length_c       5.6621
_cell_angle_alpha    90
_cell_angle_beta     91.9234
_cell_angle_gamma    90

_space_group_name_H-M_alt    "P 1"
_space_group_IT_number       1

loop_
  _space_group_symop_operation_xyz
  'x, y, z'

loop_
  _atom_site_type_symbol
  _atom_site_label
  _atom_site_symmetry_multiplicity
  _atom_site_fract_x
  _atom_site_fract_y
  _atom_site_fract_z
  _atom_site_occupancy
  H   H1        1.0  0.81200  0.10700  0.04130  1.0000
  H   H2        1.0  0.27700  0.87300  0.22700  1.0000
  H   H3        1.0  0.22300  0.37300  0.27300  1.0000
  H   H4        1.0  0.68800  0.60700  0.45900  1.0000
  H   H5        1.0  0.31200  0.39300  0.54100  1.0000
  H   H6        1.0  0.77700  0.62700  0.72700  1.0000
  H   H7        1.0  0.72300  0.12700  0.77300  1.0000
  H   H8        1.0  0.18800  0.89300  0.95900  1.0000
  O   O1        1.0  0.92300  0.33100  0.11300  1.0000
  O   O2        1.0  0.11400  0.89300  0.12000  1.0000
  O   O3        1.0  0.57200  0.62300  0.12600  1.0000
  O   O4        1.0  0.41500  0.17100  0.15900  1.0000
  O   O5        1.0  0.08460  0.67100  0.34100  1.0000
  O   O6        1.0  0.92800  0.12300  0.37400  1.0000
  O   O7        1.0  0.38600  0.39300  0.38000  1.0000
  O   O8        1.0  0.57700  0.83100  0.38700  1.0000
  O   O9        1.0  0.42300  0.16900  0.61300  1.0000
  O   O10       1.0  0.61400  0.60700  0.62000  1.0000
  O   O11       1.0  0.07230  0.87700  0.62600  1.0000
  O   O12       1.0  0.91500  0.32900  0.65900  1.0000
  O   O13       1.0  0.58500  0.82900  0.84100  1.0000
  O   O14       1.0  0.42800  0.37700  0.87400  1.0000
  O   O15       1.0  0.88600  0.10700  0.88000  1.0000
  O   O16       1.0  0.07690  0.66900  0.88700  1.0000
  Se  Se1       1.0  0.22500  0.59100  0.11900  1.0000
  Se  Se2       1.0  0.27500  0.09110  0.38100  1.0000
  Se  Se3       1.0  0.72500  0.90900  0.61900  1.0000
  Se  Se4       1.0  0.77500  0.40900  0.88100  1.0000
  Zn  Zn1       1.0  0.81000  0.77000  0.12400  1.0000
  Zn  Zn2       1.0  0.69000  0.27000  0.37600  1.0000
  Zn  Zn3       1.0  0.31000  0.73000  0.62400  1.0000
  Zn  Zn4       1.0  0.19000  0.23000  0.87600  1.0000
