data_image0
_chemical_formula_structural       Ba4F24Te4
_chemical_formula_sum              "Ba4 F24 Te4"
_cell_length_a       8.50888
_cell_length_b       8.50888
_cell_length_c       8.53319
_cell_angle_alpha    104.261
_cell_angle_beta     104.261
_cell_angle_gamma    120.392

_space_group_name_H-M_alt    "P 1"
_space_group_IT_number       1

loop_
  _space_group_symop_operation_xyz
  'x, y, z'

loop_
  _atom_site_type_symbol
  _atom_site_label
  _atom_site_symmetry_multiplicity
  _atom_site_fract_x
  _atom_site_fract_y
  _atom_site_fract_z
  _atom_site_occupancy
  Ba  Ba1       1.0  0.21000  0.36700  0.24400  1.0000
  Ba  Ba2       1.0  0.21600  0.87400  0.25600  1.0000
  Ba  Ba3       1.0  0.61700  0.96000  0.74400  1.0000
  Ba  Ba4       1.0  0.12400  0.96600  0.75600  1.0000
  F   F1        1.0  0.25800  0.60000  0.04420  1.0000
  F   F2        1.0  0.76000  0.58600  0.07530  1.0000
  F   F3        1.0  0.79500  0.06120  0.09650  1.0000
  F   F4        1.0  0.29700  0.12700  0.10600  1.0000
  F   F5        1.0  0.95100  0.45800  0.17900  1.0000
  F   F6        1.0  0.55900  0.54500  0.23500  1.0000
  F   F7        1.0  0.57400  0.06030  0.26500  1.0000
  F   F8        1.0  0.02150  0.02900  0.32100  1.0000
  F   F9        1.0  0.44100  0.77100  0.39400  1.0000
  F   F10       1.0  0.94800  0.71500  0.40300  1.0000
  F   F11       1.0  0.93500  0.26100  0.42500  1.0000
  F   F12       1.0  0.46400  0.30600  0.45600  1.0000
  F   F13       1.0  0.85000  0.00832  0.54400  1.0000
  F   F14       1.0  0.83600  0.51000  0.57500  1.0000
  F   F15       1.0  0.31100  0.54500  0.59700  1.0000
  F   F16       1.0  0.37700  0.04700  0.60600  1.0000
  F   F17       1.0  0.70800  0.70100  0.67900  1.0000
  F   F18       1.0  0.79500  0.30900  0.73500  1.0000
  F   F19       1.0  0.31000  0.32400  0.76500  1.0000
  F   F20       1.0  0.27900  0.77200  0.82100  1.0000
  F   F21       1.0  0.02140  0.19100  0.89400  1.0000
  F   F22       1.0  0.96500  0.69800  0.90300  1.0000
  F   F23       1.0  0.51100  0.68500  0.92500  1.0000
  F   F24       1.0  0.55600  0.21400  0.95600  1.0000
  Te  Te1       1.0  0.71000  0.42800  0.21100  1.0000
  Te  Te2       1.0  0.74900  0.96700  0.28900  1.0000
  Te  Te3       1.0  0.67800  0.46000  0.71100  1.0000
  Te  Te4       1.0  0.21700  0.49900  0.78900  1.0000
