data_image0
_chemical_formula_structural       O22Sr2Ta8
_chemical_formula_sum              "O22 Sr2 Ta8"
_cell_length_a       6.2541
_cell_length_b       6.2541
_cell_length_c       12.3645
_cell_angle_alpha    89.9996
_cell_angle_beta     90.0004
_cell_angle_gamma    120

_space_group_name_H-M_alt    "P 1"
_space_group_IT_number       1

loop_
  _space_group_symop_operation_xyz
  'x, y, z'

loop_
  _atom_site_type_symbol
  _atom_site_label
  _atom_site_symmetry_multiplicity
  _atom_site_fract_x
  _atom_site_fract_y
  _atom_site_fract_z
  _atom_site_occupancy
  O   O1        1.0  0.75200  0.00000  0.00000  1.0000
  O   O2        1.0  0.24800  0.24800  0.00000  1.0000
  O   O3        1.0  0.00000  0.75200  0.00000  1.0000
  O   O4        1.0  0.66700  0.33300  0.03580  1.0000
  O   O5        1.0  0.36700  0.93900  0.15500  1.0000
  O   O6        1.0  0.57100  0.63300  0.15500  1.0000
  O   O7        1.0  0.06140  0.42900  0.15500  1.0000
  O   O8        1.0  0.06140  0.63300  0.34500  1.0000
  O   O9        1.0  0.36700  0.42900  0.34500  1.0000
  O   O10       1.0  0.57100  0.93900  0.34500  1.0000
  O   O11       1.0  0.66700  0.33300  0.46400  1.0000
  O   O12       1.0  0.00000  0.24800  0.50000  1.0000
  O   O13       1.0  0.75200  0.75200  0.50000  1.0000
  O   O14       1.0  0.24800  0.00000  0.50000  1.0000
  O   O15       1.0  0.33300  0.66700  0.53600  1.0000
  O   O16       1.0  0.93900  0.57100  0.65500  1.0000
  O   O17       1.0  0.42900  0.36700  0.65500  1.0000
  O   O18       1.0  0.63300  0.06140  0.65500  1.0000
  O   O19       1.0  0.42900  0.06140  0.84500  1.0000
  O   O20       1.0  0.63300  0.57100  0.84500  1.0000
  O   O21       1.0  0.93900  0.36700  0.84500  1.0000
  O   O22       1.0  0.33300  0.66700  0.96400  1.0000
  Sr  Sr1       1.0  0.66700  0.33300  0.25000  1.0000
  Sr  Sr2       1.0  0.33300  0.66700  0.75000  1.0000
  Ta  Ta1       1.0  0.35800  0.00000  0.00000  1.0000
  Ta  Ta2       1.0  0.00000  0.35800  0.00000  1.0000
  Ta  Ta3       1.0  0.64200  0.64200  0.00000  1.0000
  Ta  Ta4       1.0  0.33300  0.66700  0.25000  1.0000
  Ta  Ta5       1.0  1.00000  0.64200  0.50000  1.0000
  Ta  Ta6       1.0  0.35800  0.35800  0.50000  1.0000
  Ta  Ta7       1.0  0.64200  0.00000  0.50000  1.0000
  Ta  Ta8       1.0  0.66700  0.33300  0.75000  1.0000
