data_image0
_chemical_formula_structural       As4Li4O20V4
_chemical_formula_sum              "As4 Li4 O20 V4"
_cell_length_a       7.42063
_cell_length_b       6.51651
_cell_length_c       7.47686
_cell_angle_alpha    90
_cell_angle_beta     90
_cell_angle_gamma    90

_space_group_name_H-M_alt    "P 1"
_space_group_IT_number       1

loop_
  _space_group_symop_operation_xyz
  'x, y, z'

loop_
  _atom_site_type_symbol
  _atom_site_label
  _atom_site_symmetry_multiplicity
  _atom_site_fract_x
  _atom_site_fract_y
  _atom_site_fract_z
  _atom_site_occupancy
  As  As1       1.0  0.37600  0.25000  0.12900  1.0000
  As  As2       1.0  0.87600  0.25000  0.37100  1.0000
  As  As3       1.0  0.12400  0.75000  0.62900  1.0000
  As  As4       1.0  0.62400  0.75000  0.87100  1.0000
  Li  Li1       1.0  0.00000  0.00000  0.00000  1.0000
  Li  Li2       1.0  0.00000  0.50000  0.00000  1.0000
  Li  Li3       1.0  0.50000  0.00000  0.50000  1.0000
  Li  Li4       1.0  0.50000  0.50000  0.50000  1.0000
  O   O1        1.0  0.18200  0.25000  0.00289  1.0000
  O   O2        1.0  0.57100  0.25000  0.01110  1.0000
  O   O3        1.0  0.11100  0.75000  0.17700  1.0000
  O   O4        1.0  0.87000  0.04550  0.22900  1.0000
  O   O5        1.0  0.87000  0.45400  0.22900  1.0000
  O   O6        1.0  0.37000  0.04550  0.27100  1.0000
  O   O7        1.0  0.37000  0.45400  0.27100  1.0000
  O   O8        1.0  0.61100  0.75000  0.32300  1.0000
  O   O9        1.0  0.07120  0.25000  0.48900  1.0000
  O   O10       1.0  0.68200  0.25000  0.49700  1.0000
  O   O11       1.0  0.31800  0.75000  0.50300  1.0000
  O   O12       1.0  0.92900  0.75000  0.51100  1.0000
  O   O13       1.0  0.38900  0.25000  0.67700  1.0000
  O   O14       1.0  0.63000  0.54600  0.72900  1.0000
  O   O15       1.0  0.63000  0.95400  0.72900  1.0000
  O   O16       1.0  0.13000  0.54600  0.77100  1.0000
  O   O17       1.0  0.13000  0.95400  0.77100  1.0000
  O   O18       1.0  0.88900  0.25000  0.82300  1.0000
  O   O19       1.0  0.42900  0.75000  0.98900  1.0000
  O   O20       1.0  0.81800  0.75000  0.99700  1.0000
  V   V1        1.0  0.33400  0.75000  0.23000  1.0000
  V   V2        1.0  0.83400  0.75000  0.27000  1.0000
  V   V3        1.0  0.16600  0.25000  0.73000  1.0000
  V   V4        1.0  0.66600  0.25000  0.77000  1.0000
