data_image0
_chemical_formula_structural       O16Si4Sm8Te4
_chemical_formula_sum              "O16 Si4 Sm8 Te4"
_cell_length_a       6.23337
_cell_length_b       7.1095
_cell_length_c       11.0917
_cell_angle_alpha    90
_cell_angle_beta     90
_cell_angle_gamma    90

_space_group_name_H-M_alt    "P 1"
_space_group_IT_number       1

loop_
  _space_group_symop_operation_xyz
  'x, y, z'

loop_
  _atom_site_type_symbol
  _atom_site_label
  _atom_site_symmetry_multiplicity
  _atom_site_fract_x
  _atom_site_fract_y
  _atom_site_fract_z
  _atom_site_occupancy
  O   O1        1.0  0.27100  0.07350  0.03520  1.0000
  O   O2        1.0  0.72900  0.57300  0.03520  1.0000
  O   O3        1.0  0.94800  0.26700  0.11700  1.0000
  O   O4        1.0  0.05170  0.76700  0.11700  1.0000
  O   O5        1.0  0.94800  0.26700  0.38300  1.0000
  O   O6        1.0  0.05170  0.76700  0.38300  1.0000
  O   O7        1.0  0.27100  0.07350  0.46500  1.0000
  O   O8        1.0  0.72900  0.57300  0.46500  1.0000
  O   O9        1.0  0.27100  0.42700  0.53500  1.0000
  O   O10       1.0  0.72900  0.92700  0.53500  1.0000
  O   O11       1.0  0.94800  0.23300  0.61700  1.0000
  O   O12       1.0  0.05170  0.73300  0.61700  1.0000
  O   O13       1.0  0.94800  0.23300  0.88300  1.0000
  O   O14       1.0  0.05170  0.73300  0.88300  1.0000
  O   O15       1.0  0.27100  0.42700  0.96500  1.0000
  O   O16       1.0  0.72900  0.92700  0.96500  1.0000
  Si  Si1       1.0  0.11300  0.25000  0.00000  1.0000
  Si  Si2       1.0  0.88700  0.75000  0.00000  1.0000
  Si  Si3       1.0  0.11300  0.25000  0.50000  1.0000
  Si  Si4       1.0  0.88700  0.75000  0.50000  1.0000
  Sm  Sm1       1.0  0.61100  0.25000  0.00000  1.0000
  Sm  Sm2       1.0  0.38900  0.75000  0.00000  1.0000
  Sm  Sm3       1.0  0.11300  0.03600  0.25000  1.0000
  Sm  Sm4       1.0  0.88700  0.53600  0.25000  1.0000
  Sm  Sm5       1.0  0.61100  0.25000  0.50000  1.0000
  Sm  Sm6       1.0  0.38900  0.75000  0.50000  1.0000
  Sm  Sm7       1.0  0.11300  0.46400  0.75000  1.0000
  Sm  Sm8       1.0  0.88700  0.96400  0.75000  1.0000
  Te  Te1       1.0  0.40300  0.41700  0.25000  1.0000
  Te  Te2       1.0  0.59700  0.91700  0.25000  1.0000
  Te  Te3       1.0  0.40300  0.08340  0.75000  1.0000
  Te  Te4       1.0  0.59700  0.58300  0.75000  1.0000
