data_image0
_chemical_formula_structural       Nd8O16Si4Te4
_chemical_formula_sum              "Nd8 O16 Si4 Te4"
_cell_length_a       6.30037
_cell_length_b       7.20522
_cell_length_c       11.1943
_cell_angle_alpha    90
_cell_angle_beta     90
_cell_angle_gamma    90

_space_group_name_H-M_alt    "P 1"
_space_group_IT_number       1

loop_
  _space_group_symop_operation_xyz
  'x, y, z'

loop_
  _atom_site_type_symbol
  _atom_site_label
  _atom_site_symmetry_multiplicity
  _atom_site_fract_x
  _atom_site_fract_y
  _atom_site_fract_z
  _atom_site_occupancy
  Nd  Nd1       1.0  0.61100  0.25000  0.00000  1.0000
  Nd  Nd2       1.0  0.38900  0.75000  0.00000  1.0000
  Nd  Nd3       1.0  0.11300  0.03790  0.25000  1.0000
  Nd  Nd4       1.0  0.88700  0.53800  0.25000  1.0000
  Nd  Nd5       1.0  0.61100  0.25000  0.50000  1.0000
  Nd  Nd6       1.0  0.38900  0.75000  0.50000  1.0000
  Nd  Nd7       1.0  0.11300  0.46200  0.75000  1.0000
  Nd  Nd8       1.0  0.88700  0.96200  0.75000  1.0000
  O   O1        1.0  0.26900  0.07570  0.03500  1.0000
  O   O2        1.0  0.73100  0.57600  0.03500  1.0000
  O   O3        1.0  0.95000  0.26800  0.11600  1.0000
  O   O4        1.0  0.05020  0.76800  0.11600  1.0000
  O   O5        1.0  0.95000  0.26800  0.38400  1.0000
  O   O6        1.0  0.05020  0.76800  0.38400  1.0000
  O   O7        1.0  0.26900  0.07570  0.46500  1.0000
  O   O8        1.0  0.73100  0.57600  0.46500  1.0000
  O   O9        1.0  0.26900  0.42400  0.53500  1.0000
  O   O10       1.0  0.73100  0.92400  0.53500  1.0000
  O   O11       1.0  0.95000  0.23200  0.61600  1.0000
  O   O12       1.0  0.05020  0.73200  0.61600  1.0000
  O   O13       1.0  0.95000  0.23200  0.88400  1.0000
  O   O14       1.0  0.05020  0.73200  0.88400  1.0000
  O   O15       1.0  0.26900  0.42400  0.96500  1.0000
  O   O16       1.0  0.73100  0.92400  0.96500  1.0000
  Si  Si1       1.0  0.11300  0.25000  0.00000  1.0000
  Si  Si2       1.0  0.88700  0.75000  0.00000  1.0000
  Si  Si3       1.0  0.11300  0.25000  0.50000  1.0000
  Si  Si4       1.0  0.88700  0.75000  0.50000  1.0000
  Te  Te1       1.0  0.40200  0.42200  0.25000  1.0000
  Te  Te2       1.0  0.59800  0.92200  0.25000  1.0000
  Te  Te3       1.0  0.40200  0.07820  0.75000  1.0000
  Te  Te4       1.0  0.59800  0.57800  0.75000  1.0000
