data_image0
_chemical_formula_structural       B8Ga6Pt18
_chemical_formula_sum              "B8 Ga6 Pt18"
_cell_length_a       8.81493
_cell_length_b       8.81493
_cell_length_c       6.52087
_cell_angle_alpha    90
_cell_angle_beta     90
_cell_angle_gamma    120

_space_group_name_H-M_alt    "P 1"
_space_group_IT_number       1

loop_
  _space_group_symop_operation_xyz
  'x, y, z'

loop_
  _atom_site_type_symbol
  _atom_site_label
  _atom_site_symmetry_multiplicity
  _atom_site_fract_x
  _atom_site_fract_y
  _atom_site_fract_z
  _atom_site_occupancy
  B   B1        1.0  0.82000  0.00000  0.00000  1.0000
  B   B2        1.0  0.18000  0.18000  0.00000  1.0000
  B   B3        1.0  0.00000  0.82000  0.00000  1.0000
  B   B4        1.0  0.66700  0.33300  0.25000  1.0000
  B   B5        1.0  0.00000  0.82000  0.50000  1.0000
  B   B6        1.0  0.82000  0.00000  0.50000  1.0000
  B   B7        1.0  0.18000  0.18000  0.50000  1.0000
  B   B8        1.0  0.33300  0.66700  0.75000  1.0000
  Ga  Ga1       1.0  0.04870  0.48900  0.25000  1.0000
  Ga  Ga2       1.0  0.51100  0.56000  0.25000  1.0000
  Ga  Ga3       1.0  0.44000  0.95100  0.25000  1.0000
  Ga  Ga4       1.0  0.48900  0.04870  0.75000  1.0000
  Ga  Ga5       1.0  0.95100  0.44000  0.75000  1.0000
  Ga  Ga6       1.0  0.56000  0.51100  0.75000  1.0000
  Pt  Pt1       1.0  0.45900  0.27300  0.02010  1.0000
  Pt  Pt2       1.0  0.72700  0.18600  0.02010  1.0000
  Pt  Pt3       1.0  0.81400  0.54100  0.02010  1.0000
  Pt  Pt4       1.0  0.00760  0.18500  0.25000  1.0000
  Pt  Pt5       1.0  0.81500  0.82300  0.25000  1.0000
  Pt  Pt6       1.0  0.17700  0.99200  0.25000  1.0000
  Pt  Pt7       1.0  0.72700  0.18600  0.48000  1.0000
  Pt  Pt8       1.0  0.81400  0.54100  0.48000  1.0000
  Pt  Pt9       1.0  0.45900  0.27300  0.48000  1.0000
  Pt  Pt10      1.0  0.27300  0.45900  0.52000  1.0000
  Pt  Pt11      1.0  0.18600  0.72700  0.52000  1.0000
  Pt  Pt12      1.0  0.54100  0.81400  0.52000  1.0000
  Pt  Pt13      1.0  0.18500  0.00760  0.75000  1.0000
  Pt  Pt14      1.0  0.99200  0.17700  0.75000  1.0000
  Pt  Pt15      1.0  0.82300  0.81500  0.75000  1.0000
  Pt  Pt16      1.0  0.54100  0.81400  0.98000  1.0000
  Pt  Pt17      1.0  0.18600  0.72700  0.98000  1.0000
  Pt  Pt18      1.0  0.27300  0.45900  0.98000  1.0000
