data_image0
_chemical_formula_structural       Ho4Mn8O20
_chemical_formula_sum              "Ho4 Mn8 O20"
_cell_length_a       7.19053
_cell_length_b       8.47231
_cell_length_c       5.72345
_cell_angle_alpha    90
_cell_angle_beta     90
_cell_angle_gamma    90

_space_group_name_H-M_alt    "P 1"
_space_group_IT_number       1

loop_
  _space_group_symop_operation_xyz
  'x, y, z'

loop_
  _atom_site_type_symbol
  _atom_site_label
  _atom_site_symmetry_multiplicity
  _atom_site_fract_x
  _atom_site_fract_y
  _atom_site_fract_z
  _atom_site_occupancy
  Ho  Ho1       1.0  0.13500  0.17100  0.00000  1.0000
  Ho  Ho2       1.0  0.63500  0.32900  0.00000  1.0000
  Ho  Ho3       1.0  0.36500  0.67100  0.00000  1.0000
  Ho  Ho4       1.0  0.86500  0.82900  0.00000  1.0000
  Mn  Mn1       1.0  0.50000  0.00000  0.25300  1.0000
  Mn  Mn2       1.0  0.00000  0.50000  0.25300  1.0000
  Mn  Mn3       1.0  0.91400  0.15200  0.50000  1.0000
  Mn  Mn4       1.0  0.41400  0.34800  0.50000  1.0000
  Mn  Mn5       1.0  0.58600  0.65200  0.50000  1.0000
  Mn  Mn6       1.0  0.08580  0.84800  0.50000  1.0000
  Mn  Mn7       1.0  0.50000  0.00000  0.74700  1.0000
  Mn  Mn8       1.0  0.00000  0.50000  0.74700  1.0000
  O   O1        1.0  0.66700  0.05790  0.00000  1.0000
  O   O2        1.0  0.16700  0.44200  0.00000  1.0000
  O   O3        1.0  0.83300  0.55800  0.00000  1.0000
  O   O4        1.0  0.33300  0.94200  0.00000  1.0000
  O   O5        1.0  0.39100  0.20700  0.24000  1.0000
  O   O6        1.0  0.89100  0.29300  0.24000  1.0000
  O   O7        1.0  0.10900  0.70700  0.24000  1.0000
  O   O8        1.0  0.60900  0.79300  0.24000  1.0000
  O   O9        1.0  0.00000  0.00000  0.26900  1.0000
  O   O10       1.0  0.50000  0.50000  0.26900  1.0000
  O   O11       1.0  0.65200  0.07070  0.50000  1.0000
  O   O12       1.0  0.15200  0.42900  0.50000  1.0000
  O   O13       1.0  0.84800  0.57100  0.50000  1.0000
  O   O14       1.0  0.34800  0.92900  0.50000  1.0000
  O   O15       1.0  0.00000  0.00000  0.73100  1.0000
  O   O16       1.0  0.50000  0.50000  0.73100  1.0000
  O   O17       1.0  0.39100  0.20700  0.76000  1.0000
  O   O18       1.0  0.89100  0.29300  0.76000  1.0000
  O   O19       1.0  0.10900  0.70700  0.76000  1.0000
  O   O20       1.0  0.60900  0.79300  0.76000  1.0000
