data_image0
_chemical_formula_structural       H2K2O20P6Sm2
_chemical_formula_sum              "H2 K2 O20 P6 Sm2"
_cell_length_a       6.91337
_cell_length_b       7.60135
_cell_length_c       8.48452
_cell_angle_alpha    107.139
_cell_angle_beta     106.589
_cell_angle_gamma    82.4496

_space_group_name_H-M_alt    "P 1"
_space_group_IT_number       1

loop_
  _space_group_symop_operation_xyz
  'x, y, z'

loop_
  _atom_site_type_symbol
  _atom_site_label
  _atom_site_symmetry_multiplicity
  _atom_site_fract_x
  _atom_site_fract_y
  _atom_site_fract_z
  _atom_site_occupancy
  H   H1        1.0  0.31500  0.19100  0.41100  1.0000
  H   H2        1.0  0.68500  0.80900  0.58900  1.0000
  K   K1        1.0  0.20100  0.70600  0.46700  1.0000
  K   K2        1.0  0.79900  0.29400  0.53300  1.0000
  O   O1        1.0  0.27600  0.09160  0.04910  1.0000
  O   O2        1.0  0.46500  0.36400  0.07150  1.0000
  O   O3        1.0  0.13400  0.42700  0.13200  1.0000
  O   O4        1.0  0.04410  0.84600  0.17000  1.0000
  O   O5        1.0  0.87300  0.17300  0.18900  1.0000
  O   O6        1.0  0.71300  0.94400  0.25600  1.0000
  O   O7        1.0  0.44700  0.74900  0.26500  1.0000
  O   O8        1.0  0.80800  0.60900  0.26800  1.0000
  O   O9        1.0  0.41900  0.29700  0.34000  1.0000
  O   O10       1.0  0.25300  0.13200  0.48100  1.0000
  O   O11       1.0  0.74700  0.86800  0.51900  1.0000
  O   O12       1.0  0.58100  0.70300  0.66000  1.0000
  O   O13       1.0  0.19200  0.39100  0.73200  1.0000
  O   O14       1.0  0.55300  0.25100  0.73500  1.0000
  O   O15       1.0  0.28700  0.05550  0.74400  1.0000
  O   O16       1.0  0.12700  0.82700  0.81100  1.0000
  O   O17       1.0  0.95600  0.15400  0.83000  1.0000
  O   O18       1.0  0.86600  0.57300  0.86800  1.0000
  O   O19       1.0  0.53500  0.63600  0.92800  1.0000
  O   O20       1.0  0.72400  0.90800  0.95100  1.0000
  P   P1        1.0  0.85600  0.96900  0.14700  1.0000
  P   P2        1.0  0.33000  0.30300  0.15900  1.0000
  P   P3        1.0  0.67200  0.77600  0.32300  1.0000
  P   P4        1.0  0.32800  0.22400  0.67700  1.0000
  P   P5        1.0  0.67000  0.69700  0.84100  1.0000
  P   P6        1.0  0.14400  0.03120  0.85300  1.0000
  Sm  Sm1       1.0  0.77400  0.37000  0.00982  1.0000
  Sm  Sm2       1.0  0.22600  0.63000  0.99000  1.0000
