data_image0
_chemical_formula_structural       Ni12P12Zr8
_chemical_formula_sum              "Ni12 P12 Zr8"
_cell_length_a       12.3603
_cell_length_b       3.62889
_cell_length_c       10.0373
_cell_angle_alpha    90
_cell_angle_beta     90
_cell_angle_gamma    90

_space_group_name_H-M_alt    "P 1"
_space_group_IT_number       1

loop_
  _space_group_symop_operation_xyz
  'x, y, z'

loop_
  _atom_site_type_symbol
  _atom_site_label
  _atom_site_symmetry_multiplicity
  _atom_site_fract_x
  _atom_site_fract_y
  _atom_site_fract_z
  _atom_site_occupancy
  Ni  Ni1       1.0  0.01650  0.75000  0.09620  1.0000
  Ni  Ni2       1.0  0.71800  0.25000  0.13500  1.0000
  Ni  Ni3       1.0  0.83500  0.75000  0.22600  1.0000
  Ni  Ni4       1.0  0.33500  0.75000  0.27400  1.0000
  Ni  Ni5       1.0  0.21800  0.25000  0.36500  1.0000
  Ni  Ni6       1.0  0.51600  0.75000  0.40400  1.0000
  Ni  Ni7       1.0  0.48400  0.25000  0.59600  1.0000
  Ni  Ni8       1.0  0.78200  0.75000  0.63500  1.0000
  Ni  Ni9       1.0  0.66500  0.25000  0.72600  1.0000
  Ni  Ni10      1.0  0.16500  0.25000  0.77400  1.0000
  Ni  Ni11      1.0  0.28200  0.75000  0.86500  1.0000
  Ni  Ni12      1.0  0.98400  0.25000  0.90400  1.0000
  P   P1        1.0  0.37100  0.75000  0.05390  1.0000
  P   P2        1.0  0.89800  0.25000  0.10200  1.0000
  P   P3        1.0  0.64500  0.75000  0.23600  1.0000
  P   P4        1.0  0.14500  0.75000  0.26400  1.0000
  P   P5        1.0  0.39800  0.25000  0.39800  1.0000
  P   P6        1.0  0.87100  0.75000  0.44600  1.0000
  P   P7        1.0  0.12900  0.25000  0.55400  1.0000
  P   P8        1.0  0.60200  0.75000  0.60200  1.0000
  P   P9        1.0  0.85500  0.25000  0.73600  1.0000
  P   P10       1.0  0.35500  0.25000  0.76400  1.0000
  P   P11       1.0  0.10200  0.75000  0.89800  1.0000
  P   P12       1.0  0.62900  0.25000  0.94600  1.0000
  Zr  Zr1       1.0  0.20800  0.25000  0.07470  1.0000
  Zr  Zr2       1.0  0.49500  0.25000  0.16200  1.0000
  Zr  Zr3       1.0  0.99500  0.25000  0.33800  1.0000
  Zr  Zr4       1.0  0.70800  0.25000  0.42500  1.0000
  Zr  Zr5       1.0  0.29200  0.75000  0.57500  1.0000
  Zr  Zr6       1.0  0.00487  0.75000  0.66200  1.0000
  Zr  Zr7       1.0  0.50500  0.75000  0.83800  1.0000
  Zr  Zr8       1.0  0.79200  0.75000  0.92500  1.0000
