data_image0
_chemical_formula_structural       Co4H20Zr8
_chemical_formula_sum              "Co4 H20 Zr8"
_cell_length_a       6.86322
_cell_length_b       6.86322
_cell_length_c       5.63614
_cell_angle_alpha    90
_cell_angle_beta     90
_cell_angle_gamma    90

_space_group_name_H-M_alt    "P 1"
_space_group_IT_number       1

loop_
  _space_group_symop_operation_xyz
  'x, y, z'

loop_
  _atom_site_type_symbol
  _atom_site_label
  _atom_site_symmetry_multiplicity
  _atom_site_fract_x
  _atom_site_fract_y
  _atom_site_fract_z
  _atom_site_occupancy
  Co  Co1       1.0  0.25000  0.25000  0.00739  1.0000
  Co  Co2       1.0  0.75000  0.75000  0.49300  1.0000
  Co  Co3       1.0  0.25000  0.25000  0.50700  1.0000
  Co  Co4       1.0  0.75000  0.75000  0.99300  1.0000
  H   H1        1.0  0.75000  0.25000  0.00000  1.0000
  H   H2        1.0  0.25000  0.75000  0.00000  1.0000
  H   H3        1.0  0.33400  0.03530  0.07350  1.0000
  H   H4        1.0  0.03530  0.16600  0.07350  1.0000
  H   H5        1.0  0.46500  0.33400  0.07350  1.0000
  H   H6        1.0  0.16600  0.46500  0.07350  1.0000
  H   H7        1.0  0.66600  0.53500  0.42600  1.0000
  H   H8        1.0  0.96500  0.66600  0.42600  1.0000
  H   H9        1.0  0.53500  0.83400  0.42600  1.0000
  H   H10       1.0  0.83400  0.96500  0.42600  1.0000
  H   H11       1.0  0.75000  0.25000  0.50000  1.0000
  H   H12       1.0  0.25000  0.75000  0.50000  1.0000
  H   H13       1.0  0.16600  0.03530  0.57400  1.0000
  H   H14       1.0  0.46500  0.16600  0.57400  1.0000
  H   H15       1.0  0.03530  0.33400  0.57400  1.0000
  H   H16       1.0  0.33400  0.46500  0.57400  1.0000
  H   H17       1.0  0.83400  0.53500  0.92600  1.0000
  H   H18       1.0  0.53500  0.66600  0.92600  1.0000
  H   H19       1.0  0.96500  0.83400  0.92600  1.0000
  H   H20       1.0  0.66600  0.96500  0.92600  1.0000
  Zr  Zr1       1.0  0.58900  0.08870  0.25000  1.0000
  Zr  Zr2       1.0  0.91100  0.41100  0.25000  1.0000
  Zr  Zr3       1.0  0.41100  0.58900  0.25000  1.0000
  Zr  Zr4       1.0  0.08870  0.91100  0.25000  1.0000
  Zr  Zr5       1.0  0.91100  0.08870  0.75000  1.0000
  Zr  Zr6       1.0  0.58900  0.41100  0.75000  1.0000
  Zr  Zr7       1.0  0.08870  0.58900  0.75000  1.0000
  Zr  Zr8       1.0  0.41100  0.91100  0.75000  1.0000
