data_image0
_chemical_formula_structural       C4K4N8O16
_chemical_formula_sum              "C4 K4 N8 O16"
_cell_length_a       7.3902
_cell_length_b       7.3902
_cell_length_c       8.86584
_cell_angle_alpha    104.128
_cell_angle_beta     104.128
_cell_angle_gamma    59.4382

_space_group_name_H-M_alt    "P 1"
_space_group_IT_number       1

loop_
  _space_group_symop_operation_xyz
  'x, y, z'

loop_
  _atom_site_type_symbol
  _atom_site_label
  _atom_site_symmetry_multiplicity
  _atom_site_fract_x
  _atom_site_fract_y
  _atom_site_fract_z
  _atom_site_occupancy
  C   C1        1.0  0.27200  0.18400  0.16600  1.0000
  C   C2        1.0  0.31600  0.22800  0.33400  1.0000
  C   C3        1.0  0.68400  0.77200  0.66600  1.0000
  C   C4        1.0  0.72800  0.81600  0.83400  1.0000
  K   K1        1.0  0.67000  0.47000  0.19500  1.0000
  K   K2        1.0  0.03030  0.83000  0.30500  1.0000
  K   K3        1.0  0.97000  0.17000  0.69500  1.0000
  K   K4        1.0  0.33000  0.53000  0.80500  1.0000
  N   N1        1.0  0.25700  0.31800  0.07300  1.0000
  N   N2        1.0  0.26500  0.99600  0.09550  1.0000
  N   N3        1.0  0.50400  0.23500  0.40400  1.0000
  N   N4        1.0  0.18200  0.24300  0.42700  1.0000
  N   N5        1.0  0.81800  0.75700  0.57300  1.0000
  N   N6        1.0  0.49600  0.76500  0.59600  1.0000
  N   N7        1.0  0.73500  0.00408  0.90400  1.0000
  N   N8        1.0  0.74300  0.68200  0.92700  1.0000
  O   O1        1.0  0.80500  0.03650  0.04610  1.0000
  O   O2        1.0  0.77000  0.71500  0.07490  1.0000
  O   O3        1.0  0.28400  0.47700  0.14500  1.0000
  O   O4        1.0  0.33000  0.86000  0.18600  1.0000
  O   O5        1.0  0.64000  0.17000  0.31400  1.0000
  O   O6        1.0  0.02300  0.21600  0.35500  1.0000
  O   O7        1.0  0.78500  0.73000  0.42500  1.0000
  O   O8        1.0  0.46300  0.69500  0.45400  1.0000
  O   O9        1.0  0.53700  0.30500  0.54600  1.0000
  O   O10       1.0  0.21500  0.27000  0.57500  1.0000
  O   O11       1.0  0.97700  0.78400  0.64500  1.0000
  O   O12       1.0  0.36000  0.83000  0.68600  1.0000
  O   O13       1.0  0.67000  0.14000  0.81400  1.0000
  O   O14       1.0  0.71600  0.52300  0.85500  1.0000
  O   O15       1.0  0.23000  0.28500  0.92500  1.0000
  O   O16       1.0  0.19500  0.96300  0.95400  1.0000
