data_image0
_chemical_formula_structural       O20Ti4Y8
_chemical_formula_sum              "O20 Ti4 Y8"
_cell_length_a       10.3571
_cell_length_b       3.68849
_cell_length_c       11.2454
_cell_angle_alpha    90
_cell_angle_beta     90
_cell_angle_gamma    90

_space_group_name_H-M_alt    "P 1"
_space_group_IT_number       1

loop_
  _space_group_symop_operation_xyz
  'x, y, z'

loop_
  _atom_site_type_symbol
  _atom_site_label
  _atom_site_symmetry_multiplicity
  _atom_site_fract_x
  _atom_site_fract_y
  _atom_site_fract_z
  _atom_site_occupancy
  O   O1        1.0  0.22400  0.25000  0.04520  1.0000
  O   O2        1.0  0.49300  0.25000  0.10500  1.0000
  O   O3        1.0  0.76300  0.25000  0.11500  1.0000
  O   O4        1.0  0.99600  0.75000  0.15300  1.0000
  O   O5        1.0  0.24500  0.75000  0.23000  1.0000
  O   O6        1.0  0.74500  0.75000  0.27000  1.0000
  O   O7        1.0  0.49600  0.75000  0.34700  1.0000
  O   O8        1.0  0.26300  0.25000  0.38500  1.0000
  O   O9        1.0  0.99300  0.25000  0.39500  1.0000
  O   O10       1.0  0.72400  0.25000  0.45500  1.0000
  O   O11       1.0  0.27600  0.75000  0.54500  1.0000
  O   O12       1.0  0.00666  0.75000  0.60500  1.0000
  O   O13       1.0  0.73700  0.75000  0.61500  1.0000
  O   O14       1.0  0.50400  0.25000  0.65300  1.0000
  O   O15       1.0  0.25500  0.25000  0.73000  1.0000
  O   O16       1.0  0.75500  0.25000  0.77000  1.0000
  O   O17       1.0  0.00357  0.25000  0.84700  1.0000
  O   O18       1.0  0.23700  0.75000  0.88500  1.0000
  O   O19       1.0  0.50700  0.75000  0.89500  1.0000
  O   O20       1.0  0.77600  0.75000  0.95500  1.0000
  Ti  Ti1       1.0  0.82700  0.75000  0.11800  1.0000
  Ti  Ti2       1.0  0.32700  0.75000  0.38200  1.0000
  Ti  Ti3       1.0  0.67300  0.25000  0.61800  1.0000
  Ti  Ti4       1.0  0.17300  0.25000  0.88200  1.0000
  Y   Y1        1.0  0.36500  0.75000  0.05740  1.0000
  Y   Y2        1.0  0.11500  0.25000  0.22400  1.0000
  Y   Y3        1.0  0.61500  0.25000  0.27600  1.0000
  Y   Y4        1.0  0.86500  0.75000  0.44300  1.0000
  Y   Y5        1.0  0.13500  0.25000  0.55700  1.0000
  Y   Y6        1.0  0.38500  0.75000  0.72400  1.0000
  Y   Y7        1.0  0.88500  0.75000  0.77600  1.0000
  Y   Y8        1.0  0.63500  0.25000  0.94300  1.0000
