data_image0
_chemical_formula_structural       Au6F24La2
_chemical_formula_sum              "Au6 F24 La2"
_cell_length_a       7.67688
_cell_length_b       7.67688
_cell_length_c       7.67688
_cell_angle_alpha    94.3041
_cell_angle_beta     85.6959
_cell_angle_gamma    94.3041

_space_group_name_H-M_alt    "P 1"
_space_group_IT_number       1

loop_
  _space_group_symop_operation_xyz
  'x, y, z'

loop_
  _atom_site_type_symbol
  _atom_site_label
  _atom_site_symmetry_multiplicity
  _atom_site_fract_x
  _atom_site_fract_y
  _atom_site_fract_z
  _atom_site_occupancy
  Au  Au1       1.0  0.33800  0.25000  0.16200  1.0000
  Au  Au2       1.0  0.83800  0.33800  0.25000  1.0000
  Au  Au3       1.0  0.75000  0.83800  0.33800  1.0000
  Au  Au4       1.0  0.25000  0.16200  0.66200  1.0000
  Au  Au5       1.0  0.16200  0.66200  0.75000  1.0000
  Au  Au6       1.0  0.66200  0.75000  0.83800  1.0000
  F   F1        1.0  0.92000  0.26600  0.01200  1.0000
  F   F2        1.0  0.47200  0.75000  0.02820  1.0000
  F   F3        1.0  0.26600  0.01200  0.08000  1.0000
  F   F4        1.0  0.75000  0.65300  0.15300  1.0000
  F   F5        1.0  0.42000  0.48800  0.23400  1.0000
  F   F6        1.0  0.02820  0.52800  0.25000  1.0000
  F   F7        1.0  0.65300  0.15300  0.25000  1.0000
  F   F8        1.0  0.98800  0.92000  0.26600  1.0000
  F   F9        1.0  0.15300  0.25000  0.34700  1.0000
  F   F10       1.0  0.51200  0.76600  0.42000  1.0000
  F   F11       1.0  0.25000  0.97200  0.47200  1.0000
  F   F12       1.0  0.76600  0.42000  0.48800  1.0000
  F   F13       1.0  0.23400  0.58000  0.51200  1.0000
  F   F14       1.0  0.75000  0.02820  0.52800  1.0000
  F   F15       1.0  0.48800  0.23400  0.58000  1.0000
  F   F16       1.0  0.84700  0.75000  0.65300  1.0000
  F   F17       1.0  0.01200  0.08000  0.73400  1.0000
  F   F18       1.0  0.97200  0.47200  0.75000  1.0000
  F   F19       1.0  0.34700  0.84700  0.75000  1.0000
  F   F20       1.0  0.58000  0.51200  0.76600  1.0000
  F   F21       1.0  0.25000  0.34700  0.84700  1.0000
  F   F22       1.0  0.73400  0.98800  0.92000  1.0000
  F   F23       1.0  0.52800  0.25000  0.97200  1.0000
  F   F24       1.0  0.08000  0.73400  0.98800  1.0000
  La  La1       1.0  0.25000  0.75000  0.25000  1.0000
  La  La2       1.0  0.75000  0.25000  0.75000  1.0000
