data_image0
_chemical_formula_structural       B4Li4O20U4
_chemical_formula_sum              "B4 Li4 O20 U4"
_cell_length_a       5.70107
_cell_length_b       10.5349
_cell_length_c       6.86515
_cell_angle_alpha    90
_cell_angle_beta     105.215
_cell_angle_gamma    90

_space_group_name_H-M_alt    "P 1"
_space_group_IT_number       1

loop_
  _space_group_symop_operation_xyz
  'x, y, z'

loop_
  _atom_site_type_symbol
  _atom_site_label
  _atom_site_symmetry_multiplicity
  _atom_site_fract_x
  _atom_site_fract_y
  _atom_site_fract_z
  _atom_site_occupancy
  B   B1        1.0  0.77300  0.85200  0.19900  1.0000
  B   B2        1.0  0.22700  0.35200  0.30100  1.0000
  B   B3        1.0  0.77300  0.64800  0.69900  1.0000
  B   B4        1.0  0.22700  0.14800  0.80100  1.0000
  Li  Li1       1.0  0.54800  0.27000  0.12200  1.0000
  Li  Li2       1.0  0.45200  0.77000  0.37800  1.0000
  Li  Li3       1.0  0.54800  0.23000  0.62200  1.0000
  Li  Li4       1.0  0.45200  0.73000  0.87800  1.0000
  O   O1        1.0  0.84100  0.91400  0.04660  1.0000
  O   O2        1.0  0.14300  0.40800  0.11400  1.0000
  O   O3        1.0  0.63600  0.74300  0.16800  1.0000
  O   O4        1.0  0.65500  0.45000  0.17800  1.0000
  O   O5        1.0  0.85200  0.17700  0.21500  1.0000
  O   O6        1.0  0.14800  0.67700  0.28500  1.0000
  O   O7        1.0  0.34500  0.95000  0.32200  1.0000
  O   O8        1.0  0.36400  0.24300  0.33200  1.0000
  O   O9        1.0  0.85700  0.90800  0.38600  1.0000
  O   O10       1.0  0.15900  0.41400  0.45300  1.0000
  O   O11       1.0  0.84100  0.58600  0.54700  1.0000
  O   O12       1.0  0.14300  0.09200  0.61400  1.0000
  O   O13       1.0  0.63600  0.75700  0.66800  1.0000
  O   O14       1.0  0.65500  0.04970  0.67800  1.0000
  O   O15       1.0  0.85200  0.32300  0.71500  1.0000
  O   O16       1.0  0.14800  0.82300  0.78500  1.0000
  O   O17       1.0  0.34500  0.55000  0.82200  1.0000
  O   O18       1.0  0.36400  0.25700  0.83200  1.0000
  O   O19       1.0  0.85700  0.59200  0.88600  1.0000
  O   O20       1.0  0.15900  0.08590  0.95300  1.0000
  U   U1        1.0  0.89900  0.56400  0.22900  1.0000
  U   U2        1.0  0.10100  0.06440  0.27100  1.0000
  U   U3        1.0  0.89900  0.93600  0.72900  1.0000
  U   U4        1.0  0.10100  0.43600  0.77100  1.0000
