data_image0
_chemical_formula_structural       B10CaLa2O19
_chemical_formula_sum              "B10 Ca1 La2 O19"
_cell_length_a       6.39556
_cell_length_b       6.39556
_cell_length_c       9.05866
_cell_angle_alpha    91.017
_cell_angle_beta     91.017
_cell_angle_gamma    61.5121

_space_group_name_H-M_alt    "P 1"
_space_group_IT_number       1

loop_
  _space_group_symop_operation_xyz
  'x, y, z'

loop_
  _atom_site_type_symbol
  _atom_site_label
  _atom_site_symmetry_multiplicity
  _atom_site_fract_x
  _atom_site_fract_y
  _atom_site_fract_z
  _atom_site_occupancy
  B   B1        1.0  0.24100  0.62300  0.12600  1.0000
  B   B2        1.0  0.64000  0.28300  0.16100  1.0000
  B   B3        1.0  0.81400  0.83900  0.20700  1.0000
  B   B4        1.0  0.55400  0.67400  0.27200  1.0000
  B   B5        1.0  0.74600  0.78900  0.47300  1.0000
  B   B6        1.0  0.21100  0.25400  0.52700  1.0000
  B   B7        1.0  0.32600  0.44600  0.72800  1.0000
  B   B8        1.0  0.16100  0.18600  0.79300  1.0000
  B   B9        1.0  0.71700  0.36000  0.83900  1.0000
  B   B10       1.0  0.37700  0.75900  0.87400  1.0000
  Ca  Ca1       1.0  0.18600  0.81400  0.50000  1.0000
  La  La1       1.0  0.16200  0.16100  0.14100  1.0000
  La  La2       1.0  0.83900  0.83800  0.85900  1.0000
  O   O1        1.0  0.23400  0.76600  0.00000  1.0000
  O   O2        1.0  0.41200  0.36400  0.11200  1.0000
  O   O3        1.0  0.80800  0.05030  0.13100  1.0000
  O   O4        1.0  0.00912  0.63000  0.13600  1.0000
  O   O5        1.0  0.58900  0.84200  0.18000  1.0000
  O   O6        1.0  0.72100  0.42400  0.22400  1.0000
  O   O7        1.0  0.30500  0.72300  0.25500  1.0000
  O   O8        1.0  0.85400  0.85700  0.36500  1.0000
  O   O9        1.0  0.19300  0.19400  0.38600  1.0000
  O   O10       1.0  0.59300  0.70100  0.43000  1.0000
  O   O11       1.0  0.29900  0.40700  0.57000  1.0000
  O   O12       1.0  0.80600  0.80700  0.61400  1.0000
  O   O13       1.0  0.14300  0.14600  0.63500  1.0000
  O   O14       1.0  0.27700  0.69500  0.74500  1.0000
  O   O15       1.0  0.57600  0.27900  0.77600  1.0000
  O   O16       1.0  0.15800  0.41100  0.82000  1.0000
  O   O17       1.0  0.37000  0.99100  0.86400  1.0000
  O   O18       1.0  0.95000  0.19200  0.86900  1.0000
  O   O19       1.0  0.63600  0.58800  0.88800  1.0000
