data_image0
_chemical_formula_structural       P4Rb4Se24
_chemical_formula_sum              "P4 Rb4 Se24"
_cell_length_a       12.2674
_cell_length_b       6.98721
_cell_length_c       11.7045
_cell_angle_alpha    90
_cell_angle_beta     90
_cell_angle_gamma    90

_space_group_name_H-M_alt    "P 1"
_space_group_IT_number       1

loop_
  _space_group_symop_operation_xyz
  'x, y, z'

loop_
  _atom_site_type_symbol
  _atom_site_label
  _atom_site_symmetry_multiplicity
  _atom_site_fract_x
  _atom_site_fract_y
  _atom_site_fract_z
  _atom_site_occupancy
  P   P1        1.0  0.33300  0.28000  0.31500  1.0000
  P   P2        1.0  0.83300  0.72000  0.31500  1.0000
  P   P3        1.0  0.16700  0.28000  0.81500  1.0000
  P   P4        1.0  0.66700  0.72000  0.81500  1.0000
  Rb  Rb1       1.0  0.62900  0.31400  0.12900  1.0000
  Rb  Rb2       1.0  0.12900  0.68600  0.12900  1.0000
  Rb  Rb3       1.0  0.87100  0.31400  0.62900  1.0000
  Rb  Rb4       1.0  0.37100  0.68600  0.62900  1.0000
  Se  Se1       1.0  0.36900  0.43300  0.02160  1.0000
  Se  Se2       1.0  0.86900  0.56700  0.02160  1.0000
  Se  Se3       1.0  0.35900  0.07300  0.17700  1.0000
  Se  Se4       1.0  0.85900  0.92700  0.17700  1.0000
  Se  Se5       1.0  0.87700  0.42300  0.28000  1.0000
  Se  Se6       1.0  0.37700  0.57700  0.28000  1.0000
  Se  Se7       1.0  0.15100  0.24100  0.35100  1.0000
  Se  Se8       1.0  0.65100  0.75900  0.35100  1.0000
  Se  Se9       1.0  0.59900  0.24600  0.44200  1.0000
  Se  Se10      1.0  0.09880  0.75400  0.44200  1.0000
  Se  Se11      1.0  0.41400  0.18500  0.48700  1.0000
  Se  Se12      1.0  0.91400  0.81500  0.48700  1.0000
  Se  Se13      1.0  0.13100  0.43300  0.52200  1.0000
  Se  Se14      1.0  0.63100  0.56700  0.52200  1.0000
  Se  Se15      1.0  0.14100  0.07300  0.67700  1.0000
  Se  Se16      1.0  0.64100  0.92700  0.67700  1.0000
  Se  Se17      1.0  0.62300  0.42300  0.78000  1.0000
  Se  Se18      1.0  0.12300  0.57700  0.78000  1.0000
  Se  Se19      1.0  0.34900  0.24100  0.85100  1.0000
  Se  Se20      1.0  0.84900  0.75900  0.85100  1.0000
  Se  Se21      1.0  0.90100  0.24600  0.94200  1.0000
  Se  Se22      1.0  0.40100  0.75400  0.94200  1.0000
  Se  Se23      1.0  0.08640  0.18500  0.98700  1.0000
  Se  Se24      1.0  0.58600  0.81500  0.98700  1.0000
