data_image0
_chemical_formula_structural       O16P4Rb12
_chemical_formula_sum              "O16 P4 Rb12"
_cell_length_a       11.6591
_cell_length_b       8.39903
_cell_length_c       6.13017
_cell_angle_alpha    90
_cell_angle_beta     90
_cell_angle_gamma    90

_space_group_name_H-M_alt    "P 1"
_space_group_IT_number       1

loop_
  _space_group_symop_operation_xyz
  'x, y, z'

loop_
  _atom_site_type_symbol
  _atom_site_label
  _atom_site_symmetry_multiplicity
  _atom_site_fract_x
  _atom_site_fract_y
  _atom_site_fract_z
  _atom_site_occupancy
  O   O1        1.0  0.48800  0.75000  0.05750  1.0000
  O   O2        1.0  0.27100  0.75000  0.08800  1.0000
  O   O3        1.0  0.89100  0.59700  0.13400  1.0000
  O   O4        1.0  0.89100  0.90300  0.13400  1.0000
  O   O5        1.0  0.39100  0.59700  0.36600  1.0000
  O   O6        1.0  0.39100  0.90300  0.36600  1.0000
  O   O7        1.0  0.77100  0.75000  0.41200  1.0000
  O   O8        1.0  0.98800  0.75000  0.44300  1.0000
  O   O9        1.0  0.01200  0.25000  0.55700  1.0000
  O   O10       1.0  0.22900  0.25000  0.58800  1.0000
  O   O11       1.0  0.60900  0.09720  0.63400  1.0000
  O   O12       1.0  0.60900  0.40300  0.63400  1.0000
  O   O13       1.0  0.10900  0.09720  0.86600  1.0000
  O   O14       1.0  0.10900  0.40300  0.86600  1.0000
  O   O15       1.0  0.72900  0.25000  0.91200  1.0000
  O   O16       1.0  0.51200  0.25000  0.94300  1.0000
  P   P1        1.0  0.38500  0.75000  0.22200  1.0000
  P   P2        1.0  0.88500  0.75000  0.27800  1.0000
  P   P3        1.0  0.11500  0.25000  0.72200  1.0000
  P   P4        1.0  0.61500  0.25000  0.77800  1.0000
  Rb  Rb1       1.0  0.92600  0.25000  0.14100  1.0000
  Rb  Rb2       1.0  0.64400  0.50700  0.19200  1.0000
  Rb  Rb3       1.0  0.64400  0.99300  0.19200  1.0000
  Rb  Rb4       1.0  0.14400  0.50700  0.30800  1.0000
  Rb  Rb5       1.0  0.14400  0.99300  0.30800  1.0000
  Rb  Rb6       1.0  0.42600  0.25000  0.35900  1.0000
  Rb  Rb7       1.0  0.57400  0.75000  0.64100  1.0000
  Rb  Rb8       1.0  0.85600  0.00716  0.69200  1.0000
  Rb  Rb9       1.0  0.85600  0.49300  0.69200  1.0000
  Rb  Rb10      1.0  0.35600  0.00716  0.80800  1.0000
  Rb  Rb11      1.0  0.35600  0.49300  0.80800  1.0000
  Rb  Rb12      1.0  0.07400  0.75000  0.85900  1.0000
