data_image0
_chemical_formula_structural       Bi12Er20
_chemical_formula_sum              "Bi12 Er20"
_cell_length_a       8.17603
_cell_length_b       9.46229
_cell_length_c       11.8917
_cell_angle_alpha    90
_cell_angle_beta     90
_cell_angle_gamma    90

_space_group_name_H-M_alt    "P 1"
_space_group_IT_number       1

loop_
  _space_group_symop_operation_xyz
  'x, y, z'

loop_
  _atom_site_type_symbol
  _atom_site_label
  _atom_site_symmetry_multiplicity
  _atom_site_fract_x
  _atom_site_fract_y
  _atom_site_fract_z
  _atom_site_occupancy
  Bi  Bi1       1.0  0.59600  0.25000  0.04340  1.0000
  Bi  Bi2       1.0  0.06590  0.50400  0.17500  1.0000
  Bi  Bi3       1.0  0.06590  0.99600  0.17500  1.0000
  Bi  Bi4       1.0  0.56600  0.50400  0.32500  1.0000
  Bi  Bi5       1.0  0.56600  0.99600  0.32500  1.0000
  Bi  Bi6       1.0  0.09600  0.25000  0.45700  1.0000
  Bi  Bi7       1.0  0.90400  0.75000  0.54300  1.0000
  Bi  Bi8       1.0  0.43400  0.00426  0.67500  1.0000
  Bi  Bi9       1.0  0.43400  0.49600  0.67500  1.0000
  Bi  Bi10      1.0  0.93400  0.00426  0.82500  1.0000
  Bi  Bi11      1.0  0.93400  0.49600  0.82500  1.0000
  Bi  Bi12      1.0  0.40400  0.75000  0.95700  1.0000
  Er  Er1       1.0  0.97800  0.25000  0.01130  1.0000
  Er  Er2       1.0  0.69200  0.56500  0.05820  1.0000
  Er  Er3       1.0  0.69200  0.93500  0.05820  1.0000
  Er  Er4       1.0  0.35300  0.75000  0.21600  1.0000
  Er  Er5       1.0  0.31400  0.25000  0.21800  1.0000
  Er  Er6       1.0  0.81400  0.25000  0.28200  1.0000
  Er  Er7       1.0  0.85300  0.75000  0.28400  1.0000
  Er  Er8       1.0  0.19200  0.56500  0.44200  1.0000
  Er  Er9       1.0  0.19200  0.93500  0.44200  1.0000
  Er  Er10      1.0  0.47800  0.25000  0.48900  1.0000
  Er  Er11      1.0  0.52200  0.75000  0.51100  1.0000
  Er  Er12      1.0  0.80800  0.06480  0.55800  1.0000
  Er  Er13      1.0  0.80800  0.43500  0.55800  1.0000
  Er  Er14      1.0  0.14700  0.25000  0.71600  1.0000
  Er  Er15      1.0  0.18600  0.75000  0.71800  1.0000
  Er  Er16      1.0  0.68600  0.75000  0.78200  1.0000
  Er  Er17      1.0  0.64700  0.25000  0.78400  1.0000
  Er  Er18      1.0  0.30800  0.06480  0.94200  1.0000
  Er  Er19      1.0  0.30800  0.43500  0.94200  1.0000
  Er  Er20      1.0  0.02170  0.75000  0.98900  1.0000
