data_image0
_chemical_formula_structural       S20Sm8U4
_chemical_formula_sum              "S20 Sm8 U4"
_cell_length_a       11.8485
_cell_length_b       7.99544
_cell_length_c       7.43842
_cell_angle_alpha    90
_cell_angle_beta     90
_cell_angle_gamma    90

_space_group_name_H-M_alt    "P 1"
_space_group_IT_number       1

loop_
  _space_group_symop_operation_xyz
  'x, y, z'

loop_
  _atom_site_type_symbol
  _atom_site_label
  _atom_site_symmetry_multiplicity
  _atom_site_fract_x
  _atom_site_fract_y
  _atom_site_fract_z
  _atom_site_occupancy
  S   S1        1.0  0.00012  0.75000  0.04450  1.0000
  S   S2        1.0  0.40300  0.04310  0.16200  1.0000
  S   S3        1.0  0.40300  0.45700  0.16200  1.0000
  S   S4        1.0  0.68600  0.25000  0.17200  1.0000
  S   S5        1.0  0.71500  0.75000  0.19800  1.0000
  S   S6        1.0  0.21500  0.75000  0.30200  1.0000
  S   S7        1.0  0.18600  0.25000  0.32800  1.0000
  S   S8        1.0  0.90300  0.04310  0.33800  1.0000
  S   S9        1.0  0.90300  0.45700  0.33800  1.0000
  S   S10       1.0  0.50000  0.75000  0.45600  1.0000
  S   S11       1.0  0.50000  0.25000  0.54400  1.0000
  S   S12       1.0  0.09710  0.54300  0.66200  1.0000
  S   S13       1.0  0.09710  0.95700  0.66200  1.0000
  S   S14       1.0  0.81400  0.75000  0.67200  1.0000
  S   S15       1.0  0.78500  0.25000  0.69800  1.0000
  S   S16       1.0  0.28500  0.25000  0.80200  1.0000
  S   S17       1.0  0.31400  0.75000  0.82800  1.0000
  S   S18       1.0  0.59700  0.54300  0.83800  1.0000
  S   S19       1.0  0.59700  0.95700  0.83800  1.0000
  S   S20       1.0  0.00000  0.25000  0.95600  1.0000
  Sm  Sm1       1.0  0.17800  0.50100  0.02180  1.0000
  Sm  Sm2       1.0  0.17800  0.99900  0.02180  1.0000
  Sm  Sm3       1.0  0.67800  0.50100  0.47800  1.0000
  Sm  Sm4       1.0  0.67800  0.99900  0.47800  1.0000
  Sm  Sm5       1.0  0.32200  0.00093  0.52200  1.0000
  Sm  Sm6       1.0  0.32200  0.49900  0.52200  1.0000
  Sm  Sm7       1.0  0.82200  0.00093  0.97800  1.0000
  Sm  Sm8       1.0  0.82200  0.49900  0.97800  1.0000
  U   U1        1.0  0.49100  0.75000  0.07210  1.0000
  U   U2        1.0  0.99100  0.75000  0.42800  1.0000
  U   U3        1.0  0.00872  0.25000  0.57200  1.0000
  U   U4        1.0  0.50900  0.25000  0.92800  1.0000
