data_image0
_chemical_formula_structural       K4P4Se24
_chemical_formula_sum              "K4 P4 Se24"
_cell_length_a       11.9526
_cell_length_b       6.9486
_cell_length_c       11.5787
_cell_angle_alpha    90
_cell_angle_beta     90
_cell_angle_gamma    90

_space_group_name_H-M_alt    "P 1"
_space_group_IT_number       1

loop_
  _space_group_symop_operation_xyz
  'x, y, z'

loop_
  _atom_site_type_symbol
  _atom_site_label
  _atom_site_symmetry_multiplicity
  _atom_site_fract_x
  _atom_site_fract_y
  _atom_site_fract_z
  _atom_site_occupancy
  K   K1        1.0  0.37200  0.17500  0.34500  1.0000
  K   K2        1.0  0.87200  0.82500  0.34500  1.0000
  K   K3        1.0  0.12800  0.17500  0.84500  1.0000
  K   K4        1.0  0.62800  0.82500  0.84500  1.0000
  P   P1        1.0  0.67000  0.22600  0.16200  1.0000
  P   P2        1.0  0.17000  0.77400  0.16200  1.0000
  P   P3        1.0  0.83000  0.22600  0.66200  1.0000
  P   P4        1.0  0.33000  0.77400  0.66200  1.0000
  Se  Se1       1.0  0.39800  0.25300  0.03850  1.0000
  Se  Se2       1.0  0.89800  0.74700  0.03850  1.0000
  Se  Se3       1.0  0.85700  0.26500  0.12800  1.0000
  Se  Se4       1.0  0.35700  0.73500  0.12800  1.0000
  Se  Se5       1.0  0.12900  0.07610  0.19600  1.0000
  Se  Se6       1.0  0.62900  0.92400  0.19600  1.0000
  Se  Se7       1.0  0.64000  0.43100  0.30200  1.0000
  Se  Se8       1.0  0.14000  0.56900  0.30200  1.0000
  Se  Se9       1.0  0.62900  0.06890  0.45500  1.0000
  Se  Se10      1.0  0.12900  0.93100  0.45500  1.0000
  Se  Se11      1.0  0.91300  0.32200  0.48900  1.0000
  Se  Se12      1.0  0.41300  0.67800  0.48900  1.0000
  Se  Se13      1.0  0.10200  0.25300  0.53800  1.0000
  Se  Se14      1.0  0.60200  0.74700  0.53800  1.0000
  Se  Se15      1.0  0.64300  0.26500  0.62800  1.0000
  Se  Se16      1.0  0.14300  0.73500  0.62800  1.0000
  Se  Se17      1.0  0.37100  0.07610  0.69600  1.0000
  Se  Se18      1.0  0.87100  0.92400  0.69600  1.0000
  Se  Se19      1.0  0.86000  0.43100  0.80200  1.0000
  Se  Se20      1.0  0.36000  0.56900  0.80200  1.0000
  Se  Se21      1.0  0.87100  0.06890  0.95500  1.0000
  Se  Se22      1.0  0.37100  0.93100  0.95500  1.0000
  Se  Se23      1.0  0.58700  0.32200  0.98900  1.0000
  Se  Se24      1.0  0.08650  0.67800  0.98900  1.0000
