data_image0
_chemical_formula_structural       Pu20Rh12
_chemical_formula_sum              "Pu20 Rh12"
_cell_length_a       10.9329
_cell_length_b       10.9329
_cell_length_c       6.14061
_cell_angle_alpha    90
_cell_angle_beta     90
_cell_angle_gamma    90

_space_group_name_H-M_alt    "P 1"
_space_group_IT_number       1

loop_
  _space_group_symop_operation_xyz
  'x, y, z'

loop_
  _atom_site_type_symbol
  _atom_site_label
  _atom_site_symmetry_multiplicity
  _atom_site_fract_x
  _atom_site_fract_y
  _atom_site_fract_z
  _atom_site_occupancy
  Pu  Pu1       1.0  0.00000  0.00000  0.00000  1.0000
  Pu  Pu2       1.0  0.50000  0.50000  0.00000  1.0000
  Pu  Pu3       1.0  0.91300  0.28600  0.14200  1.0000
  Pu  Pu4       1.0  0.21400  0.41300  0.14200  1.0000
  Pu  Pu5       1.0  0.78600  0.58700  0.14200  1.0000
  Pu  Pu6       1.0  0.08660  0.71400  0.14200  1.0000
  Pu  Pu7       1.0  0.71400  0.08660  0.35800  1.0000
  Pu  Pu8       1.0  0.41300  0.21400  0.35800  1.0000
  Pu  Pu9       1.0  0.58700  0.78600  0.35800  1.0000
  Pu  Pu10      1.0  0.28600  0.91300  0.35800  1.0000
  Pu  Pu11      1.0  0.00000  0.00000  0.50000  1.0000
  Pu  Pu12      1.0  0.50000  0.50000  0.50000  1.0000
  Pu  Pu13      1.0  0.08660  0.28600  0.64200  1.0000
  Pu  Pu14      1.0  0.78600  0.41300  0.64200  1.0000
  Pu  Pu15      1.0  0.21400  0.58700  0.64200  1.0000
  Pu  Pu16      1.0  0.91300  0.71400  0.64200  1.0000
  Pu  Pu17      1.0  0.28600  0.08660  0.85800  1.0000
  Pu  Pu18      1.0  0.58700  0.21400  0.85800  1.0000
  Pu  Pu19      1.0  0.41300  0.78600  0.85800  1.0000
  Pu  Pu20      1.0  0.71400  0.91300  0.85800  1.0000
  Rh  Rh1       1.0  0.50000  0.00000  0.09980  1.0000
  Rh  Rh2       1.0  0.16000  0.16000  0.25000  1.0000
  Rh  Rh3       1.0  0.66000  0.34000  0.25000  1.0000
  Rh  Rh4       1.0  0.34000  0.66000  0.25000  1.0000
  Rh  Rh5       1.0  0.84000  0.84000  0.25000  1.0000
  Rh  Rh6       1.0  0.00000  0.50000  0.40000  1.0000
  Rh  Rh7       1.0  0.50000  0.00000  0.60000  1.0000
  Rh  Rh8       1.0  0.84000  0.16000  0.75000  1.0000
  Rh  Rh9       1.0  0.34000  0.34000  0.75000  1.0000
  Rh  Rh10      1.0  0.66000  0.66000  0.75000  1.0000
  Rh  Rh11      1.0  0.16000  0.84000  0.75000  1.0000
  Rh  Rh12      1.0  0.00000  0.50000  0.90000  1.0000
