data_image0
_chemical_formula_structural       Ga8Rb8S16
_chemical_formula_sum              "Ga8 Rb8 S16"
_cell_length_a       7.47942
_cell_length_b       7.47942
_cell_length_c       15.5845
_cell_angle_alpha    96.8951
_cell_angle_beta     83.1049
_cell_angle_gamma    90.0512

_space_group_name_H-M_alt    "P 1"
_space_group_IT_number       1

loop_
  _space_group_symop_operation_xyz
  'x, y, z'

loop_
  _atom_site_type_symbol
  _atom_site_label
  _atom_site_symmetry_multiplicity
  _atom_site_fract_x
  _atom_site_fract_y
  _atom_site_fract_z
  _atom_site_occupancy
  Ga  Ga1       1.0  0.20800  0.92100  0.16700  1.0000
  Ga  Ga2       1.0  0.20800  0.41300  0.16700  1.0000
  Ga  Ga3       1.0  0.41300  0.20800  0.33300  1.0000
  Ga  Ga4       1.0  0.92100  0.20800  0.33300  1.0000
  Ga  Ga5       1.0  0.07940  0.79200  0.66700  1.0000
  Ga  Ga6       1.0  0.58700  0.79200  0.66700  1.0000
  Ga  Ga7       1.0  0.79200  0.58700  0.83300  1.0000
  Ga  Ga8       1.0  0.79200  0.07940  0.83300  1.0000
  Rb  Rb1       1.0  0.72400  0.15200  0.10500  1.0000
  Rb  Rb2       1.0  0.72400  0.65100  0.10600  1.0000
  Rb  Rb3       1.0  0.65100  0.72400  0.39400  1.0000
  Rb  Rb4       1.0  0.15200  0.72400  0.39500  1.0000
  Rb  Rb5       1.0  0.84800  0.27600  0.60500  1.0000
  Rb  Rb6       1.0  0.34900  0.27600  0.60600  1.0000
  Rb  Rb7       1.0  0.27600  0.34900  0.89400  1.0000
  Rb  Rb8       1.0  0.27600  0.84800  0.89500  1.0000
  S   S1        1.0  0.23100  0.14400  0.07570  1.0000
  S   S2        1.0  0.23000  0.64500  0.07930  1.0000
  S   S3        1.0  0.44200  0.93300  0.25000  1.0000
  S   S4        1.0  0.44300  0.44300  0.25000  1.0000
  S   S5        1.0  0.93300  0.93300  0.25000  1.0000
  S   S6        1.0  0.93300  0.44200  0.25000  1.0000
  S   S7        1.0  0.64500  0.23000  0.42100  1.0000
  S   S8        1.0  0.14400  0.23100  0.42400  1.0000
  S   S9        1.0  0.85600  0.76900  0.57600  1.0000
  S   S10       1.0  0.35500  0.77000  0.57900  1.0000
  S   S11       1.0  0.06690  0.55800  0.75000  1.0000
  S   S12       1.0  0.06720  0.06720  0.75000  1.0000
  S   S13       1.0  0.55700  0.55700  0.75000  1.0000
  S   S14       1.0  0.55800  0.06690  0.75000  1.0000
  S   S15       1.0  0.77000  0.35500  0.92100  1.0000
  S   S16       1.0  0.76900  0.85600  0.92400  1.0000
