data_image0
_chemical_formula_structural       C6Eu2Na6O18
_chemical_formula_sum              "C6 Eu2 Na6 O18"
_cell_length_a       6.53655
_cell_length_b       6.53655
_cell_length_c       10.0051
_cell_angle_alpha    90
_cell_angle_beta     90
_cell_angle_gamma    64.8867

_space_group_name_H-M_alt    "P 1"
_space_group_IT_number       1

loop_
  _space_group_symop_operation_xyz
  'x, y, z'

loop_
  _atom_site_type_symbol
  _atom_site_label
  _atom_site_symmetry_multiplicity
  _atom_site_fract_x
  _atom_site_fract_y
  _atom_site_fract_z
  _atom_site_occupancy
  C   C1        1.0  0.47100  0.12400  0.00042  1.0000
  C   C2        1.0  0.23400  0.78400  0.25000  1.0000
  C   C3        1.0  0.47100  0.12400  0.50000  1.0000
  C   C4        1.0  0.87600  0.52900  0.50000  1.0000
  C   C5        1.0  0.21600  0.76600  0.75000  1.0000
  C   C6        1.0  0.87600  0.52900  0.00000  1.0000
  Eu  Eu1       1.0  0.22000  0.23000  0.25000  1.0000
  Eu  Eu2       1.0  0.77000  0.78000  0.75000  1.0000
  Na  Na1       1.0  0.94300  0.05670  0.00000  1.0000
  Na  Na2       1.0  0.62700  0.39400  0.25000  1.0000
  Na  Na3       1.0  0.78200  0.80100  0.25000  1.0000
  Na  Na4       1.0  0.94300  0.05670  0.50000  1.0000
  Na  Na5       1.0  0.19900  0.21800  0.75000  1.0000
  Na  Na6       1.0  0.60600  0.37300  0.75000  1.0000
  O   O1        1.0  0.28300  0.10700  0.00682  1.0000
  O   O2        1.0  0.56900  0.14700  0.10800  1.0000
  O   O3        1.0  0.88000  0.43600  0.11400  1.0000
  O   O4        1.0  0.23100  0.58800  0.25000  1.0000
  O   O5        1.0  0.42200  0.80300  0.25000  1.0000
  O   O6        1.0  0.04300  0.96500  0.25000  1.0000
  O   O7        1.0  0.88000  0.43600  0.38600  1.0000
  O   O8        1.0  0.56900  0.14700  0.39200  1.0000
  O   O9        1.0  0.28300  0.10700  0.49300  1.0000
  O   O10       1.0  0.89300  0.71700  0.50700  1.0000
  O   O11       1.0  0.85300  0.43100  0.60800  1.0000
  O   O12       1.0  0.56400  0.12000  0.61400  1.0000
  O   O13       1.0  0.19700  0.57800  0.75000  1.0000
  O   O14       1.0  0.41200  0.76900  0.75000  1.0000
  O   O15       1.0  0.03510  0.95700  0.75000  1.0000
  O   O16       1.0  0.56400  0.12000  0.88600  1.0000
  O   O17       1.0  0.85300  0.43100  0.89200  1.0000
  O   O18       1.0  0.89300  0.71700  0.99300  1.0000
