data_image0
_chemical_formula_structural       Er8O16Se4Si4
_chemical_formula_sum              "Er8 O16 Se4 Si4"
_cell_length_a       5.96884
_cell_length_b       6.86678
_cell_length_c       10.6905
_cell_angle_alpha    90
_cell_angle_beta     90
_cell_angle_gamma    90

_space_group_name_H-M_alt    "P 1"
_space_group_IT_number       1

loop_
  _space_group_symop_operation_xyz
  'x, y, z'

loop_
  _atom_site_type_symbol
  _atom_site_label
  _atom_site_symmetry_multiplicity
  _atom_site_fract_x
  _atom_site_fract_y
  _atom_site_fract_z
  _atom_site_occupancy
  Er  Er1       1.0  0.60800  0.25000  0.00000  1.0000
  Er  Er2       1.0  0.39200  0.75000  0.00000  1.0000
  Er  Er3       1.0  0.13300  0.47300  0.25000  1.0000
  Er  Er4       1.0  0.86700  0.97300  0.25000  1.0000
  Er  Er5       1.0  0.60800  0.25000  0.50000  1.0000
  Er  Er6       1.0  0.39200  0.75000  0.50000  1.0000
  Er  Er7       1.0  0.13300  0.02730  0.75000  1.0000
  Er  Er8       1.0  0.86700  0.52700  0.75000  1.0000
  O   O1        1.0  0.27800  0.43400  0.03190  1.0000
  O   O2        1.0  0.72200  0.93400  0.03190  1.0000
  O   O3        1.0  0.94500  0.24200  0.12200  1.0000
  O   O4        1.0  0.05530  0.74200  0.12200  1.0000
  O   O5        1.0  0.94500  0.24200  0.37800  1.0000
  O   O6        1.0  0.05530  0.74200  0.37800  1.0000
  O   O7        1.0  0.27800  0.43400  0.46800  1.0000
  O   O8        1.0  0.72200  0.93400  0.46800  1.0000
  O   O9        1.0  0.27800  0.06650  0.53200  1.0000
  O   O10       1.0  0.72200  0.56600  0.53200  1.0000
  O   O11       1.0  0.94500  0.25800  0.62200  1.0000
  O   O12       1.0  0.05530  0.75800  0.62200  1.0000
  O   O13       1.0  0.94500  0.25800  0.87800  1.0000
  O   O14       1.0  0.05530  0.75800  0.87800  1.0000
  O   O15       1.0  0.27800  0.06650  0.96800  1.0000
  O   O16       1.0  0.72200  0.56600  0.96800  1.0000
  Se  Se1       1.0  0.42400  0.12800  0.25000  1.0000
  Se  Se2       1.0  0.57600  0.62800  0.25000  1.0000
  Se  Se3       1.0  0.42400  0.37200  0.75000  1.0000
  Se  Se4       1.0  0.57600  0.87200  0.75000  1.0000
  Si  Si1       1.0  0.11300  0.25000  0.00000  1.0000
  Si  Si2       1.0  0.88700  0.75000  0.00000  1.0000
  Si  Si3       1.0  0.11300  0.25000  0.50000  1.0000
  Si  Si4       1.0  0.88700  0.75000  0.50000  1.0000
