data_image0
_chemical_formula_structural       Ge12Ir8Se12
_chemical_formula_sum              "Ge12 Ir8 Se12"
_cell_length_a       8.67526
_cell_length_b       8.67526
_cell_length_c       8.67526
_cell_angle_alpha    89.8187
_cell_angle_beta     90.1813
_cell_angle_gamma    90.1813

_space_group_name_H-M_alt    "P 1"
_space_group_IT_number       1

loop_
  _space_group_symop_operation_xyz
  'x, y, z'

loop_
  _atom_site_type_symbol
  _atom_site_label
  _atom_site_symmetry_multiplicity
  _atom_site_fract_x
  _atom_site_fract_y
  _atom_site_fract_z
  _atom_site_occupancy
  Ge  Ge1       1.0  0.33100  0.85000  0.00232  1.0000
  Ge  Ge2       1.0  0.00232  0.33100  0.15000  1.0000
  Ge  Ge3       1.0  0.34900  0.50200  0.16800  1.0000
  Ge  Ge4       1.0  0.85000  0.99800  0.33100  1.0000
  Ge  Ge5       1.0  0.50200  0.83200  0.34900  1.0000
  Ge  Ge6       1.0  0.16800  0.34900  0.49800  1.0000
  Ge  Ge7       1.0  0.83200  0.65100  0.50200  1.0000
  Ge  Ge8       1.0  0.49800  0.16800  0.65100  1.0000
  Ge  Ge9       1.0  0.15000  0.00232  0.66900  1.0000
  Ge  Ge10      1.0  0.65100  0.49800  0.83200  1.0000
  Ge  Ge11      1.0  0.99800  0.66900  0.85000  1.0000
  Ge  Ge12      1.0  0.66900  0.15000  0.99800  1.0000
  Ir  Ir1       1.0  0.75300  0.24700  0.24700  1.0000
  Ir  Ir2       1.0  0.25100  0.25400  0.24800  1.0000
  Ir  Ir3       1.0  0.25400  0.75200  0.25100  1.0000
  Ir  Ir4       1.0  0.75200  0.74900  0.25400  1.0000
  Ir  Ir5       1.0  0.24800  0.25100  0.74600  1.0000
  Ir  Ir6       1.0  0.74600  0.24800  0.74900  1.0000
  Ir  Ir7       1.0  0.74900  0.74600  0.75200  1.0000
  Ir  Ir8       1.0  0.24700  0.75300  0.75300  1.0000
  Se  Se1       1.0  0.64700  0.85700  0.00031  1.0000
  Se  Se2       1.0  0.00031  0.64700  0.14300  1.0000
  Se  Se3       1.0  0.64300  0.49700  0.14700  1.0000
  Se  Se4       1.0  0.14300  0.00031  0.35300  1.0000
  Se  Se5       1.0  0.50300  0.14700  0.35700  1.0000
  Se  Se6       1.0  0.85300  0.35700  0.49700  1.0000
  Se  Se7       1.0  0.14700  0.64300  0.50300  1.0000
  Se  Se8       1.0  0.49700  0.85300  0.64300  1.0000
  Se  Se9       1.0  0.85700  0.00000  0.64700  1.0000
  Se  Se10      1.0  0.35700  0.50300  0.85300  1.0000
  Se  Se11      1.0  0.00000  0.35300  0.85700  1.0000
  Se  Se12      1.0  0.35300  0.14300  0.00000  1.0000
