data_image0
_chemical_formula_structural       Ga20Tm12
_chemical_formula_sum              "Ga20 Tm12"
_cell_length_a       11.3165
_cell_length_b       9.57968
_cell_length_c       6.02343
_cell_angle_alpha    90
_cell_angle_beta     90
_cell_angle_gamma    90

_space_group_name_H-M_alt    "P 1"
_space_group_IT_number       1

loop_
  _space_group_symop_operation_xyz
  'x, y, z'

loop_
  _atom_site_type_symbol
  _atom_site_label
  _atom_site_symmetry_multiplicity
  _atom_site_fract_x
  _atom_site_fract_y
  _atom_site_fract_z
  _atom_site_occupancy
  Ga  Ga1       1.0  0.70200  0.75000  0.10500  1.0000
  Ga  Ga2       1.0  0.40900  0.05190  0.12500  1.0000
  Ga  Ga3       1.0  0.40900  0.44800  0.12500  1.0000
  Ga  Ga4       1.0  0.00576  0.25000  0.12700  1.0000
  Ga  Ga5       1.0  0.75200  0.25000  0.17300  1.0000
  Ga  Ga6       1.0  0.25200  0.25000  0.32700  1.0000
  Ga  Ga7       1.0  0.50600  0.25000  0.37300  1.0000
  Ga  Ga8       1.0  0.90900  0.05190  0.37500  1.0000
  Ga  Ga9       1.0  0.90900  0.44800  0.37500  1.0000
  Ga  Ga10      1.0  0.20200  0.75000  0.39500  1.0000
  Ga  Ga11      1.0  0.79800  0.25000  0.60500  1.0000
  Ga  Ga12      1.0  0.09100  0.55200  0.62500  1.0000
  Ga  Ga13      1.0  0.09100  0.94800  0.62500  1.0000
  Ga  Ga14      1.0  0.49400  0.75000  0.62700  1.0000
  Ga  Ga15      1.0  0.74800  0.75000  0.67300  1.0000
  Ga  Ga16      1.0  0.24800  0.75000  0.82700  1.0000
  Ga  Ga17      1.0  0.99400  0.75000  0.87300  1.0000
  Ga  Ga18      1.0  0.59100  0.55200  0.87500  1.0000
  Ga  Ga19      1.0  0.59100  0.94800  0.87500  1.0000
  Ga  Ga20      1.0  0.29800  0.25000  0.89500  1.0000
  Tm  Tm1       1.0  0.14800  0.51000  0.10900  1.0000
  Tm  Tm2       1.0  0.14800  0.99000  0.10900  1.0000
  Tm  Tm3       1.0  0.42700  0.75000  0.15200  1.0000
  Tm  Tm4       1.0  0.92700  0.75000  0.34800  1.0000
  Tm  Tm5       1.0  0.64800  0.51000  0.39100  1.0000
  Tm  Tm6       1.0  0.64800  0.99000  0.39100  1.0000
  Tm  Tm7       1.0  0.35200  0.00958  0.60900  1.0000
  Tm  Tm8       1.0  0.35200  0.49000  0.60900  1.0000
  Tm  Tm9       1.0  0.07330  0.25000  0.65200  1.0000
  Tm  Tm10      1.0  0.57300  0.25000  0.84800  1.0000
  Tm  Tm11      1.0  0.85200  0.00958  0.89100  1.0000
  Tm  Tm12      1.0  0.85200  0.49000  0.89100  1.0000
