data_image0
_chemical_formula_structural       Cl24Na4Ta4
_chemical_formula_sum              "Cl24 Na4 Ta4"
_cell_length_a       6.47703
_cell_length_b       6.89883
_cell_length_c       18.9982
_cell_angle_alpha    90
_cell_angle_beta     90.9132
_cell_angle_gamma    90

_space_group_name_H-M_alt    "P 1"
_space_group_IT_number       1

loop_
  _space_group_symop_operation_xyz
  'x, y, z'

loop_
  _atom_site_type_symbol
  _atom_site_label
  _atom_site_symmetry_multiplicity
  _atom_site_fract_x
  _atom_site_fract_y
  _atom_site_fract_z
  _atom_site_occupancy
  Cl  Cl1       1.0  0.11300  0.25200  0.00438  1.0000
  Cl  Cl2       1.0  0.41300  0.92300  0.09070  1.0000
  Cl  Cl3       1.0  0.54800  0.39800  0.09120  1.0000
  Cl  Cl4       1.0  0.07820  0.50400  0.15500  1.0000
  Cl  Cl5       1.0  0.95700  0.03730  0.15500  1.0000
  Cl  Cl6       1.0  0.37900  0.18700  0.23800  1.0000
  Cl  Cl7       1.0  0.62100  0.68700  0.26200  1.0000
  Cl  Cl8       1.0  0.04310  0.53700  0.34500  1.0000
  Cl  Cl9       1.0  0.92200  0.00440  0.34500  1.0000
  Cl  Cl10      1.0  0.45200  0.89800  0.40900  1.0000
  Cl  Cl11      1.0  0.58700  0.42300  0.40900  1.0000
  Cl  Cl12      1.0  0.88700  0.75200  0.49600  1.0000
  Cl  Cl13      1.0  0.11300  0.24800  0.50400  1.0000
  Cl  Cl14      1.0  0.41300  0.57700  0.59100  1.0000
  Cl  Cl15      1.0  0.54800  0.10200  0.59100  1.0000
  Cl  Cl16      1.0  0.07820  0.99600  0.65500  1.0000
  Cl  Cl17      1.0  0.95700  0.46300  0.65500  1.0000
  Cl  Cl18      1.0  0.37900  0.31300  0.73800  1.0000
  Cl  Cl19      1.0  0.62100  0.81300  0.76200  1.0000
  Cl  Cl20      1.0  0.04310  0.96300  0.84500  1.0000
  Cl  Cl21      1.0  0.92200  0.49600  0.84500  1.0000
  Cl  Cl22      1.0  0.45200  0.60200  0.90900  1.0000
  Cl  Cl23      1.0  0.58700  0.07740  0.90900  1.0000
  Cl  Cl24      1.0  0.88700  0.74800  0.99600  1.0000
  Na  Na1       1.0  0.79000  0.31000  0.24800  1.0000
  Na  Na2       1.0  0.21000  0.81000  0.25200  1.0000
  Na  Na3       1.0  0.79000  0.19000  0.74800  1.0000
  Na  Na4       1.0  0.21000  0.69000  0.75200  1.0000
  Ta  Ta1       1.0  0.25700  0.21600  0.11400  1.0000
  Ta  Ta2       1.0  0.74300  0.71600  0.38600  1.0000
  Ta  Ta3       1.0  0.25700  0.28400  0.61400  1.0000
  Ta  Ta4       1.0  0.74300  0.78400  0.88600  1.0000
