data_image0
_chemical_formula_structural       Fe4O10Ti2
_chemical_formula_sum              "Fe4 O10 Ti2"
_cell_length_a       5.03804
_cell_length_b       5.64139
_cell_length_c       7.06097
_cell_angle_alpha    108.723
_cell_angle_beta     90
_cell_angle_gamma    116.521

_space_group_name_H-M_alt    "P 1"
_space_group_IT_number       1

loop_
  _space_group_symop_operation_xyz
  'x, y, z'

loop_
  _atom_site_type_symbol
  _atom_site_label
  _atom_site_symmetry_multiplicity
  _atom_site_fract_x
  _atom_site_fract_y
  _atom_site_fract_z
  _atom_site_occupancy
  Fe  Fe1       1.0  0.63600  0.26700  0.22600  1.0000
  Fe  Fe2       1.0  0.36900  0.73300  0.27400  1.0000
  Fe  Fe3       1.0  0.63100  0.26700  0.72600  1.0000
  Fe  Fe4       1.0  0.36400  0.73300  0.77400  1.0000
  O   O1        1.0  0.58500  0.83400  0.05140  1.0000
  O   O2        1.0  0.03340  0.37000  0.14800  1.0000
  O   O3        1.0  0.19100  0.00000  0.25000  1.0000
  O   O4        1.0  0.66300  0.63000  0.35200  1.0000
  O   O5        1.0  0.75100  0.16600  0.44900  1.0000
  O   O6        1.0  0.24900  0.83400  0.55100  1.0000
  O   O7        1.0  0.33700  0.37000  0.64800  1.0000
  O   O8        1.0  0.80900  0.00000  0.75000  1.0000
  O   O9        1.0  0.96700  0.63000  0.85200  1.0000
  O   O10       1.0  0.41500  0.16600  0.94900  1.0000
  Ti  Ti1       1.0  0.00000  0.00000  0.00000  1.0000
  Ti  Ti2       1.0  0.00000  0.00000  0.50000  1.0000
