data_image0
_chemical_formula_structural       Cu4In4O20P4
_chemical_formula_sum              "Cu4 In4 O20 P4"
_cell_length_a       7.79207
_cell_length_b       6.66923
_cell_length_c       7.27277
_cell_angle_alpha    90
_cell_angle_beta     90
_cell_angle_gamma    90

_space_group_name_H-M_alt    "P 1"
_space_group_IT_number       1

loop_
  _space_group_symop_operation_xyz
  'x, y, z'

loop_
  _atom_site_type_symbol
  _atom_site_label
  _atom_site_symmetry_multiplicity
  _atom_site_fract_x
  _atom_site_fract_y
  _atom_site_fract_z
  _atom_site_occupancy
  Cu  Cu1       1.0  0.50000  0.00000  0.00000  1.0000
  Cu  Cu2       1.0  0.50000  0.50000  0.00000  1.0000
  Cu  Cu3       1.0  0.00000  0.00000  0.50000  1.0000
  Cu  Cu4       1.0  0.00000  0.50000  0.50000  1.0000
  In  In1       1.0  0.17500  0.25000  0.21300  1.0000
  In  In2       1.0  0.67500  0.25000  0.28700  1.0000
  In  In3       1.0  0.32500  0.75000  0.71300  1.0000
  In  In4       1.0  0.82500  0.75000  0.78700  1.0000
  O   O1        1.0  0.25900  0.75000  0.01100  1.0000
  O   O2        1.0  0.93200  0.75000  0.05140  1.0000
  O   O3        1.0  0.43100  0.25000  0.12200  1.0000
  O   O4        1.0  0.62500  0.56300  0.22700  1.0000
  O   O5        1.0  0.62500  0.93700  0.22700  1.0000
  O   O6        1.0  0.12500  0.56300  0.27300  1.0000
  O   O7        1.0  0.12500  0.93700  0.27300  1.0000
  O   O8        1.0  0.93100  0.25000  0.37800  1.0000
  O   O9        1.0  0.43200  0.75000  0.44900  1.0000
  O   O10       1.0  0.75900  0.75000  0.48900  1.0000
  O   O11       1.0  0.24100  0.25000  0.51100  1.0000
  O   O12       1.0  0.56800  0.25000  0.55100  1.0000
  O   O13       1.0  0.06860  0.75000  0.62200  1.0000
  O   O14       1.0  0.87500  0.06310  0.72700  1.0000
  O   O15       1.0  0.87500  0.43700  0.72700  1.0000
  O   O16       1.0  0.37500  0.06310  0.77300  1.0000
  O   O17       1.0  0.37500  0.43700  0.77300  1.0000
  O   O18       1.0  0.56900  0.75000  0.87800  1.0000
  O   O19       1.0  0.06830  0.25000  0.94900  1.0000
  O   O20       1.0  0.74100  0.25000  0.98900  1.0000
  P   P1        1.0  0.10700  0.75000  0.14400  1.0000
  P   P2        1.0  0.60700  0.75000  0.35600  1.0000
  P   P3        1.0  0.39300  0.25000  0.64400  1.0000
  P   P4        1.0  0.89300  0.25000  0.85600  1.0000
