data_image0
_chemical_formula_structural       Ba2O20Sc4Si6
_chemical_formula_sum              "Ba2 O20 Sc4 Si6"
_cell_length_a       5.26567
_cell_length_b       11.8994
_cell_length_c       6.59936
_cell_angle_alpha    90
_cell_angle_beta     107.315
_cell_angle_gamma    90

_space_group_name_H-M_alt    "P 1"
_space_group_IT_number       1

loop_
  _space_group_symop_operation_xyz
  'x, y, z'

loop_
  _atom_site_type_symbol
  _atom_site_label
  _atom_site_symmetry_multiplicity
  _atom_site_fract_x
  _atom_site_fract_y
  _atom_site_fract_z
  _atom_site_occupancy
  Ba  Ba1       1.0  0.76000  0.25000  0.02780  1.0000
  Ba  Ba2       1.0  0.24000  0.75000  0.97200  1.0000
  O   O1        1.0  0.85300  0.61200  0.01470  1.0000
  O   O2        1.0  0.85300  0.88800  0.01470  1.0000
  O   O3        1.0  0.45400  0.56300  0.19700  1.0000
  O   O4        1.0  0.45400  0.93700  0.19700  1.0000
  O   O5        1.0  0.54700  0.14100  0.33200  1.0000
  O   O6        1.0  0.54700  0.35900  0.33200  1.0000
  O   O7        1.0  0.09930  0.04390  0.35700  1.0000
  O   O8        1.0  0.09930  0.45600  0.35700  1.0000
  O   O9        1.0  0.12000  0.75000  0.35900  1.0000
  O   O10       1.0  0.65600  0.75000  0.39500  1.0000
  O   O11       1.0  0.34400  0.25000  0.60500  1.0000
  O   O12       1.0  0.88000  0.25000  0.64100  1.0000
  O   O13       1.0  0.90100  0.54400  0.64300  1.0000
  O   O14       1.0  0.90100  0.95600  0.64300  1.0000
  O   O15       1.0  0.45300  0.64100  0.66800  1.0000
  O   O16       1.0  0.45300  0.85900  0.66800  1.0000
  O   O17       1.0  0.54600  0.06290  0.80300  1.0000
  O   O18       1.0  0.54600  0.43700  0.80300  1.0000
  O   O19       1.0  0.14700  0.11200  0.98500  1.0000
  O   O20       1.0  0.14700  0.38800  0.98500  1.0000
  Sc  Sc1       1.0  0.84900  0.60200  0.32300  1.0000
  Sc  Sc2       1.0  0.84900  0.89800  0.32300  1.0000
  Sc  Sc3       1.0  0.15100  0.10200  0.67700  1.0000
  Sc  Sc4       1.0  0.15100  0.39800  0.67700  1.0000
  Si  Si1       1.0  0.30200  0.05330  0.21000  1.0000
  Si  Si2       1.0  0.30200  0.44700  0.21000  1.0000
  Si  Si3       1.0  0.57500  0.25000  0.48800  1.0000
  Si  Si4       1.0  0.42500  0.75000  0.51200  1.0000
  Si  Si5       1.0  0.69800  0.55300  0.79000  1.0000
  Si  Si6       1.0  0.69800  0.94700  0.79000  1.0000
