data_image0
_chemical_formula_structural       C4Ca8F8O12
_chemical_formula_sum              "C4 Ca8 F8 O12"
_cell_length_a       7.58335
_cell_length_b       7.48764
_cell_length_c       6.41584
_cell_angle_alpha    90
_cell_angle_beta     90
_cell_angle_gamma    90

_space_group_name_H-M_alt    "P 1"
_space_group_IT_number       1

loop_
  _space_group_symop_operation_xyz
  'x, y, z'

loop_
  _atom_site_type_symbol
  _atom_site_label
  _atom_site_symmetry_multiplicity
  _atom_site_fract_x
  _atom_site_fract_y
  _atom_site_fract_z
  _atom_site_occupancy
  C   C1        1.0  0.00000  0.02880  0.25000  1.0000
  C   C2        1.0  0.50000  0.52900  0.25000  1.0000
  C   C3        1.0  0.50000  0.47100  0.75000  1.0000
  C   C4        1.0  0.00000  0.97100  0.75000  1.0000
  Ca  Ca1       1.0  0.67600  0.16100  0.03290  1.0000
  Ca  Ca2       1.0  0.82400  0.66100  0.03290  1.0000
  Ca  Ca3       1.0  0.32400  0.16100  0.46700  1.0000
  Ca  Ca4       1.0  0.17600  0.66100  0.46700  1.0000
  Ca  Ca5       1.0  0.82400  0.33900  0.53300  1.0000
  Ca  Ca6       1.0  0.67600  0.83900  0.53300  1.0000
  Ca  Ca7       1.0  0.17600  0.33900  0.96700  1.0000
  Ca  Ca8       1.0  0.32400  0.83900  0.96700  1.0000
  F   F1        1.0  0.38000  0.12200  0.10200  1.0000
  F   F2        1.0  0.12000  0.62200  0.10200  1.0000
  F   F3        1.0  0.62000  0.12200  0.39800  1.0000
  F   F4        1.0  0.88000  0.62200  0.39800  1.0000
  F   F5        1.0  0.12000  0.37800  0.60200  1.0000
  F   F6        1.0  0.38000  0.87800  0.60200  1.0000
  F   F7        1.0  0.88000  0.37800  0.89800  1.0000
  F   F8        1.0  0.62000  0.87800  0.89800  1.0000
  O   O1        1.0  0.63500  0.44400  0.17900  1.0000
  O   O2        1.0  0.86500  0.94400  0.17900  1.0000
  O   O3        1.0  0.00000  0.20300  0.25000  1.0000
  O   O4        1.0  0.50000  0.70300  0.25000  1.0000
  O   O5        1.0  0.36500  0.44400  0.32100  1.0000
  O   O6        1.0  0.13500  0.94400  0.32100  1.0000
  O   O7        1.0  0.86500  0.05580  0.67900  1.0000
  O   O8        1.0  0.63500  0.55600  0.67900  1.0000
  O   O9        1.0  0.50000  0.29700  0.75000  1.0000
  O   O10       1.0  0.00000  0.79700  0.75000  1.0000
  O   O11       1.0  0.13500  0.05580  0.82100  1.0000
  O   O12       1.0  0.36500  0.55600  0.82100  1.0000
