data_image0
_chemical_formula_structural       Lu4Mn8O20
_chemical_formula_sum              "Lu4 Mn8 O20"
_cell_length_a       7.07689
_cell_length_b       8.39077
_cell_length_c       5.71941
_cell_angle_alpha    90
_cell_angle_beta     90
_cell_angle_gamma    90

_space_group_name_H-M_alt    "P 1"
_space_group_IT_number       1

loop_
  _space_group_symop_operation_xyz
  'x, y, z'

loop_
  _atom_site_type_symbol
  _atom_site_label
  _atom_site_symmetry_multiplicity
  _atom_site_fract_x
  _atom_site_fract_y
  _atom_site_fract_z
  _atom_site_occupancy
  Lu  Lu1       1.0  0.13400  0.17000  0.00000  1.0000
  Lu  Lu2       1.0  0.63400  0.33000  0.00000  1.0000
  Lu  Lu3       1.0  0.36600  0.67000  0.00000  1.0000
  Lu  Lu4       1.0  0.86600  0.83000  0.00000  1.0000
  Mn  Mn1       1.0  0.50000  0.00000  0.25100  1.0000
  Mn  Mn2       1.0  0.00000  0.50000  0.25100  1.0000
  Mn  Mn3       1.0  0.91600  0.15400  0.50000  1.0000
  Mn  Mn4       1.0  0.41600  0.34600  0.50000  1.0000
  Mn  Mn5       1.0  0.58400  0.65400  0.50000  1.0000
  Mn  Mn6       1.0  0.08400  0.84600  0.50000  1.0000
  Mn  Mn7       1.0  0.50000  0.00000  0.74900  1.0000
  Mn  Mn8       1.0  0.00000  0.50000  0.74900  1.0000
  O   O1        1.0  0.66900  0.06060  0.00000  1.0000
  O   O2        1.0  0.16900  0.43900  0.00000  1.0000
  O   O3        1.0  0.83100  0.56100  0.00000  1.0000
  O   O4        1.0  0.33100  0.93900  0.00000  1.0000
  O   O5        1.0  0.38700  0.20700  0.23700  1.0000
  O   O6        1.0  0.88700  0.29300  0.23700  1.0000
  O   O7        1.0  0.11300  0.70700  0.23700  1.0000
  O   O8        1.0  0.61300  0.79300  0.23700  1.0000
  O   O9        1.0  0.00000  0.00000  0.26700  1.0000
  O   O10       1.0  0.50000  0.50000  0.26700  1.0000
  O   O11       1.0  0.65100  0.07420  0.50000  1.0000
  O   O12       1.0  0.15100  0.42600  0.50000  1.0000
  O   O13       1.0  0.84900  0.57400  0.50000  1.0000
  O   O14       1.0  0.34900  0.92600  0.50000  1.0000
  O   O15       1.0  0.00000  0.00000  0.73300  1.0000
  O   O16       1.0  0.50000  0.50000  0.73300  1.0000
  O   O17       1.0  0.38700  0.20700  0.76300  1.0000
  O   O18       1.0  0.88700  0.29300  0.76300  1.0000
  O   O19       1.0  0.11300  0.70700  0.76300  1.0000
  O   O20       1.0  0.61300  0.79300  0.76300  1.0000
