data_image0
_chemical_formula_structural       C12Cs4Fe2K2N12
_chemical_formula_sum              "C12 Cs4 Fe2 K2 N12"
_cell_length_a       10.9038
_cell_length_b       8.06017
_cell_length_c       7.52591
_cell_angle_alpha    90
_cell_angle_beta     90.8189
_cell_angle_gamma    90

_space_group_name_H-M_alt    "P 1"
_space_group_IT_number       1

loop_
  _space_group_symop_operation_xyz
  'x, y, z'

loop_
  _atom_site_type_symbol
  _atom_site_label
  _atom_site_symmetry_multiplicity
  _atom_site_fract_x
  _atom_site_fract_y
  _atom_site_fract_z
  _atom_site_occupancy
  C   C1        1.0  0.16500  0.02380  0.07690  1.0000
  C   C2        1.0  0.95800  0.19800  0.12200  1.0000
  C   C3        1.0  0.96700  0.87500  0.20800  1.0000
  C   C4        1.0  0.53300  0.37500  0.29200  1.0000
  C   C5        1.0  0.54200  0.69800  0.37800  1.0000
  C   C6        1.0  0.33500  0.52400  0.42300  1.0000
  C   C7        1.0  0.66500  0.47600  0.57700  1.0000
  C   C8        1.0  0.45800  0.30200  0.62200  1.0000
  C   C9        1.0  0.46700  0.62500  0.70800  1.0000
  C   C10       1.0  0.03310  0.12500  0.79200  1.0000
  C   C11       1.0  0.04210  0.80200  0.87800  1.0000
  C   C12       1.0  0.83500  0.97600  0.92300  1.0000
  Cs  Cs1       1.0  0.74800  0.57900  0.02680  1.0000
  Cs  Cs2       1.0  0.75200  0.07930  0.47300  1.0000
  Cs  Cs3       1.0  0.24800  0.92100  0.52700  1.0000
  Cs  Cs4       1.0  0.25200  0.42100  0.97300  1.0000
  Fe  Fe1       1.0  0.00000  0.00000  0.00000  1.0000
  Fe  Fe2       1.0  0.50000  0.50000  0.50000  1.0000
  K   K1        1.0  0.50000  0.00000  0.00000  1.0000
  K   K2        1.0  0.00000  0.50000  0.50000  1.0000
  N   N1        1.0  0.26700  0.04280  0.12700  1.0000
  N   N2        1.0  0.55600  0.29900  0.16300  1.0000
  N   N3        1.0  0.93000  0.32000  0.19800  1.0000
  N   N4        1.0  0.57000  0.82000  0.30200  1.0000
  N   N5        1.0  0.94400  0.79900  0.33700  1.0000
  N   N6        1.0  0.23300  0.54300  0.37300  1.0000
  N   N7        1.0  0.76700  0.45700  0.62700  1.0000
  N   N8        1.0  0.05640  0.20100  0.66300  1.0000
  N   N9        1.0  0.43000  0.18000  0.69800  1.0000
  N   N10       1.0  0.06970  0.68000  0.80200  1.0000
  N   N11       1.0  0.44400  0.70100  0.83700  1.0000
  N   N12       1.0  0.73300  0.95700  0.87300  1.0000
