data_image0
_chemical_formula_structural       F24Pb4Te4
_chemical_formula_sum              "F24 Pb4 Te4"
_cell_length_a       4.39135
_cell_length_b       12.0055
_cell_length_c       7.89101
_cell_angle_alpha    90.0283
_cell_angle_beta     97.867
_cell_angle_gamma    89.944

_space_group_name_H-M_alt    "P 1"
_space_group_IT_number       1

loop_
  _space_group_symop_operation_xyz
  'x, y, z'

loop_
  _atom_site_type_symbol
  _atom_site_label
  _atom_site_symmetry_multiplicity
  _atom_site_fract_x
  _atom_site_fract_y
  _atom_site_fract_z
  _atom_site_occupancy
  F   F1        1.0  0.35200  0.90300  0.01650  1.0000
  F   F2        1.0  0.31800  0.31400  0.04890  1.0000
  F   F3        1.0  0.80200  0.44500  0.08240  1.0000
  F   F4        1.0  0.89600  0.83400  0.14300  1.0000
  F   F5        1.0  0.15100  0.11400  0.17900  1.0000
  F   F6        1.0  0.31900  0.70400  0.18700  1.0000
  F   F7        1.0  0.68000  0.20400  0.31300  1.0000
  F   F8        1.0  0.84900  0.61400  0.32100  1.0000
  F   F9        1.0  0.10300  0.33400  0.35700  1.0000
  F   F10       1.0  0.19700  0.94500  0.41700  1.0000
  F   F11       1.0  0.68100  0.81500  0.44900  1.0000
  F   F12       1.0  0.64700  0.40300  0.48500  1.0000
  F   F13       1.0  0.35400  0.59700  0.51400  1.0000
  F   F14       1.0  0.32100  0.18500  0.55200  1.0000
  F   F15       1.0  0.80400  0.05470  0.58300  1.0000
  F   F16       1.0  0.89800  0.66500  0.64200  1.0000
  F   F17       1.0  0.15200  0.38700  0.67800  1.0000
  F   F18       1.0  0.31900  0.79600  0.68700  1.0000
  F   F19       1.0  0.68400  0.29700  0.81300  1.0000
  F   F20       1.0  0.84800  0.88700  0.82200  1.0000
  F   F21       1.0  0.10200  0.16400  0.85800  1.0000
  F   F22       1.0  0.19600  0.55600  0.91700  1.0000
  F   F23       1.0  0.68100  0.68600  0.94900  1.0000
  F   F24       1.0  0.64600  0.09690  0.98500  1.0000
  Pb  Pb1       1.0  0.35300  0.49500  0.21400  1.0000
  Pb  Pb2       1.0  0.64600  0.99500  0.28600  1.0000
  Pb  Pb3       1.0  0.35500  0.00472  0.71500  1.0000
  Pb  Pb4       1.0  0.64500  0.50600  0.78500  1.0000
  Te  Te1       1.0  0.91100  0.23200  0.04150  1.0000
  Te  Te2       1.0  0.08860  0.73200  0.45800  1.0000
  Te  Te3       1.0  0.91200  0.26800  0.54200  1.0000
  Te  Te4       1.0  0.08870  0.76800  0.95900  1.0000
