data_image0
_chemical_formula_structural       Ba2Fe2O20Si8
_chemical_formula_sum              "Ba2 Fe2 O20 Si8"
_cell_length_a       7.18374
_cell_length_b       7.44495
_cell_length_c       7.69845
_cell_angle_alpha    90
_cell_angle_beta     90
_cell_angle_gamma    90

_space_group_name_H-M_alt    "P 1"
_space_group_IT_number       1

loop_
  _space_group_symop_operation_xyz
  'x, y, z'

loop_
  _atom_site_type_symbol
  _atom_site_label
  _atom_site_symmetry_multiplicity
  _atom_site_fract_x
  _atom_site_fract_y
  _atom_site_fract_z
  _atom_site_occupancy
  Ba  Ba1       1.0  0.00000  0.00000  0.95900  1.0000
  Ba  Ba2       1.0  0.50000  0.50000  0.04120  1.0000
  Fe  Fe1       1.0  0.00000  0.50000  0.18200  1.0000
  Fe  Fe2       1.0  0.50000  0.00000  0.81800  1.0000
  O   O1        1.0  0.15800  0.28200  0.11200  1.0000
  O   O2        1.0  0.84200  0.71800  0.11200  1.0000
  O   O3        1.0  0.65800  0.21800  0.88800  1.0000
  O   O4        1.0  0.34200  0.78200  0.88800  1.0000
  O   O5        1.0  0.19900  0.97100  0.28000  1.0000
  O   O6        1.0  0.80100  0.02880  0.28000  1.0000
  O   O7        1.0  0.69900  0.52900  0.72000  1.0000
  O   O8        1.0  0.30100  0.47100  0.72000  1.0000
  O   O9        1.0  0.22600  0.61800  0.24900  1.0000
  O   O10       1.0  0.77400  0.38200  0.24900  1.0000
  O   O11       1.0  0.72600  0.88200  0.75100  1.0000
  O   O12       1.0  0.27400  0.11800  0.75100  1.0000
  O   O13       1.0  0.47300  0.19900  0.26500  1.0000
  O   O14       1.0  0.52700  0.80100  0.26500  1.0000
  O   O15       1.0  0.97300  0.30100  0.73500  1.0000
  O   O16       1.0  0.02670  0.69900  0.73500  1.0000
  O   O17       1.0  0.17000  0.28200  0.45400  1.0000
  O   O18       1.0  0.83000  0.71800  0.45400  1.0000
  O   O19       1.0  0.67000  0.21800  0.54600  1.0000
  O   O20       1.0  0.33000  0.78200  0.54600  1.0000
  Si  Si1       1.0  0.24800  0.18700  0.27900  1.0000
  Si  Si2       1.0  0.75200  0.81300  0.27900  1.0000
  Si  Si3       1.0  0.74800  0.31300  0.72100  1.0000
  Si  Si4       1.0  0.25200  0.68700  0.72100  1.0000
  Si  Si5       1.0  0.68700  0.21000  0.33700  1.0000
  Si  Si6       1.0  0.31300  0.79000  0.33700  1.0000
  Si  Si7       1.0  0.18700  0.29000  0.66300  1.0000
  Si  Si8       1.0  0.81300  0.71000  0.66300  1.0000
