data_image0
_chemical_formula_structural       La4P28
_chemical_formula_sum              "La4 P28"
_cell_length_a       7.94243
_cell_length_b       11.684
_cell_length_c       7.01657
_cell_angle_alpha    90
_cell_angle_beta     93.1706
_cell_angle_gamma    90

_space_group_name_H-M_alt    "P 1"
_space_group_IT_number       1

loop_
  _space_group_symop_operation_xyz
  'x, y, z'

loop_
  _atom_site_type_symbol
  _atom_site_label
  _atom_site_symmetry_multiplicity
  _atom_site_fract_x
  _atom_site_fract_y
  _atom_site_fract_z
  _atom_site_occupancy
  La  La1       1.0  0.21600  0.15100  0.10200  1.0000
  La  La2       1.0  0.28400  0.65100  0.39800  1.0000
  La  La3       1.0  0.71600  0.34900  0.60200  1.0000
  La  La4       1.0  0.78400  0.84900  0.89800  1.0000
  P   P1        1.0  0.75100  0.28100  0.03600  1.0000
  P   P2        1.0  0.82300  0.09870  0.08600  1.0000
  P   P3        1.0  0.40800  0.46600  0.09740  1.0000
  P   P4        1.0  0.76300  0.61500  0.12500  1.0000
  P   P5        1.0  0.99400  0.51200  0.15500  1.0000
  P   P6        1.0  0.52800  0.31000  0.21500  1.0000
  P   P7        1.0  0.95300  0.33700  0.24900  1.0000
  P   P8        1.0  0.54700  0.83700  0.25100  1.0000
  P   P9        1.0  0.97200  0.81000  0.28500  1.0000
  P   P10       1.0  0.50600  0.01210  0.34500  1.0000
  P   P11       1.0  0.73700  0.11500  0.37500  1.0000
  P   P12       1.0  0.09210  0.96600  0.40300  1.0000
  P   P13       1.0  0.67700  0.59900  0.41400  1.0000
  P   P14       1.0  0.74900  0.78100  0.46400  1.0000
  P   P15       1.0  0.25100  0.21900  0.53600  1.0000
  P   P16       1.0  0.32300  0.40100  0.58600  1.0000
  P   P17       1.0  0.90800  0.03370  0.59700  1.0000
  P   P18       1.0  0.26300  0.88500  0.62500  1.0000
  P   P19       1.0  0.49400  0.98800  0.65500  1.0000
  P   P20       1.0  0.02760  0.19000  0.71500  1.0000
  P   P21       1.0  0.45300  0.16300  0.74900  1.0000
  P   P22       1.0  0.04750  0.66300  0.75100  1.0000
  P   P23       1.0  0.47200  0.69000  0.78500  1.0000
  P   P24       1.0  0.00591  0.48800  0.84500  1.0000
  P   P25       1.0  0.23700  0.38500  0.87500  1.0000
  P   P26       1.0  0.59200  0.53400  0.90300  1.0000
  P   P27       1.0  0.17700  0.90100  0.91400  1.0000
  P   P28       1.0  0.24900  0.71900  0.96400  1.0000
