data_image0
_chemical_formula_structural       B6H24Y2
_chemical_formula_sum              "B6 H24 Y2"
_cell_length_a       7.6796
_cell_length_b       7.6796
_cell_length_c       7.6796
_cell_angle_alpha    120
_cell_angle_beta     90
_cell_angle_gamma    120

_space_group_name_H-M_alt    "P 1"
_space_group_IT_number       1

loop_
  _space_group_symop_operation_xyz
  'x, y, z'

loop_
  _atom_site_type_symbol
  _atom_site_label
  _atom_site_symmetry_multiplicity
  _atom_site_fract_x
  _atom_site_fract_y
  _atom_site_fract_z
  _atom_site_occupancy
  B   B1        1.0  0.25000  0.00000  0.25000  1.0000
  B   B2        1.0  0.75000  0.00000  0.25000  1.0000
  B   B3        1.0  0.25000  0.50000  0.25000  1.0000
  B   B4        1.0  0.75000  0.00000  0.75000  1.0000
  B   B5        1.0  0.25000  0.00000  0.75000  1.0000
  B   B6        1.0  0.75000  0.50000  0.75000  1.0000
  H   H1        1.0  0.28300  0.00000  0.09330  1.0000
  H   H2        1.0  0.09330  0.37700  0.09330  1.0000
  H   H3        1.0  0.71700  0.81000  0.09330  1.0000
  H   H4        1.0  0.59300  0.00000  0.21700  1.0000
  H   H5        1.0  0.40700  0.62300  0.21700  1.0000
  H   H6        1.0  0.21700  0.81000  0.21700  1.0000
  H   H7        1.0  0.09330  0.00000  0.28300  1.0000
  H   H8        1.0  0.90700  0.19000  0.28300  1.0000
  H   H9        1.0  0.28300  0.37700  0.28300  1.0000
  H   H10       1.0  0.78300  0.00000  0.40700  1.0000
  H   H11       1.0  0.40700  0.19000  0.40700  1.0000
  H   H12       1.0  0.21700  0.62300  0.40700  1.0000
  H   H13       1.0  0.21700  0.00000  0.59300  1.0000
  H   H14       1.0  0.78300  0.37700  0.59300  1.0000
  H   H15       1.0  0.59300  0.81000  0.59300  1.0000
  H   H16       1.0  0.90700  0.00000  0.71700  1.0000
  H   H17       1.0  0.71700  0.62300  0.71700  1.0000
  H   H18       1.0  0.09330  0.81000  0.71700  1.0000
  H   H19       1.0  0.40700  0.00000  0.78300  1.0000
  H   H20       1.0  0.78300  0.19000  0.78300  1.0000
  H   H21       1.0  0.59300  0.37700  0.78300  1.0000
  H   H22       1.0  0.71700  0.00000  0.90700  1.0000
  H   H23       1.0  0.90700  0.62300  0.90700  1.0000
  H   H24       1.0  0.28300  0.19000  0.90700  1.0000
  Y   Y1        1.0  0.00000  0.00000  0.00000  1.0000
  Y   Y2        1.0  0.50000  0.00000  0.50000  1.0000
