data_image0
_chemical_formula_structural       Fe2H12O12P6
_chemical_formula_sum              "Fe2 H12 O12 P6"
_cell_length_a       6.97677
_cell_length_b       6.97677
_cell_length_c       6.97677
_cell_angle_alpha    100.173
_cell_angle_beta     100.173
_cell_angle_gamma    100.173

_space_group_name_H-M_alt    "P 1"
_space_group_IT_number       1

loop_
  _space_group_symop_operation_xyz
  'x, y, z'

loop_
  _atom_site_type_symbol
  _atom_site_label
  _atom_site_symmetry_multiplicity
  _atom_site_fract_x
  _atom_site_fract_y
  _atom_site_fract_z
  _atom_site_occupancy
  Fe  Fe1       1.0  0.00000  0.00000  0.00000  1.0000
  Fe  Fe2       1.0  0.50000  0.50000  0.50000  1.0000
  H   H1        1.0  0.66000  0.60100  0.03010  1.0000
  H   H2        1.0  0.41500  0.76200  0.08050  1.0000
  H   H3        1.0  0.92000  0.58500  0.23800  1.0000
  H   H4        1.0  0.39900  0.97000  0.34000  1.0000
  H   H5        1.0  0.97000  0.34000  0.39900  1.0000
  H   H6        1.0  0.76200  0.08050  0.41500  1.0000
  H   H7        1.0  0.23800  0.92000  0.58500  1.0000
  H   H8        1.0  0.03010  0.66000  0.60100  1.0000
  H   H9        1.0  0.60100  0.03010  0.66000  1.0000
  H   H10       1.0  0.08050  0.41500  0.76200  1.0000
  H   H11       1.0  0.58500  0.23800  0.92000  1.0000
  H   H12       1.0  0.34000  0.39900  0.97000  1.0000
  O   O1        1.0  0.70900  0.94000  0.00496  1.0000
  O   O2        1.0  0.99500  0.29100  0.05960  1.0000
  O   O3        1.0  0.55500  0.34000  0.25400  1.0000
  O   O4        1.0  0.05960  0.99500  0.29100  1.0000
  O   O5        1.0  0.25400  0.55500  0.34000  1.0000
  O   O6        1.0  0.66000  0.74600  0.44500  1.0000
  O   O7        1.0  0.34000  0.25400  0.55500  1.0000
  O   O8        1.0  0.74600  0.44500  0.66000  1.0000
  O   O9        1.0  0.94000  0.00496  0.70900  1.0000
  O   O10       1.0  0.44500  0.66000  0.74600  1.0000
  O   O11       1.0  0.00496  0.70900  0.94000  1.0000
  O   O12       1.0  0.29100  0.05960  0.99500  1.0000
  P   P1        1.0  0.44200  0.25800  0.03690  1.0000
  P   P2        1.0  0.03690  0.44200  0.25800  1.0000
  P   P3        1.0  0.25800  0.03690  0.44200  1.0000
  P   P4        1.0  0.74200  0.96300  0.55800  1.0000
  P   P5        1.0  0.96300  0.55800  0.74200  1.0000
  P   P6        1.0  0.55800  0.74200  0.96300  1.0000
