data_image0
_chemical_formula_structural       O20P4Pb4U2
_chemical_formula_sum              "O20 P4 Pb4 U2"
_cell_length_a       6.76624
_cell_length_b       10.3359
_cell_length_c       6.66347
_cell_angle_alpha    101.345
_cell_angle_beta     98.6276
_cell_angle_gamma    86.644

_space_group_name_H-M_alt    "P 1"
_space_group_IT_number       1

loop_
  _space_group_symop_operation_xyz
  'x, y, z'

loop_
  _atom_site_type_symbol
  _atom_site_label
  _atom_site_symmetry_multiplicity
  _atom_site_fract_x
  _atom_site_fract_y
  _atom_site_fract_z
  _atom_site_occupancy
  O   O1        1.0  0.36600  0.78900  0.07860  1.0000
  O   O2        1.0  0.69600  0.61800  0.10900  1.0000
  O   O3        1.0  0.87500  0.89300  0.14300  1.0000
  O   O4        1.0  0.92000  0.42000  0.16100  1.0000
  O   O5        1.0  0.49600  0.05740  0.19700  1.0000
  O   O6        1.0  0.32700  0.27000  0.23900  1.0000
  O   O7        1.0  0.66200  0.51300  0.40500  1.0000
  O   O8        1.0  0.98100  0.63600  0.40600  1.0000
  O   O9        1.0  0.66300  0.23900  0.46900  1.0000
  O   O10       1.0  0.65800  0.85700  0.47100  1.0000
  O   O11       1.0  0.34200  0.14300  0.52900  1.0000
  O   O12       1.0  0.33700  0.76100  0.53100  1.0000
  O   O13       1.0  0.01940  0.36400  0.59400  1.0000
  O   O14       1.0  0.33800  0.48700  0.59500  1.0000
  O   O15       1.0  0.67300  0.73000  0.76100  1.0000
  O   O16       1.0  0.50400  0.94300  0.80300  1.0000
  O   O17       1.0  0.08050  0.58000  0.83900  1.0000
  O   O18       1.0  0.12500  0.10700  0.85700  1.0000
  O   O19       1.0  0.30400  0.38200  0.89100  1.0000
  O   O20       1.0  0.63400  0.21100  0.92100  1.0000
  P   P1        1.0  0.81500  0.54500  0.27500  1.0000
  P   P2        1.0  0.46100  0.18000  0.37000  1.0000
  P   P3        1.0  0.53900  0.82000  0.63000  1.0000
  P   P4        1.0  0.18500  0.45500  0.72500  1.0000
  Pb  Pb1       1.0  0.29800  0.54700  0.26400  1.0000
  Pb  Pb2       1.0  0.95600  0.21900  0.27800  1.0000
  Pb  Pb3       1.0  0.04410  0.78100  0.72200  1.0000
  Pb  Pb4       1.0  0.70200  0.45300  0.73600  1.0000
  U   U1        1.0  0.62200  0.83900  0.11300  1.0000
  U   U2        1.0  0.37800  0.16100  0.88700  1.0000
