data_image0
_chemical_formula_structural       Co8Nb4O18
_chemical_formula_sum              "Co8 Nb4 O18"
_cell_length_a       5.16705
_cell_length_b       5.16704
_cell_length_c       14.1357
_cell_angle_alpha    90
_cell_angle_beta     90.0005
_cell_angle_gamma    120

_space_group_name_H-M_alt    "P 1"
_space_group_IT_number       1

loop_
  _space_group_symop_operation_xyz
  'x, y, z'

loop_
  _atom_site_type_symbol
  _atom_site_label
  _atom_site_symmetry_multiplicity
  _atom_site_fract_x
  _atom_site_fract_y
  _atom_site_fract_z
  _atom_site_occupancy
  Co  Co1       1.0  0.33300  0.66700  0.01550  1.0000
  Co  Co2       1.0  0.66700  0.33300  0.19200  1.0000
  Co  Co3       1.0  0.33300  0.66700  0.30800  1.0000
  Co  Co4       1.0  0.66700  0.33300  0.48500  1.0000
  Co  Co5       1.0  0.33300  0.66700  0.51500  1.0000
  Co  Co6       1.0  0.66700  0.33300  0.69200  1.0000
  Co  Co7       1.0  0.33300  0.66700  0.80800  1.0000
  Co  Co8       1.0  0.66700  0.33300  0.98500  1.0000
  Nb  Nb1       1.0  0.00000  0.00000  0.14200  1.0000
  Nb  Nb2       1.0  0.00000  0.00000  0.35800  1.0000
  Nb  Nb3       1.0  0.00000  0.00000  0.64200  1.0000
  Nb  Nb4       1.0  0.00000  0.00000  0.85800  1.0000
  O   O1        1.0  0.34700  0.32400  0.08350  1.0000
  O   O2        1.0  0.97700  0.65300  0.08350  1.0000
  O   O3        1.0  0.67600  0.02270  0.08350  1.0000
  O   O4        1.0  0.70800  0.70800  0.25000  1.0000
  O   O5        1.0  0.00000  0.29200  0.25000  1.0000
  O   O6        1.0  0.29200  0.00000  0.25000  1.0000
  O   O7        1.0  0.32400  0.34700  0.41700  1.0000
  O   O8        1.0  0.02270  0.67600  0.41700  1.0000
  O   O9        1.0  0.65300  0.97700  0.41700  1.0000
  O   O10       1.0  0.34700  0.02270  0.58300  1.0000
  O   O11       1.0  0.97700  0.32400  0.58300  1.0000
  O   O12       1.0  0.67600  0.65300  0.58300  1.0000
  O   O13       1.0  0.70800  0.00000  0.75000  1.0000
  O   O14       1.0  1.00000  0.70800  0.75000  1.0000
  O   O15       1.0  0.29200  0.29200  0.75000  1.0000
  O   O16       1.0  0.32400  0.97700  0.91700  1.0000
  O   O17       1.0  0.02270  0.34700  0.91700  1.0000
  O   O18       1.0  0.65300  0.67600  0.91700  1.0000
