data_image0
_chemical_formula_structural       Ba2Er4O20Si6
_chemical_formula_sum              "Ba2 Er4 O20 Si6"
_cell_length_a       5.36772
_cell_length_b       12.1095
_cell_length_c       6.82315
_cell_angle_alpha    90
_cell_angle_beta     106.584
_cell_angle_gamma    90

_space_group_name_H-M_alt    "P 1"
_space_group_IT_number       1

loop_
  _space_group_symop_operation_xyz
  'x, y, z'

loop_
  _atom_site_type_symbol
  _atom_site_label
  _atom_site_symmetry_multiplicity
  _atom_site_fract_x
  _atom_site_fract_y
  _atom_site_fract_z
  _atom_site_occupancy
  Ba  Ba1       1.0  0.75800  0.25000  0.02160  1.0000
  Ba  Ba2       1.0  0.24200  0.75000  0.97800  1.0000
  Er  Er1       1.0  0.84400  0.60000  0.31700  1.0000
  Er  Er2       1.0  0.84400  0.90000  0.31700  1.0000
  Er  Er3       1.0  0.15600  0.09960  0.68300  1.0000
  Er  Er4       1.0  0.15600  0.40000  0.68300  1.0000
  O   O1        1.0  0.16200  0.12300  0.00036  1.0000
  O   O2        1.0  0.16200  0.37700  0.00036  1.0000
  O   O3        1.0  0.43400  0.55700  0.19000  1.0000
  O   O4        1.0  0.43400  0.94300  0.19000  1.0000
  O   O5        1.0  0.55400  0.14100  0.33900  1.0000
  O   O6        1.0  0.55400  0.35900  0.33900  1.0000
  O   O7        1.0  0.09920  0.05100  0.35100  1.0000
  O   O8        1.0  0.09920  0.44900  0.35100  1.0000
  O   O9        1.0  0.12000  0.75000  0.36100  1.0000
  O   O10       1.0  0.63300  0.75000  0.38700  1.0000
  O   O11       1.0  0.36700  0.25000  0.61300  1.0000
  O   O12       1.0  0.88000  0.25000  0.63900  1.0000
  O   O13       1.0  0.90100  0.55100  0.64900  1.0000
  O   O14       1.0  0.90100  0.94900  0.64900  1.0000
  O   O15       1.0  0.44600  0.64100  0.66100  1.0000
  O   O16       1.0  0.44600  0.85900  0.66100  1.0000
  O   O17       1.0  0.56600  0.05750  0.81000  1.0000
  O   O18       1.0  0.56600  0.44300  0.81000  1.0000
  O   O19       1.0  0.83800  0.62300  0.00000  1.0000
  O   O20       1.0  0.83800  0.87700  0.00000  1.0000
  Si  Si1       1.0  0.30400  0.06020  0.21200  1.0000
  Si  Si2       1.0  0.30400  0.44000  0.21200  1.0000
  Si  Si3       1.0  0.58400  0.25000  0.49000  1.0000
  Si  Si4       1.0  0.41600  0.75000  0.51000  1.0000
  Si  Si5       1.0  0.69600  0.56000  0.78800  1.0000
  Si  Si6       1.0  0.69600  0.94000  0.78800  1.0000
