data_image0
_chemical_formula_structural       Ir8Sn12Te12
_chemical_formula_sum              "Ir8 Sn12 Te12"
_cell_length_a       9.45312
_cell_length_b       9.45313
_cell_length_c       9.45312
_cell_angle_alpha    89.9475
_cell_angle_beta     90.0525
_cell_angle_gamma    90.0525

_space_group_name_H-M_alt    "P 1"
_space_group_IT_number       1

loop_
  _space_group_symop_operation_xyz
  'x, y, z'

loop_
  _atom_site_type_symbol
  _atom_site_label
  _atom_site_symmetry_multiplicity
  _atom_site_fract_x
  _atom_site_fract_y
  _atom_site_fract_z
  _atom_site_occupancy
  Ir  Ir1       1.0  0.75200  0.74800  0.24800  1.0000
  Ir  Ir2       1.0  0.25200  0.24800  0.24800  1.0000
  Ir  Ir3       1.0  0.74900  0.25100  0.25100  1.0000
  Ir  Ir4       1.0  0.24800  0.75200  0.25200  1.0000
  Ir  Ir5       1.0  0.75200  0.24800  0.74800  1.0000
  Ir  Ir6       1.0  0.25100  0.74900  0.74900  1.0000
  Ir  Ir7       1.0  0.74800  0.75200  0.75200  1.0000
  Ir  Ir8       1.0  0.24800  0.25200  0.75200  1.0000
  Sn  Sn1       1.0  0.32600  0.84000  0.00138  1.0000
  Sn  Sn2       1.0  0.00138  0.32600  0.16000  1.0000
  Sn  Sn3       1.0  0.33900  0.50000  0.17300  1.0000
  Sn  Sn4       1.0  0.84000  0.99900  0.32600  1.0000
  Sn  Sn5       1.0  0.50000  0.82700  0.33900  1.0000
  Sn  Sn6       1.0  0.17300  0.33900  0.50000  1.0000
  Sn  Sn7       1.0  0.82700  0.66100  0.50000  1.0000
  Sn  Sn8       1.0  0.50000  0.17300  0.66100  1.0000
  Sn  Sn9       1.0  0.16000  0.00138  0.67400  1.0000
  Sn  Sn10      1.0  0.66100  0.50000  0.82700  1.0000
  Sn  Sn11      1.0  0.99900  0.67400  0.84000  1.0000
  Sn  Sn12      1.0  0.67400  0.16000  0.99900  1.0000
  Te  Te1       1.0  0.34600  0.15100  0.00000  1.0000
  Te  Te2       1.0  0.65400  0.84900  0.00000  1.0000
  Te  Te3       1.0  0.00000  0.65400  0.15100  1.0000
  Te  Te4       1.0  0.65000  0.49800  0.15500  1.0000
  Te  Te5       1.0  0.15100  0.00000  0.34600  1.0000
  Te  Te6       1.0  0.50200  0.15500  0.35000  1.0000
  Te  Te7       1.0  0.84500  0.35000  0.49800  1.0000
  Te  Te8       1.0  0.15500  0.65000  0.50200  1.0000
  Te  Te9       1.0  0.49800  0.84500  0.65000  1.0000
  Te  Te10      1.0  0.84900  1.00000  0.65400  1.0000
  Te  Te11      1.0  0.35000  0.50200  0.84500  1.0000
  Te  Te12      1.0  0.00000  0.34600  0.84900  1.0000
