data_image0
_chemical_formula_structural       Br6C4Cu2H16N2O2
_chemical_formula_sum              "Br6 C4 Cu2 H16 N2 O2"
_cell_length_a       6.36677
_cell_length_b       8.19742
_cell_length_c       8.72169
_cell_angle_alpha    68.2631
_cell_angle_beta     80.1565
_cell_angle_gamma    78.272

_space_group_name_H-M_alt    "P 1"
_space_group_IT_number       1

loop_
  _space_group_symop_operation_xyz
  'x, y, z'

loop_
  _atom_site_type_symbol
  _atom_site_label
  _atom_site_symmetry_multiplicity
  _atom_site_fract_x
  _atom_site_fract_y
  _atom_site_fract_z
  _atom_site_occupancy
  Br  Br1       1.0  0.22400  0.12100  0.10200  1.0000
  Br  Br2       1.0  0.62500  0.91400  0.36100  1.0000
  Br  Br3       1.0  0.92400  0.24800  0.44700  1.0000
  Br  Br4       1.0  0.07610  0.75200  0.55300  1.0000
  Br  Br5       1.0  0.37500  0.08630  0.63900  1.0000
  Br  Br6       1.0  0.77600  0.87900  0.89800  1.0000
  C   C1        1.0  0.19600  0.62600  0.17400  1.0000
  C   C2        1.0  0.37700  0.53800  0.28200  1.0000
  C   C3        1.0  0.62300  0.46200  0.71800  1.0000
  C   C4        1.0  0.80400  0.37400  0.82600  1.0000
  Cu  Cu1       1.0  0.25600  0.06680  0.38900  1.0000
  Cu  Cu2       1.0  0.74400  0.93300  0.61100  1.0000
  H   H1        1.0  0.33500  0.85100  0.01820  1.0000
  H   H2        1.0  0.61100  0.31900  0.05810  1.0000
  H   H3        1.0  0.85800  0.19400  0.06200  1.0000
  H   H4        1.0  0.12100  0.52700  0.15400  1.0000
  H   H5        1.0  0.07250  0.70500  0.23300  1.0000
  H   H6        1.0  0.64900  0.37100  0.28200  1.0000
  H   H7        1.0  0.45700  0.63900  0.29500  1.0000
  H   H8        1.0  0.30600  0.46100  0.40600  1.0000
  H   H9        1.0  0.69400  0.53900  0.59400  1.0000
  H   H10       1.0  0.54300  0.36100  0.70500  1.0000
  H   H11       1.0  0.35100  0.62900  0.71800  1.0000
  H   H12       1.0  0.92800  0.29500  0.76700  1.0000
  H   H13       1.0  0.87900  0.47300  0.84600  1.0000
  H   H14       1.0  0.14200  0.80600  0.93800  1.0000
  H   H15       1.0  0.38900  0.68100  0.94200  1.0000
  H   H16       1.0  0.66500  0.14900  0.98200  1.0000
  N   N1        1.0  0.27300  0.74800  0.00780  1.0000
  N   N2        1.0  0.72700  0.25200  0.99200  1.0000
  O   O1        1.0  0.53000  0.42400  0.21100  1.0000
  O   O2        1.0  0.47000  0.57600  0.78900  1.0000
