data_image0
_chemical_formula_structural       Au4C8N8Rb4S8
_chemical_formula_sum              "Au4 C8 N8 Rb4 S8"
_cell_length_a       6.22174
_cell_length_b       7.27876
_cell_length_c       17.1849
_cell_angle_alpha    97.2503
_cell_angle_beta     100.429
_cell_angle_gamma    64.6979

_space_group_name_H-M_alt    "P 1"
_space_group_IT_number       1

loop_
  _space_group_symop_operation_xyz
  'x, y, z'

loop_
  _atom_site_type_symbol
  _atom_site_label
  _atom_site_symmetry_multiplicity
  _atom_site_fract_x
  _atom_site_fract_y
  _atom_site_fract_z
  _atom_site_occupancy
  Au  Au1       1.0  0.33600  0.25000  0.25000  1.0000
  Au  Au2       1.0  0.83400  0.25000  0.25000  1.0000
  Au  Au3       1.0  0.16600  0.75000  0.75000  1.0000
  Au  Au4       1.0  0.66400  0.75000  0.75000  1.0000
  C   C1        1.0  0.54500  0.12700  0.08700  1.0000
  C   C2        1.0  0.71800  0.60000  0.14400  1.0000
  C   C3        1.0  0.17300  0.90000  0.35600  1.0000
  C   C4        1.0  0.58500  0.37300  0.41300  1.0000
  C   C5        1.0  0.41500  0.62700  0.58700  1.0000
  C   C6        1.0  0.82700  0.09960  0.64400  1.0000
  C   C7        1.0  0.28200  0.40000  0.85600  1.0000
  C   C8        1.0  0.45500  0.87300  0.91300  1.0000
  N   N1        1.0  0.72200  0.10500  0.06390  1.0000
  N   N2        1.0  0.76100  0.60700  0.08010  1.0000
  N   N3        1.0  0.28700  0.89300  0.42000  1.0000
  N   N4        1.0  0.76300  0.39500  0.43600  1.0000
  N   N5        1.0  0.23700  0.60500  0.56400  1.0000
  N   N6        1.0  0.71300  0.10700  0.58000  1.0000
  N   N7        1.0  0.23900  0.39300  0.92000  1.0000
  N   N8        1.0  0.27800  0.89500  0.93600  1.0000
  Rb  Rb1       1.0  0.16200  0.70700  0.06090  1.0000
  Rb  Rb2       1.0  0.80900  0.79300  0.43900  1.0000
  Rb  Rb3       1.0  0.19100  0.20700  0.56100  1.0000
  Rb  Rb4       1.0  0.83800  0.29300  0.93900  1.0000
  S   S1        1.0  0.28900  0.15900  0.11500  1.0000
  S   S2        1.0  0.63700  0.59800  0.23000  1.0000
  S   S3        1.0  0.00472  0.90200  0.27000  1.0000
  S   S4        1.0  0.33400  0.34100  0.38500  1.0000
  S   S5        1.0  0.66600  0.65900  0.61500  1.0000
  S   S6        1.0  0.99500  0.09820  0.73000  1.0000
  S   S7        1.0  0.36300  0.40200  0.77000  1.0000
  S   S8        1.0  0.71100  0.84100  0.88500  1.0000
