data_image0
_chemical_formula_structural       Ga12N12O4Zn4
_chemical_formula_sum              "Ga12 N12 O4 Zn4"
_cell_length_a       6.42757
_cell_length_b       6.42795
_cell_length_c       10.4173
_cell_angle_alpha    89.8962
_cell_angle_beta     90.1259
_cell_angle_gamma    120.012

_space_group_name_H-M_alt    "P 1"
_space_group_IT_number       1

loop_
  _space_group_symop_operation_xyz
  'x, y, z'

loop_
  _atom_site_type_symbol
  _atom_site_label
  _atom_site_symmetry_multiplicity
  _atom_site_fract_x
  _atom_site_fract_y
  _atom_site_fract_z
  _atom_site_occupancy
  Ga  Ga1       1.0  0.16000  0.33500  0.00032  1.0000
  Ga  Ga2       1.0  0.66400  0.84000  0.00055  1.0000
  Ga  Ga3       1.0  0.17000  0.83000  0.00111  1.0000
  Ga  Ga4       1.0  0.32300  0.16200  0.25500  1.0000
  Ga  Ga5       1.0  0.33300  0.66600  0.25500  1.0000
  Ga  Ga6       1.0  0.83900  0.16200  0.25600  1.0000
  Ga  Ga7       1.0  0.83800  0.67700  0.25700  1.0000
  Ga  Ga8       1.0  0.16600  0.33600  0.50000  1.0000
  Ga  Ga9       1.0  0.66900  0.33300  0.50200  1.0000
  Ga  Ga10      1.0  0.16700  0.83000  0.50200  1.0000
  Ga  Ga11      1.0  0.32300  0.66300  0.74500  1.0000
  Ga  Ga12      1.0  0.83800  0.17600  0.74700  1.0000
  N   N1        1.0  0.16700  0.83300  0.18600  1.0000
  N   N2        1.0  0.16700  0.33400  0.18600  1.0000
  N   N3        1.0  0.66500  0.83300  0.18700  1.0000
  N   N4        1.0  0.83700  0.17500  0.43700  1.0000
  N   N5        1.0  0.32600  0.66300  0.43700  1.0000
  N   N6        1.0  0.33300  0.16700  0.43800  1.0000
  N   N7        1.0  0.83800  0.66200  0.43800  1.0000
  N   N8        1.0  0.16400  0.33700  0.68700  1.0000
  N   N9        1.0  0.17300  0.83200  0.68700  1.0000
  N   N10       1.0  0.66900  0.32700  0.68700  1.0000
  N   N11       1.0  0.84000  0.16000  0.93500  1.0000
  N   N12       1.0  0.33400  0.66600  0.93700  1.0000
  O   O1        1.0  0.66500  0.33300  0.19300  1.0000
  O   O2        1.0  0.66100  0.83800  0.69900  1.0000
  O   O3        1.0  0.83900  0.67900  0.94900  1.0000
  O   O4        1.0  0.32100  0.16100  0.95000  1.0000
  Zn  Zn1       1.0  0.66600  0.83300  0.49500  1.0000
  Zn  Zn2       1.0  0.33300  0.16700  0.73800  1.0000
  Zn  Zn3       1.0  0.83900  0.66100  0.73800  1.0000
  Zn  Zn4       1.0  0.67200  0.32800  0.99200  1.0000
