data_image0
_chemical_formula_structural       Cu14Hg12
_chemical_formula_sum              "Cu14 Hg12"
_cell_length_a       8.8262
_cell_length_b       8.8262
_cell_length_c       8.8262
_cell_angle_alpha    87.0514
_cell_angle_beta     87.0514
_cell_angle_gamma    87.0514

_space_group_name_H-M_alt    "P 1"
_space_group_IT_number       1

loop_
  _space_group_symop_operation_xyz
  'x, y, z'

loop_
  _atom_site_type_symbol
  _atom_site_label
  _atom_site_symmetry_multiplicity
  _atom_site_fract_x
  _atom_site_fract_y
  _atom_site_fract_z
  _atom_site_occupancy
  Cu  Cu1       1.0  0.34300  0.00688  0.00688  1.0000
  Cu  Cu2       1.0  0.00688  0.34300  0.00688  1.0000
  Cu  Cu3       1.0  0.28700  0.28700  0.06940  1.0000
  Cu  Cu4       1.0  0.09450  0.09450  0.09450  1.0000
  Cu  Cu5       1.0  0.90100  0.90100  0.12200  1.0000
  Cu  Cu6       1.0  0.17800  0.83200  0.17800  1.0000
  Cu  Cu7       1.0  0.83200  0.17800  0.17800  1.0000
  Cu  Cu8       1.0  0.28700  0.06940  0.28700  1.0000
  Cu  Cu9       1.0  0.06940  0.28700  0.28700  1.0000
  Cu  Cu10      1.0  0.00688  0.00688  0.34300  1.0000
  Cu  Cu11      1.0  0.17800  0.17800  0.83200  1.0000
  Cu  Cu12      1.0  0.85300  0.85300  0.85300  1.0000
  Cu  Cu13      1.0  0.12200  0.90100  0.90100  1.0000
  Cu  Cu14      1.0  0.90100  0.12200  0.90100  1.0000
  Hg  Hg1       1.0  0.62700  0.01010  0.01010  1.0000
  Hg  Hg2       1.0  0.01010  0.62700  0.01010  1.0000
  Hg  Hg3       1.0  0.66600  0.66600  0.02110  1.0000
  Hg  Hg4       1.0  0.59200  0.34200  0.06900  1.0000
  Hg  Hg5       1.0  0.34200  0.59200  0.06900  1.0000
  Hg  Hg6       1.0  0.59200  0.06900  0.34200  1.0000
  Hg  Hg7       1.0  0.06900  0.59200  0.34200  1.0000
  Hg  Hg8       1.0  0.34200  0.06900  0.59200  1.0000
  Hg  Hg9       1.0  0.06900  0.34200  0.59200  1.0000
  Hg  Hg10      1.0  0.01010  0.01010  0.62700  1.0000
  Hg  Hg11      1.0  0.02110  0.66600  0.66600  1.0000
  Hg  Hg12      1.0  0.66600  0.02110  0.66600  1.0000
