data_image0
_chemical_formula_structural       Cs4Cu8F20
_chemical_formula_sum              "Cs4 Cu8 F20"
_cell_length_a       7.02798
_cell_length_b       7.29272
_cell_length_c       9.02111
_cell_angle_alpha    90
_cell_angle_beta     100.688
_cell_angle_gamma    90

_space_group_name_H-M_alt    "P 1"
_space_group_IT_number       1

loop_
  _space_group_symop_operation_xyz
  'x, y, z'

loop_
  _atom_site_type_symbol
  _atom_site_label
  _atom_site_symmetry_multiplicity
  _atom_site_fract_x
  _atom_site_fract_y
  _atom_site_fract_z
  _atom_site_occupancy
  Cs  Cs1       1.0  0.74100  0.48100  0.11200  1.0000
  Cs  Cs2       1.0  0.75900  0.98100  0.38800  1.0000
  Cs  Cs3       1.0  0.24100  0.01880  0.61200  1.0000
  Cs  Cs4       1.0  0.25900  0.51900  0.88800  1.0000
  Cu  Cu1       1.0  0.00000  0.00000  0.00000  1.0000
  Cu  Cu2       1.0  0.50000  0.00000  0.00000  1.0000
  Cu  Cu3       1.0  0.24300  0.24500  0.24700  1.0000
  Cu  Cu4       1.0  0.25700  0.74500  0.25300  1.0000
  Cu  Cu5       1.0  0.00000  0.50000  0.50000  1.0000
  Cu  Cu6       1.0  0.50000  0.50000  0.50000  1.0000
  Cu  Cu7       1.0  0.74300  0.25500  0.74700  1.0000
  Cu  Cu8       1.0  0.75700  0.75500  0.75300  1.0000
  F   F1        1.0  0.02810  0.25500  0.00972  1.0000
  F   F2        1.0  0.77300  0.02080  0.07840  1.0000
  F   F3        1.0  0.46300  0.79900  0.15000  1.0000
  F   F4        1.0  0.45500  0.18500  0.15400  1.0000
  F   F5        1.0  0.31700  0.49400  0.23300  1.0000
  F   F6        1.0  0.18300  0.99400  0.26700  1.0000
  F   F7        1.0  0.04520  0.68500  0.34600  1.0000
  F   F8        1.0  0.03680  0.29900  0.35000  1.0000
  F   F9        1.0  0.72700  0.52100  0.42200  1.0000
  F   F10       1.0  0.47200  0.75500  0.49000  1.0000
  F   F11       1.0  0.52800  0.24500  0.51000  1.0000
  F   F12       1.0  0.27300  0.47900  0.57800  1.0000
  F   F13       1.0  0.96300  0.70100  0.65000  1.0000
  F   F14       1.0  0.95500  0.31500  0.65400  1.0000
  F   F15       1.0  0.81700  0.00635  0.73300  1.0000
  F   F16       1.0  0.68300  0.50600  0.76700  1.0000
  F   F17       1.0  0.54500  0.81500  0.84600  1.0000
  F   F18       1.0  0.53700  0.20100  0.85000  1.0000
  F   F19       1.0  0.22700  0.97900  0.92200  1.0000
  F   F20       1.0  0.97200  0.74500  0.99000  1.0000
