data_image0
_chemical_formula_structural       Cl4Cr4O16Sr8
_chemical_formula_sum              "Cl4 Cr4 O16 Sr8"
_cell_length_a       6.51656
_cell_length_b       7.4597
_cell_length_c       11.3901
_cell_angle_alpha    90
_cell_angle_beta     90
_cell_angle_gamma    90

_space_group_name_H-M_alt    "P 1"
_space_group_IT_number       1

loop_
  _space_group_symop_operation_xyz
  'x, y, z'

loop_
  _atom_site_type_symbol
  _atom_site_label
  _atom_site_symmetry_multiplicity
  _atom_site_fract_x
  _atom_site_fract_y
  _atom_site_fract_z
  _atom_site_occupancy
  Cl  Cl1       1.0  0.47900  0.17600  0.25000  1.0000
  Cl  Cl2       1.0  0.52100  0.67600  0.25000  1.0000
  Cl  Cl3       1.0  0.47900  0.32400  0.75000  1.0000
  Cl  Cl4       1.0  0.52100  0.82400  0.75000  1.0000
  Cr  Cr1       1.0  0.12400  0.25000  0.00000  1.0000
  Cr  Cr2       1.0  0.87600  0.75000  0.00000  1.0000
  Cr  Cr3       1.0  0.12400  0.25000  0.50000  1.0000
  Cr  Cr4       1.0  0.87600  0.75000  0.50000  1.0000
  O   O1        1.0  0.28600  0.42500  0.03320  1.0000
  O   O2        1.0  0.71400  0.92500  0.03320  1.0000
  O   O3        1.0  0.96200  0.23300  0.12000  1.0000
  O   O4        1.0  0.03770  0.73300  0.12000  1.0000
  O   O5        1.0  0.96200  0.23300  0.38000  1.0000
  O   O6        1.0  0.03770  0.73300  0.38000  1.0000
  O   O7        1.0  0.28600  0.42500  0.46700  1.0000
  O   O8        1.0  0.71400  0.92500  0.46700  1.0000
  O   O9        1.0  0.28600  0.07510  0.53300  1.0000
  O   O10       1.0  0.71400  0.57500  0.53300  1.0000
  O   O11       1.0  0.96200  0.26700  0.62000  1.0000
  O   O12       1.0  0.03770  0.76700  0.62000  1.0000
  O   O13       1.0  0.96200  0.26700  0.88000  1.0000
  O   O14       1.0  0.03770  0.76700  0.88000  1.0000
  O   O15       1.0  0.28600  0.07510  0.96700  1.0000
  O   O16       1.0  0.71400  0.57500  0.96700  1.0000
  Sr  Sr1       1.0  0.62100  0.25000  0.00000  1.0000
  Sr  Sr2       1.0  0.37900  0.75000  0.00000  1.0000
  Sr  Sr3       1.0  0.13800  0.46600  0.25000  1.0000
  Sr  Sr4       1.0  0.86200  0.96600  0.25000  1.0000
  Sr  Sr5       1.0  0.62100  0.25000  0.50000  1.0000
  Sr  Sr6       1.0  0.37900  0.75000  0.50000  1.0000
  Sr  Sr7       1.0  0.13800  0.03380  0.75000  1.0000
  Sr  Sr8       1.0  0.86200  0.53400  0.75000  1.0000
