data_image0
_chemical_formula_structural       Cu12Ge2S16W2
_chemical_formula_sum              "Cu12 Ge2 S16 W2"
_cell_length_a       7.56576
_cell_length_b       7.56576
_cell_length_c       12.4441
_cell_angle_alpha    90
_cell_angle_beta     90
_cell_angle_gamma    120

_space_group_name_H-M_alt    "P 1"
_space_group_IT_number       1

loop_
  _space_group_symop_operation_xyz
  'x, y, z'

loop_
  _atom_site_type_symbol
  _atom_site_label
  _atom_site_symmetry_multiplicity
  _atom_site_fract_x
  _atom_site_fract_y
  _atom_site_fract_z
  _atom_site_occupancy
  Cu  Cu1       1.0  0.32200  0.16100  0.10500  1.0000
  Cu  Cu2       1.0  0.83900  0.16100  0.10500  1.0000
  Cu  Cu3       1.0  0.83900  0.67800  0.10500  1.0000
  Cu  Cu4       1.0  0.50400  0.00712  0.35400  1.0000
  Cu  Cu5       1.0  0.50400  0.49600  0.35400  1.0000
  Cu  Cu6       1.0  0.99300  0.49600  0.35400  1.0000
  Cu  Cu7       1.0  0.16100  0.83900  0.60500  1.0000
  Cu  Cu8       1.0  0.67800  0.83900  0.60500  1.0000
  Cu  Cu9       1.0  0.16100  0.32200  0.60500  1.0000
  Cu  Cu10      1.0  0.49600  0.99300  0.85400  1.0000
  Cu  Cu11      1.0  0.00714  0.50400  0.85400  1.0000
  Cu  Cu12      1.0  0.49600  0.50400  0.85400  1.0000
  Ge  Ge1       1.0  0.00000  0.00000  0.35200  1.0000
  Ge  Ge2       1.0  0.00000  0.00000  0.85200  1.0000
  S   S1        1.0  0.00000  0.00000  0.03430  1.0000
  S   S2        1.0  0.50300  0.00609  0.04130  1.0000
  S   S3        1.0  0.50300  0.49700  0.04130  1.0000
  S   S4        1.0  0.99400  0.49700  0.04130  1.0000
  S   S5        1.0  0.33000  0.16500  0.29000  1.0000
  S   S6        1.0  0.83500  0.16500  0.29000  1.0000
  S   S7        1.0  0.83500  0.67000  0.29000  1.0000
  S   S8        1.0  0.33300  0.66700  0.29900  1.0000
  S   S9        1.0  0.00000  0.00000  0.53400  1.0000
  S   S10       1.0  0.49700  0.99400  0.54100  1.0000
  S   S11       1.0  0.00607  0.50300  0.54100  1.0000
  S   S12       1.0  0.49700  0.50300  0.54100  1.0000
  S   S13       1.0  0.16500  0.83500  0.79000  1.0000
  S   S14       1.0  0.67000  0.83500  0.79000  1.0000
  S   S15       1.0  0.16500  0.33000  0.79000  1.0000
  S   S16       1.0  0.66700  0.33300  0.79900  1.0000
  W   W1        1.0  0.33300  0.66700  0.48100  1.0000
  W   W2        1.0  0.66700  0.33300  0.98100  1.0000
