data_image0
_chemical_formula_structural       Ba2Gd4O20Si6
_chemical_formula_sum              "Ba2 Gd4 O20 Si6"
_cell_length_a       5.41445
_cell_length_b       12.1704
_cell_length_c       6.91814
_cell_angle_alpha    90
_cell_angle_beta     106.406
_cell_angle_gamma    90

_space_group_name_H-M_alt    "P 1"
_space_group_IT_number       1

loop_
  _space_group_symop_operation_xyz
  'x, y, z'

loop_
  _atom_site_type_symbol
  _atom_site_label
  _atom_site_symmetry_multiplicity
  _atom_site_fract_x
  _atom_site_fract_y
  _atom_site_fract_z
  _atom_site_occupancy
  Ba  Ba1       1.0  0.76000  0.25000  0.02090  1.0000
  Ba  Ba2       1.0  0.24000  0.75000  0.97900  1.0000
  Gd  Gd1       1.0  0.83900  0.59800  0.31200  1.0000
  Gd  Gd2       1.0  0.83900  0.90200  0.31200  1.0000
  Gd  Gd3       1.0  0.16100  0.09760  0.68800  1.0000
  Gd  Gd4       1.0  0.16100  0.40200  0.68800  1.0000
  O   O1        1.0  0.16900  0.12700  0.00616  1.0000
  O   O2        1.0  0.16900  0.37300  0.00616  1.0000
  O   O3        1.0  0.42300  0.55500  0.18700  1.0000
  O   O4        1.0  0.42300  0.94500  0.18700  1.0000
  O   O5        1.0  0.55600  0.14100  0.34200  1.0000
  O   O6        1.0  0.55600  0.35900  0.34200  1.0000
  O   O7        1.0  0.09800  0.05540  0.34900  1.0000
  O   O8        1.0  0.09800  0.44500  0.34900  1.0000
  O   O9        1.0  0.11800  0.75000  0.36200  1.0000
  O   O10       1.0  0.62300  0.75000  0.38300  1.0000
  O   O11       1.0  0.37700  0.25000  0.61700  1.0000
  O   O12       1.0  0.88200  0.25000  0.63800  1.0000
  O   O13       1.0  0.90200  0.55500  0.65100  1.0000
  O   O14       1.0  0.90200  0.94500  0.65100  1.0000
  O   O15       1.0  0.44400  0.64100  0.65800  1.0000
  O   O16       1.0  0.44400  0.85900  0.65800  1.0000
  O   O17       1.0  0.57700  0.05530  0.81300  1.0000
  O   O18       1.0  0.57700  0.44500  0.81300  1.0000
  O   O19       1.0  0.83100  0.62700  0.99400  1.0000
  O   O20       1.0  0.83100  0.87300  0.99400  1.0000
  Si  Si1       1.0  0.30400  0.06350  0.21400  1.0000
  Si  Si2       1.0  0.30400  0.43700  0.21400  1.0000
  Si  Si3       1.0  0.58800  0.25000  0.49100  1.0000
  Si  Si4       1.0  0.41200  0.75000  0.50900  1.0000
  Si  Si5       1.0  0.69600  0.56300  0.78600  1.0000
  Si  Si6       1.0  0.69600  0.93700  0.78600  1.0000
