data_image0
_chemical_formula_structural       Ga12La20
_chemical_formula_sum              "Ga12 La20"
_cell_length_a       8.0312
_cell_length_b       8.0312
_cell_length_c       14.7361
_cell_angle_alpha    90
_cell_angle_beta     90
_cell_angle_gamma    90

_space_group_name_H-M_alt    "P 1"
_space_group_IT_number       1

loop_
  _space_group_symop_operation_xyz
  'x, y, z'

loop_
  _atom_site_type_symbol
  _atom_site_label
  _atom_site_symmetry_multiplicity
  _atom_site_fract_x
  _atom_site_fract_y
  _atom_site_fract_z
  _atom_site_occupancy
  Ga  Ga1       1.0  0.50000  0.00000  0.00442  1.0000
  Ga  Ga2       1.0  0.88200  0.11800  0.25000  1.0000
  Ga  Ga3       1.0  0.38200  0.38200  0.25000  1.0000
  Ga  Ga4       1.0  0.61800  0.61800  0.25000  1.0000
  Ga  Ga5       1.0  0.11800  0.88200  0.25000  1.0000
  Ga  Ga6       1.0  0.00000  0.50000  0.49600  1.0000
  Ga  Ga7       1.0  0.50000  0.00000  0.50400  1.0000
  Ga  Ga8       1.0  0.11800  0.11800  0.75000  1.0000
  Ga  Ga9       1.0  0.61800  0.38200  0.75000  1.0000
  Ga  Ga10      1.0  0.38200  0.61800  0.75000  1.0000
  Ga  Ga11      1.0  0.88200  0.88200  0.75000  1.0000
  Ga  Ga12      1.0  0.00000  0.50000  0.99600  1.0000
  La  La1       1.0  0.16200  0.18500  0.10200  1.0000
  La  La2       1.0  0.68500  0.33800  0.10200  1.0000
  La  La3       1.0  0.31500  0.66200  0.10200  1.0000
  La  La4       1.0  0.83800  0.81500  0.10200  1.0000
  La  La5       1.0  0.50000  0.00000  0.21800  1.0000
  La  La6       1.0  0.00000  0.50000  0.28200  1.0000
  La  La7       1.0  0.18500  0.16200  0.39800  1.0000
  La  La8       1.0  0.66200  0.31500  0.39800  1.0000
  La  La9       1.0  0.33800  0.68500  0.39800  1.0000
  La  La10      1.0  0.81500  0.83800  0.39800  1.0000
  La  La11      1.0  0.83800  0.18500  0.60200  1.0000
  La  La12      1.0  0.31500  0.33800  0.60200  1.0000
  La  La13      1.0  0.68500  0.66200  0.60200  1.0000
  La  La14      1.0  0.16200  0.81500  0.60200  1.0000
  La  La15      1.0  0.50000  0.00000  0.71800  1.0000
  La  La16      1.0  0.00000  0.50000  0.78200  1.0000
  La  La17      1.0  0.81500  0.16200  0.89800  1.0000
  La  La18      1.0  0.33800  0.31500  0.89800  1.0000
  La  La19      1.0  0.66200  0.68500  0.89800  1.0000
  La  La20      1.0  0.18500  0.83800  0.89800  1.0000
