data_image0
_chemical_formula_structural       Fe29Y3
_chemical_formula_sum              "Fe29 Y3"
_cell_length_a       6.37172
_cell_length_b       6.37172
_cell_length_c       10.3825
_cell_angle_alpha    94.8901
_cell_angle_beta     85.1099
_cell_angle_gamma    97.3032

_space_group_name_H-M_alt    "P 1"
_space_group_IT_number       1

loop_
  _space_group_symop_operation_xyz
  'x, y, z'

loop_
  _atom_site_type_symbol
  _atom_site_label
  _atom_site_symmetry_multiplicity
  _atom_site_fract_x
  _atom_site_fract_y
  _atom_site_fract_z
  _atom_site_occupancy
  Fe  Fe1       1.0  0.50000  0.00000  0.00000  1.0000
  Fe  Fe2       1.0  0.35900  0.35900  0.00000  1.0000
  Fe  Fe3       1.0  0.00000  0.50000  0.00000  1.0000
  Fe  Fe4       1.0  0.64100  0.64100  0.00000  1.0000
  Fe  Fe5       1.0  0.27700  0.72300  0.10800  1.0000
  Fe  Fe6       1.0  0.70900  0.29100  0.14100  1.0000
  Fe  Fe7       1.0  0.31000  0.12900  0.19800  1.0000
  Fe  Fe8       1.0  0.87100  0.69000  0.19800  1.0000
  Fe  Fe9       1.0  0.09690  0.40800  0.19800  1.0000
  Fe  Fe10      1.0  0.59200  0.90300  0.19800  1.0000
  Fe  Fe11      1.0  0.47900  0.52100  0.25400  1.0000
  Fe  Fe12      1.0  0.90700  0.09310  0.29200  1.0000
  Fe  Fe13      1.0  0.53800  0.16500  0.37900  1.0000
  Fe  Fe14      1.0  0.83500  0.46200  0.37900  1.0000
  Fe  Fe15      1.0  0.18700  0.31400  0.40500  1.0000
  Fe  Fe16      1.0  0.68600  0.81300  0.40500  1.0000
  Fe  Fe17      1.0  0.50000  0.50000  0.50000  1.0000
  Fe  Fe18      1.0  0.31400  0.18700  0.59500  1.0000
  Fe  Fe19      1.0  0.81300  0.68600  0.59500  1.0000
  Fe  Fe20      1.0  0.16500  0.53800  0.62100  1.0000
  Fe  Fe21      1.0  0.46200  0.83500  0.62100  1.0000
  Fe  Fe22      1.0  0.09310  0.90700  0.70800  1.0000
  Fe  Fe23      1.0  0.52100  0.47900  0.74600  1.0000
  Fe  Fe24      1.0  0.40800  0.09690  0.80200  1.0000
  Fe  Fe25      1.0  0.90300  0.59200  0.80200  1.0000
  Fe  Fe26      1.0  0.12900  0.31000  0.80200  1.0000
  Fe  Fe27      1.0  0.69000  0.87100  0.80200  1.0000
  Fe  Fe28      1.0  0.29100  0.70900  0.85900  1.0000
  Fe  Fe29      1.0  0.72300  0.27700  0.89200  1.0000
  Y   Y1        1.0  0.00000  0.00000  0.00000  1.0000
  Y   Y2        1.0  0.18600  0.81400  0.40200  1.0000
  Y   Y3        1.0  0.81400  0.18600  0.59800  1.0000
