data_image0
_chemical_formula_structural       H8K2Li2N4O12S4
_chemical_formula_sum              "H8 K2 Li2 N4 O12 S4"
_cell_length_a       5.08096
_cell_length_b       8.30573
_cell_length_c       8.61723
_cell_angle_alpha    90
_cell_angle_beta     105.164
_cell_angle_gamma    90

_space_group_name_H-M_alt    "P 1"
_space_group_IT_number       1

loop_
  _space_group_symop_operation_xyz
  'x, y, z'

loop_
  _atom_site_type_symbol
  _atom_site_label
  _atom_site_symmetry_multiplicity
  _atom_site_fract_x
  _atom_site_fract_y
  _atom_site_fract_z
  _atom_site_occupancy
  H   H1        1.0  0.35400  0.98700  0.03710  1.0000
  H   H2        1.0  0.68500  0.04850  0.06880  1.0000
  H   H3        1.0  0.45900  0.34300  0.13300  1.0000
  H   H4        1.0  0.49900  0.20000  0.28300  1.0000
  H   H5        1.0  0.50100  0.70000  0.71700  1.0000
  H   H6        1.0  0.54100  0.84300  0.86700  1.0000
  H   H7        1.0  0.31500  0.54800  0.93100  1.0000
  H   H8        1.0  0.64600  0.48700  0.96300  1.0000
  K   K1        1.0  0.78800  0.50200  0.45700  1.0000
  K   K2        1.0  0.21200  0.00209  0.54300  1.0000
  Li  Li1       1.0  0.09570  0.68800  0.16100  1.0000
  Li  Li2       1.0  0.90400  0.18800  0.83900  1.0000
  N   N1        1.0  0.55600  0.95200  0.07070  1.0000
  N   N2        1.0  0.41400  0.31000  0.23900  1.0000
  N   N3        1.0  0.58600  0.81000  0.76100  1.0000
  N   N4        1.0  0.44400  0.45200  0.92900  1.0000
  O   O1        1.0  0.96400  0.19900  0.06810  1.0000
  O   O2        1.0  0.98800  0.47000  0.17300  1.0000
  O   O3        1.0  0.47500  0.72600  0.24300  1.0000
  O   O4        1.0  0.93100  0.83400  0.28000  1.0000
  O   O5        1.0  0.02990  0.24200  0.35500  1.0000
  O   O6        1.0  0.59200  0.98800  0.37100  1.0000
  O   O7        1.0  0.40800  0.48800  0.62900  1.0000
  O   O8        1.0  0.97000  0.74200  0.64500  1.0000
  O   O9        1.0  0.06870  0.33400  0.72000  1.0000
  O   O10       1.0  0.52500  0.22600  0.75700  1.0000
  O   O11       1.0  0.01210  0.97000  0.82700  1.0000
  O   O12       1.0  0.03600  0.69900  0.93200  1.0000
  S   S1        1.0  0.08240  0.30300  0.20800  1.0000
  S   S2        1.0  0.64000  0.87200  0.25300  1.0000
  S   S3        1.0  0.36000  0.37200  0.74700  1.0000
  S   S4        1.0  0.91800  0.80300  0.79200  1.0000
