data_image0
_chemical_formula_structural       Al4Cl2H12Li2O12
_chemical_formula_sum              "Al4 Cl2 H12 Li2 O12"
_cell_length_a       5.08067
_cell_length_b       5.08067
_cell_length_c       13.8781
_cell_angle_alpha    90
_cell_angle_beta     90
_cell_angle_gamma    120

_space_group_name_H-M_alt    "P 1"
_space_group_IT_number       1

loop_
  _space_group_symop_operation_xyz
  'x, y, z'

loop_
  _atom_site_type_symbol
  _atom_site_label
  _atom_site_symmetry_multiplicity
  _atom_site_fract_x
  _atom_site_fract_y
  _atom_site_fract_z
  _atom_site_occupancy
  Al  Al1       1.0  0.66700  0.33300  0.00000  1.0000
  Al  Al2       1.0  0.33300  0.66700  0.00000  1.0000
  Al  Al3       1.0  0.66700  0.33300  0.50000  1.0000
  Al  Al4       1.0  0.33300  0.66700  0.50000  1.0000
  Cl  Cl1       1.0  0.00000  0.00000  0.25000  1.0000
  Cl  Cl2       1.0  0.00000  0.00000  0.75000  1.0000
  H   H1        1.0  0.30800  0.30800  0.13800  1.0000
  H   H2        1.0  0.69200  0.00000  0.13800  1.0000
  H   H3        1.0  0.00000  0.69200  0.13800  1.0000
  H   H4        1.0  0.30800  0.30800  0.36200  1.0000
  H   H5        1.0  0.69200  0.00000  0.36200  1.0000
  H   H6        1.0  0.00000  0.69200  0.36200  1.0000
  H   H7        1.0  0.69200  0.69200  0.63800  1.0000
  H   H8        1.0  0.30800  0.00000  0.63800  1.0000
  H   H9        1.0  0.00000  0.30800  0.63800  1.0000
  H   H10       1.0  0.69200  0.69200  0.86200  1.0000
  H   H11       1.0  0.30800  0.00000  0.86200  1.0000
  H   H12       1.0  0.00000  0.30800  0.86200  1.0000
  Li  Li1       1.0  0.00000  0.00000  0.00000  1.0000
  Li  Li2       1.0  0.00000  0.00000  0.50000  1.0000
  O   O1        1.0  0.63400  0.00000  0.07080  1.0000
  O   O2        1.0  0.00000  0.63400  0.07080  1.0000
  O   O3        1.0  0.36600  0.36600  0.07080  1.0000
  O   O4        1.0  0.63400  0.00000  0.42900  1.0000
  O   O5        1.0  0.00000  0.63400  0.42900  1.0000
  O   O6        1.0  0.36600  0.36600  0.42900  1.0000
  O   O7        1.0  0.36600  0.00000  0.57100  1.0000
  O   O8        1.0  0.00000  0.36600  0.57100  1.0000
  O   O9        1.0  0.63400  0.63400  0.57100  1.0000
  O   O10       1.0  0.36600  0.00000  0.92900  1.0000
  O   O11       1.0  0.00000  0.36600  0.92900  1.0000
  O   O12       1.0  0.63400  0.63400  0.92900  1.0000
