data_image0
_chemical_formula_structural       ClNa9O16P4Zr
_chemical_formula_sum              "Cl1 Na9 O16 P4 Zr1"
_cell_length_a       9.07202
_cell_length_b       9.01766
_cell_length_c       5.32558
_cell_angle_alpha    90.7176
_cell_angle_beta     91.5708
_cell_angle_gamma    111.171

_space_group_name_H-M_alt    "P 1"
_space_group_IT_number       1

loop_
  _space_group_symop_operation_xyz
  'x, y, z'

loop_
  _atom_site_type_symbol
  _atom_site_label
  _atom_site_symmetry_multiplicity
  _atom_site_fract_x
  _atom_site_fract_y
  _atom_site_fract_z
  _atom_site_occupancy
  Cl  Cl1       1.0  0.50600  0.49800  0.99500  1.0000
  Na  Na1       1.0  0.17800  0.43300  0.03540  1.0000
  Na  Na2       1.0  0.59100  0.82000  0.08040  1.0000
  Na  Na3       1.0  0.59800  0.35600  0.46200  1.0000
  Na  Na4       1.0  0.23000  0.90900  0.47900  1.0000
  Na  Na5       1.0  0.00838  0.48500  0.49800  1.0000
  Na  Na6       1.0  0.41400  0.63800  0.55300  1.0000
  Na  Na7       1.0  0.62900  0.01880  0.58000  1.0000
  Na  Na8       1.0  0.84000  0.55500  0.94700  1.0000
  Na  Na9       1.0  0.42300  0.17200  0.95300  1.0000
  O   O1        1.0  0.20400  0.93200  0.02130  1.0000
  O   O2        1.0  0.90600  0.34700  0.13700  1.0000
  O   O3        1.0  0.87400  0.79200  0.18600  1.0000
  O   O4        1.0  0.62600  0.15000  0.22500  1.0000
  O   O5        1.0  0.31200  0.74200  0.22700  1.0000
  O   O6        1.0  0.07820  0.12600  0.31700  1.0000
  O   O7        1.0  0.22600  0.40700  0.46300  1.0000
  O   O8        1.0  0.66800  0.78900  0.49500  1.0000
  O   O9        1.0  0.80500  0.58300  0.51200  1.0000
  O   O10       1.0  0.34900  0.18900  0.51300  1.0000
  O   O11       1.0  0.95400  0.86500  0.64600  1.0000
  O   O12       1.0  0.13100  0.19800  0.78500  1.0000
  O   O13       1.0  0.69500  0.25900  0.79200  1.0000
  O   O14       1.0  0.40500  0.85700  0.79700  1.0000
  O   O15       1.0  0.12900  0.64800  0.83900  1.0000
  O   O16       1.0  0.80100  0.05690  0.96200  1.0000
  P   P1        1.0  0.75900  0.21000  0.03550  1.0000
  P   P2        1.0  0.82000  0.75400  0.46400  1.0000
  P   P3        1.0  0.20200  0.23500  0.51500  1.0000
  P   P4        1.0  0.26200  0.78800  0.97000  1.0000
  Zr  Zr1       1.0  0.00144  0.99700  0.98600  1.0000
