data_image0
_chemical_formula_structural       Cs4O20Se4V4
_chemical_formula_sum              "Cs4 O20 Se4 V4"
_cell_length_a       7.68965
_cell_length_b       7.79029
_cell_length_c       9.45985
_cell_angle_alpha    90
_cell_angle_beta     92.299
_cell_angle_gamma    90

_space_group_name_H-M_alt    "P 1"
_space_group_IT_number       1

loop_
  _space_group_symop_operation_xyz
  'x, y, z'

loop_
  _atom_site_type_symbol
  _atom_site_label
  _atom_site_symmetry_multiplicity
  _atom_site_fract_x
  _atom_site_fract_y
  _atom_site_fract_z
  _atom_site_occupancy
  Cs  Cs1       1.0  0.59500  0.24400  0.12900  1.0000
  Cs  Cs2       1.0  0.11700  0.50700  0.39100  1.0000
  Cs  Cs3       1.0  0.88300  0.00698  0.60900  1.0000
  Cs  Cs4       1.0  0.40500  0.74400  0.87100  1.0000
  O   O1        1.0  0.97800  0.98400  0.05580  1.0000
  O   O2        1.0  0.17100  0.25000  0.11000  1.0000
  O   O3        1.0  0.68100  0.84000  0.12100  1.0000
  O   O4        1.0  0.42200  0.60300  0.16700  1.0000
  O   O5        1.0  0.74600  0.56600  0.28600  1.0000
  O   O6        1.0  0.08670  0.87400  0.31300  1.0000
  O   O7        1.0  0.90900  0.16900  0.31300  1.0000
  O   O8        1.0  0.52900  0.93700  0.33000  1.0000
  O   O9        1.0  0.27300  0.15500  0.35000  1.0000
  O   O10       1.0  0.48300  0.63600  0.45200  1.0000
  O   O11       1.0  0.51700  0.13600  0.54800  1.0000
  O   O12       1.0  0.72700  0.65500  0.65000  1.0000
  O   O13       1.0  0.47100  0.43700  0.67000  1.0000
  O   O14       1.0  0.09060  0.66900  0.68700  1.0000
  O   O15       1.0  0.91300  0.37400  0.68700  1.0000
  O   O16       1.0  0.25400  0.06600  0.71400  1.0000
  O   O17       1.0  0.57800  0.10300  0.83300  1.0000
  O   O18       1.0  0.31900  0.34000  0.87900  1.0000
  O   O19       1.0  0.82900  0.75000  0.89000  1.0000
  O   O20       1.0  0.02160  0.48400  0.94400  1.0000
  Se  Se1       1.0  0.88500  0.77900  0.06610  1.0000
  Se  Se2       1.0  0.38100  0.99700  0.45200  1.0000
  Se  Se3       1.0  0.61900  0.49700  0.54800  1.0000
  Se  Se4       1.0  0.11500  0.27900  0.93400  1.0000
  V   V1        1.0  0.07150  0.06980  0.23900  1.0000
  V   V2        1.0  0.57500  0.69800  0.26600  1.0000
  V   V3        1.0  0.42500  0.19800  0.73400  1.0000
  V   V4        1.0  0.92900  0.57000  0.76100  1.0000
