data_image0
_chemical_formula_structural       In9Rb3S15
_chemical_formula_sum              "In9 Rb3 S15"
_cell_length_a       12.5562
_cell_length_b       3.83467
_cell_length_c       15.5656
_cell_angle_alpha    90
_cell_angle_beta     112.625
_cell_angle_gamma    90

_space_group_name_H-M_alt    "P 1"
_space_group_IT_number       1

loop_
  _space_group_symop_operation_xyz
  'x, y, z'

loop_
  _atom_site_type_symbol
  _atom_site_label
  _atom_site_symmetry_multiplicity
  _atom_site_fract_x
  _atom_site_fract_y
  _atom_site_fract_z
  _atom_site_occupancy
  In  In1       1.0  0.88300  0.00000  0.06990  1.0000
  In  In2       1.0  0.17400  0.50000  0.16500  1.0000
  In  In3       1.0  0.77700  0.50000  0.27200  1.0000
  In  In4       1.0  0.48200  0.00000  0.28700  1.0000
  In  In5       1.0  0.50000  0.50000  0.50000  1.0000
  In  In6       1.0  0.51800  0.00000  0.71300  1.0000
  In  In7       1.0  0.22300  0.50000  0.72800  1.0000
  In  In8       1.0  0.82600  0.50000  0.83500  1.0000
  In  In9       1.0  0.11700  0.00000  0.93000  1.0000
  Rb  Rb1       1.0  0.50000  0.00000  0.00000  1.0000
  Rb  Rb2       1.0  0.13800  0.50000  0.42500  1.0000
  Rb  Rb3       1.0  0.86200  0.50000  0.57500  1.0000
  S   S1        1.0  0.00000  0.50000  0.00000  1.0000
  S   S2        1.0  0.26900  0.00000  0.10200  1.0000
  S   S3        1.0  0.76800  0.50000  0.10700  1.0000
  S   S4        1.0  0.55900  0.50000  0.21200  1.0000
  S   S5        1.0  0.06720  0.00000  0.21800  1.0000
  S   S6        1.0  0.35900  0.50000  0.32000  1.0000
  S   S7        1.0  0.87500  0.00000  0.37200  1.0000
  S   S8        1.0  0.61800  0.00000  0.45900  1.0000
  S   S9        1.0  0.38200  0.00000  0.54100  1.0000
  S   S10       1.0  0.12500  0.00000  0.62800  1.0000
  S   S11       1.0  0.64100  0.50000  0.68000  1.0000
  S   S12       1.0  0.93300  0.00000  0.78200  1.0000
  S   S13       1.0  0.44100  0.50000  0.78800  1.0000
  S   S14       1.0  0.23200  0.50000  0.89300  1.0000
  S   S15       1.0  0.73100  0.00000  0.89800  1.0000
