data_image0
_chemical_formula_structural       C4CsH12O14V
_chemical_formula_sum              "C4 Cs1 H12 O14 V1"
_cell_length_a       5.68518
_cell_length_b       5.68518
_cell_length_c       10.0227
_cell_angle_alpha    97.2606
_cell_angle_beta     82.7394
_cell_angle_gamma    100.579

_space_group_name_H-M_alt    "P 1"
_space_group_IT_number       1

loop_
  _space_group_symop_operation_xyz
  'x, y, z'

loop_
  _atom_site_type_symbol
  _atom_site_label
  _atom_site_symmetry_multiplicity
  _atom_site_fract_x
  _atom_site_fract_y
  _atom_site_fract_z
  _atom_site_occupancy
  C   C1        1.0  0.52900  0.26000  0.23300  1.0000
  C   C2        1.0  0.74000  0.47100  0.23300  1.0000
  C   C3        1.0  0.26000  0.52900  0.76700  1.0000
  C   C4        1.0  0.47100  0.74000  0.76700  1.0000
  Cs  Cs1       1.0  0.00000  0.00000  0.00000  1.0000
  H   H1        1.0  0.16100  0.61800  0.16100  1.0000
  H   H2        1.0  0.38200  0.83900  0.16100  1.0000
  H   H3        1.0  0.10300  0.11800  0.34600  1.0000
  H   H4        1.0  0.88200  0.89700  0.34600  1.0000
  H   H5        1.0  0.28700  0.71300  0.34600  1.0000
  H   H6        1.0  0.80300  0.19700  0.48000  1.0000
  H   H7        1.0  0.19700  0.80300  0.52000  1.0000
  H   H8        1.0  0.71300  0.28700  0.65400  1.0000
  H   H9        1.0  0.11800  0.10300  0.65400  1.0000
  H   H10       1.0  0.89700  0.88200  0.65400  1.0000
  H   H11       1.0  0.61800  0.16100  0.83900  1.0000
  H   H12       1.0  0.83900  0.38200  0.83900  1.0000
  O   O1        1.0  0.50000  0.11900  0.12900  1.0000
  O   O2        1.0  0.88100  0.50000  0.12900  1.0000
  O   O3        1.0  0.31900  0.68100  0.19600  1.0000
  O   O4        1.0  0.39400  0.24300  0.34700  1.0000
  O   O5        1.0  0.75700  0.60600  0.34700  1.0000
  O   O6        1.0  0.92500  0.07500  0.34700  1.0000
  O   O7        1.0  0.29400  0.70600  0.44900  1.0000
  O   O8        1.0  0.70600  0.29400  0.55100  1.0000
  O   O9        1.0  0.07500  0.92500  0.65300  1.0000
  O   O10       1.0  0.24300  0.39400  0.65300  1.0000
  O   O11       1.0  0.60600  0.75700  0.65300  1.0000
  O   O12       1.0  0.68100  0.31900  0.80400  1.0000
  O   O13       1.0  0.11900  0.50000  0.87100  1.0000
  O   O14       1.0  0.50000  0.88100  0.87100  1.0000
  V   V1        1.0  0.50000  0.50000  0.50000  1.0000
