data_image0
_chemical_formula_structural       Cl6O24Pr2
_chemical_formula_sum              "Cl6 O24 Pr2"
_cell_length_a       9.01404
_cell_length_b       9.01392
_cell_length_c       5.84999
_cell_angle_alpha    90
_cell_angle_beta     90
_cell_angle_gamma    120.004

_space_group_name_H-M_alt    "P 1"
_space_group_IT_number       1

loop_
  _space_group_symop_operation_xyz
  'x, y, z'

loop_
  _atom_site_type_symbol
  _atom_site_label
  _atom_site_symmetry_multiplicity
  _atom_site_fract_x
  _atom_site_fract_y
  _atom_site_fract_z
  _atom_site_occupancy
  Cl  Cl1       1.0  0.28300  0.37600  0.25000  1.0000
  Cl  Cl2       1.0  0.09350  0.71700  0.25000  1.0000
  Cl  Cl3       1.0  0.62400  0.90700  0.25000  1.0000
  Cl  Cl4       1.0  0.37600  0.09340  0.75000  1.0000
  Cl  Cl5       1.0  0.90700  0.28300  0.75000  1.0000
  Cl  Cl6       1.0  0.71700  0.62400  0.75000  1.0000
  O   O1        1.0  0.24100  0.44400  0.04870  1.0000
  O   O2        1.0  0.55600  0.79600  0.04870  1.0000
  O   O3        1.0  0.20400  0.75900  0.04870  1.0000
  O   O4        1.0  0.55300  0.02210  0.25000  1.0000
  O   O5        1.0  0.18800  0.19500  0.25000  1.0000
  O   O6        1.0  0.46900  0.44700  0.25000  1.0000
  O   O7        1.0  0.97800  0.53100  0.25000  1.0000
  O   O8        1.0  0.00689  0.81200  0.25000  1.0000
  O   O9        1.0  0.80500  0.99300  0.25000  1.0000
  O   O10       1.0  0.20400  0.75900  0.45100  1.0000
  O   O11       1.0  0.55600  0.79600  0.45100  1.0000
  O   O12       1.0  0.24100  0.44400  0.45100  1.0000
  O   O13       1.0  0.75900  0.55600  0.54900  1.0000
  O   O14       1.0  0.44400  0.20400  0.54900  1.0000
  O   O15       1.0  0.79600  0.24100  0.54900  1.0000
  O   O16       1.0  0.19500  0.00688  0.75000  1.0000
  O   O17       1.0  0.99300  0.18800  0.75000  1.0000
  O   O18       1.0  0.02210  0.46900  0.75000  1.0000
  O   O19       1.0  0.53100  0.55300  0.75000  1.0000
  O   O20       1.0  0.81200  0.80500  0.75000  1.0000
  O   O21       1.0  0.44700  0.97800  0.75000  1.0000
  O   O22       1.0  0.79600  0.24100  0.95100  1.0000
  O   O23       1.0  0.44400  0.20400  0.95100  1.0000
  O   O24       1.0  0.75900  0.55600  0.95100  1.0000
  Pr  Pr1       1.0  0.66700  0.33300  0.25000  1.0000
  Pr  Pr2       1.0  0.33300  0.66700  0.75000  1.0000
