data_image0
_chemical_formula_structural       Cl4H4O12Pb12
_chemical_formula_sum              "Cl4 H4 O12 Pb12"
_cell_length_a       5.84504
_cell_length_b       6.84224
_cell_length_c       15.2347
_cell_angle_alpha    90
_cell_angle_beta     90
_cell_angle_gamma    90

_space_group_name_H-M_alt    "P 1"
_space_group_IT_number       1

loop_
  _space_group_symop_operation_xyz
  'x, y, z'

loop_
  _atom_site_type_symbol
  _atom_site_label
  _atom_site_symmetry_multiplicity
  _atom_site_fract_x
  _atom_site_fract_y
  _atom_site_fract_z
  _atom_site_occupancy
  Cl  Cl1       1.0  0.00000  0.97200  0.05970  1.0000
  Cl  Cl2       1.0  0.50000  0.94500  0.36400  1.0000
  Cl  Cl3       1.0  0.00000  0.02810  0.56000  1.0000
  Cl  Cl4       1.0  0.50000  0.05460  0.86400  1.0000
  H   H1        1.0  0.50000  0.78900  0.23000  1.0000
  H   H2        1.0  0.00000  0.20400  0.44400  1.0000
  H   H3        1.0  0.50000  0.21100  0.73000  1.0000
  H   H4        1.0  0.00000  0.79600  0.94400  1.0000
  O   O1        1.0  0.24900  0.45800  0.04160  1.0000
  O   O2        1.0  0.75100  0.45800  0.04160  1.0000
  O   O3        1.0  0.50000  0.67000  0.19300  1.0000
  O   O4        1.0  0.25000  0.28200  0.21300  1.0000
  O   O5        1.0  0.75000  0.28200  0.21300  1.0000
  O   O6        1.0  0.00000  0.28700  0.39000  1.0000
  O   O7        1.0  0.24900  0.54200  0.54200  1.0000
  O   O8        1.0  0.75100  0.54200  0.54200  1.0000
  O   O9        1.0  0.50000  0.33000  0.69300  1.0000
  O   O10       1.0  0.25000  0.71800  0.71300  1.0000
  O   O11       1.0  0.75000  0.71800  0.71300  1.0000
  O   O12       1.0  0.00000  0.71300  0.89000  1.0000
  Pb  Pb1       1.0  0.50000  0.71400  0.03720  1.0000
  Pb  Pb2       1.0  0.50000  0.20300  0.09170  1.0000
  Pb  Pb3       1.0  0.00000  0.53700  0.16300  1.0000
  Pb  Pb4       1.0  0.00000  0.06450  0.27300  1.0000
  Pb  Pb5       1.0  0.50000  0.41500  0.30400  1.0000
  Pb  Pb6       1.0  0.00000  0.61900  0.43600  1.0000
  Pb  Pb7       1.0  0.50000  0.28600  0.53700  1.0000
  Pb  Pb8       1.0  0.50000  0.79700  0.59200  1.0000
  Pb  Pb9       1.0  0.00000  0.46300  0.66300  1.0000
  Pb  Pb10      1.0  0.00000  0.93500  0.77300  1.0000
  Pb  Pb11      1.0  0.50000  0.58500  0.80400  1.0000
  Pb  Pb12      1.0  0.00000  0.38100  0.93600  1.0000
