data_image0
_chemical_formula_structural       As4Hg12S12Sb4
_chemical_formula_sum              "As4 Hg12 S12 Sb4"
_cell_length_a       11.9576
_cell_length_b       4.51915
_cell_length_c       16.1385
_cell_angle_alpha    90
_cell_angle_beta     91.804
_cell_angle_gamma    90

_space_group_name_H-M_alt    "P 1"
_space_group_IT_number       1

loop_
  _space_group_symop_operation_xyz
  'x, y, z'

loop_
  _atom_site_type_symbol
  _atom_site_label
  _atom_site_symmetry_multiplicity
  _atom_site_fract_x
  _atom_site_fract_y
  _atom_site_fract_z
  _atom_site_occupancy
  As  As1       1.0  0.09200  0.86200  0.19300  1.0000
  As  As2       1.0  0.40800  0.36200  0.30700  1.0000
  As  As3       1.0  0.59200  0.63800  0.69300  1.0000
  As  As4       1.0  0.90800  0.13800  0.80700  1.0000
  Hg  Hg1       1.0  0.13500  0.23200  0.07750  1.0000
  Hg  Hg2       1.0  0.87900  0.88600  0.17700  1.0000
  Hg  Hg3       1.0  0.39700  0.72400  0.18700  1.0000
  Hg  Hg4       1.0  0.10300  0.22400  0.31300  1.0000
  Hg  Hg5       1.0  0.62100  0.38600  0.32300  1.0000
  Hg  Hg6       1.0  0.36500  0.73200  0.42200  1.0000
  Hg  Hg7       1.0  0.63500  0.26800  0.57800  1.0000
  Hg  Hg8       1.0  0.37900  0.61400  0.67700  1.0000
  Hg  Hg9       1.0  0.89700  0.77600  0.68700  1.0000
  Hg  Hg10      1.0  0.60300  0.27600  0.81300  1.0000
  Hg  Hg11      1.0  0.12100  0.11400  0.82300  1.0000
  Hg  Hg12      1.0  0.86500  0.76800  0.92200  1.0000
  S   S1        1.0  0.85000  0.39400  0.03270  1.0000
  S   S2        1.0  0.38100  0.06300  0.06950  1.0000
  S   S3        1.0  0.67500  0.96000  0.16400  1.0000
  S   S4        1.0  0.82500  0.46000  0.33600  1.0000
  S   S5        1.0  0.11900  0.56300  0.43000  1.0000
  S   S6        1.0  0.65000  0.89400  0.46700  1.0000
  S   S7        1.0  0.35000  0.10600  0.53300  1.0000
  S   S8        1.0  0.88100  0.43700  0.57000  1.0000
  S   S9        1.0  0.17500  0.54000  0.66400  1.0000
  S   S10       1.0  0.32500  0.03970  0.83600  1.0000
  S   S11       1.0  0.61900  0.93700  0.93000  1.0000
  S   S12       1.0  0.15000  0.60600  0.96700  1.0000
  Sb  Sb1       1.0  0.64500  0.31300  0.04790  1.0000
  Sb  Sb2       1.0  0.85500  0.81300  0.45200  1.0000
  Sb  Sb3       1.0  0.14500  0.18700  0.54800  1.0000
  Sb  Sb4       1.0  0.35500  0.68700  0.95200  1.0000
