data_image0
_chemical_formula_structural       Al2F18H4O2Pb6
_chemical_formula_sum              "Al2 F18 H4 O2 Pb6"
_cell_length_a       5.56808
_cell_length_b       5.77812
_cell_length_c       12.4669
_cell_angle_alpha    98.5781
_cell_angle_beta     94.2212
_cell_angle_gamma    90.8712

_space_group_name_H-M_alt    "P 1"
_space_group_IT_number       1

loop_
  _space_group_symop_operation_xyz
  'x, y, z'

loop_
  _atom_site_type_symbol
  _atom_site_label
  _atom_site_symmetry_multiplicity
  _atom_site_fract_x
  _atom_site_fract_y
  _atom_site_fract_z
  _atom_site_occupancy
  Al  Al1       1.0  0.79700  0.61700  0.30900  1.0000
  Al  Al2       1.0  0.20300  0.38300  0.69100  1.0000
  F   F1        1.0  0.99900  0.75100  0.00839  1.0000
  F   F2        1.0  0.49900  0.75900  0.01080  1.0000
  F   F3        1.0  0.73600  0.50800  0.16300  1.0000
  F   F4        1.0  0.30100  0.11900  0.17000  1.0000
  F   F5        1.0  0.05930  0.76900  0.27200  1.0000
  F   F6        1.0  0.62600  0.87600  0.28800  1.0000
  F   F7        1.0  0.95000  0.34800  0.31700  1.0000
  F   F8        1.0  0.50900  0.48600  0.33400  1.0000
  F   F9        1.0  0.86600  0.72200  0.45100  1.0000
  F   F10       1.0  0.13400  0.27800  0.54900  1.0000
  F   F11       1.0  0.49100  0.51400  0.66600  1.0000
  F   F12       1.0  0.05020  0.65200  0.68300  1.0000
  F   F13       1.0  0.37400  0.12400  0.71200  1.0000
  F   F14       1.0  0.94100  0.23100  0.72800  1.0000
  F   F15       1.0  0.69900  0.88100  0.83000  1.0000
  F   F16       1.0  0.26400  0.49200  0.83700  1.0000
  F   F17       1.0  0.50100  0.24100  0.98900  1.0000
  F   F18       1.0  0.00113  0.24900  0.99200  1.0000
  H   H1        1.0  0.39200  0.65200  0.43100  1.0000
  H   H2        1.0  0.16200  0.73500  0.49200  1.0000
  H   H3        1.0  0.83800  0.26500  0.50800  1.0000
  H   H4        1.0  0.60800  0.34800  0.56900  1.0000
  O   O1        1.0  0.33500  0.77300  0.48800  1.0000
  O   O2        1.0  0.66500  0.22700  0.51200  1.0000
  Pb  Pb1       1.0  0.27400  0.51400  0.11900  1.0000
  Pb  Pb2       1.0  0.76800  0.05190  0.12000  1.0000
  Pb  Pb3       1.0  0.30700  0.11500  0.36700  1.0000
  Pb  Pb4       1.0  0.69300  0.88500  0.63300  1.0000
  Pb  Pb5       1.0  0.23200  0.94800  0.88000  1.0000
  Pb  Pb6       1.0  0.72600  0.48600  0.88100  1.0000
