data_image0
_chemical_formula_structural       C6Cs4O18Sr4
_chemical_formula_sum              "C6 Cs4 O18 Sr4"
_cell_length_a       8.65194
_cell_length_b       8.65194
_cell_length_c       8.65194
_cell_angle_alpha    109.471
_cell_angle_beta     109.471
_cell_angle_gamma    109.471

_space_group_name_H-M_alt    "P 1"
_space_group_IT_number       1

loop_
  _space_group_symop_operation_xyz
  'x, y, z'

loop_
  _atom_site_type_symbol
  _atom_site_label
  _atom_site_symmetry_multiplicity
  _atom_site_fract_x
  _atom_site_fract_y
  _atom_site_fract_z
  _atom_site_occupancy
  C   C1        1.0  0.40600  0.75000  0.15600  1.0000
  C   C2        1.0  0.65600  0.40600  0.25000  1.0000
  C   C3        1.0  0.09400  0.25000  0.34400  1.0000
  C   C4        1.0  0.25000  0.84400  0.59400  1.0000
  C   C5        1.0  0.84400  0.09400  0.75000  1.0000
  C   C6        1.0  0.75000  0.65600  0.90600  1.0000
  Cs  Cs1       1.0  0.11200  0.00000  0.00000  1.0000
  Cs  Cs2       1.0  0.50000  0.11200  0.50000  1.0000
  Cs  Cs3       1.0  0.00000  0.50000  0.61200  1.0000
  Cs  Cs4       1.0  0.38800  0.38800  0.88800  1.0000
  O   O1        1.0  0.27500  0.75000  0.02530  1.0000
  O   O2        1.0  0.86300  0.72000  0.08260  1.0000
  O   O3        1.0  0.72000  0.35700  0.13700  1.0000
  O   O4        1.0  0.35700  0.63700  0.22000  1.0000
  O   O5        1.0  0.58300  0.86300  0.22000  1.0000
  O   O6        1.0  0.52500  0.27500  0.25000  1.0000
  O   O7        1.0  0.14300  0.36300  0.28000  1.0000
  O   O8        1.0  0.91700  0.13700  0.28000  1.0000
  O   O9        1.0  0.72000  0.58300  0.36300  1.0000
  O   O10       1.0  0.13700  0.78000  0.41700  1.0000
  O   O11       1.0  0.22500  0.25000  0.47500  1.0000
  O   O12       1.0  0.78000  0.91700  0.63700  1.0000
  O   O13       1.0  0.36300  0.78000  0.64300  1.0000
  O   O14       1.0  0.25000  0.97500  0.72500  1.0000
  O   O15       1.0  0.97500  0.22500  0.75000  1.0000
  O   O16       1.0  0.75000  0.52500  0.77500  1.0000
  O   O17       1.0  0.63700  0.72000  0.85700  1.0000
  O   O18       1.0  0.78000  0.14300  0.86300  1.0000
  Sr  Sr1       1.0  0.58900  0.00000  0.00000  1.0000
  Sr  Sr2       1.0  0.00000  0.50000  0.08910  1.0000
  Sr  Sr3       1.0  0.91100  0.91100  0.41100  1.0000
  Sr  Sr4       1.0  0.50000  0.58900  0.50000  1.0000
