data_image0
_chemical_formula_structural       Gd8O20Ti4
_chemical_formula_sum              "Gd8 O20 Ti4"
_cell_length_a       10.4466
_cell_length_b       11.2895
_cell_length_c       3.72219
_cell_angle_alpha    90
_cell_angle_beta     90
_cell_angle_gamma    90

_space_group_name_H-M_alt    "P 1"
_space_group_IT_number       1

loop_
  _space_group_symop_operation_xyz
  'x, y, z'

loop_
  _atom_site_type_symbol
  _atom_site_label
  _atom_site_symmetry_multiplicity
  _atom_site_fract_x
  _atom_site_fract_y
  _atom_site_fract_z
  _atom_site_occupancy
  Gd  Gd1       1.0  0.13600  0.05670  0.25000  1.0000
  Gd  Gd2       1.0  0.63600  0.44300  0.25000  1.0000
  Gd  Gd3       1.0  0.11300  0.72300  0.25000  1.0000
  Gd  Gd4       1.0  0.61300  0.77700  0.25000  1.0000
  Gd  Gd5       1.0  0.38700  0.22300  0.75000  1.0000
  Gd  Gd6       1.0  0.88700  0.27700  0.75000  1.0000
  Gd  Gd7       1.0  0.36400  0.55700  0.75000  1.0000
  Gd  Gd8       1.0  0.86400  0.94300  0.75000  1.0000
  O   O1        1.0  0.50700  0.15400  0.25000  1.0000
  O   O2        1.0  0.25800  0.22900  0.25000  1.0000
  O   O3        1.0  0.75800  0.27100  0.25000  1.0000
  O   O4        1.0  0.00745  0.34600  0.25000  1.0000
  O   O5        1.0  0.22400  0.54300  0.25000  1.0000
  O   O6        1.0  0.49300  0.60500  0.25000  1.0000
  O   O7        1.0  0.76200  0.61700  0.25000  1.0000
  O   O8        1.0  0.26200  0.88300  0.25000  1.0000
  O   O9        1.0  0.99300  0.89500  0.25000  1.0000
  O   O10       1.0  0.72400  0.95700  0.25000  1.0000
  O   O11       1.0  0.27600  0.04300  0.75000  1.0000
  O   O12       1.0  0.00749  0.10500  0.75000  1.0000
  O   O13       1.0  0.73800  0.11700  0.75000  1.0000
  O   O14       1.0  0.23800  0.38300  0.75000  1.0000
  O   O15       1.0  0.50700  0.39500  0.75000  1.0000
  O   O16       1.0  0.77600  0.45700  0.75000  1.0000
  O   O17       1.0  0.99300  0.65400  0.75000  1.0000
  O   O18       1.0  0.24200  0.72900  0.75000  1.0000
  O   O19       1.0  0.74200  0.77100  0.75000  1.0000
  O   O20       1.0  0.49300  0.84600  0.75000  1.0000
  Ti  Ti1       1.0  0.67600  0.11900  0.25000  1.0000
  Ti  Ti2       1.0  0.17600  0.38100  0.25000  1.0000
  Ti  Ti3       1.0  0.82400  0.61900  0.75000  1.0000
  Ti  Ti4       1.0  0.32400  0.88100  0.75000  1.0000
