data_image0
_chemical_formula_structural       Ga12Gd20
_chemical_formula_sum              "Ga12 Gd20"
_cell_length_a       7.67638
_cell_length_b       7.67638
_cell_length_c       14.328
_cell_angle_alpha    90
_cell_angle_beta     90
_cell_angle_gamma    90

_space_group_name_H-M_alt    "P 1"
_space_group_IT_number       1

loop_
  _space_group_symop_operation_xyz
  'x, y, z'

loop_
  _atom_site_type_symbol
  _atom_site_label
  _atom_site_symmetry_multiplicity
  _atom_site_fract_x
  _atom_site_fract_y
  _atom_site_fract_z
  _atom_site_occupancy
  Ga  Ga1       1.0  0.50000  0.00000  0.00730  1.0000
  Ga  Ga2       1.0  0.87900  0.12100  0.25000  1.0000
  Ga  Ga3       1.0  0.37900  0.37900  0.25000  1.0000
  Ga  Ga4       1.0  0.62100  0.62100  0.25000  1.0000
  Ga  Ga5       1.0  0.12100  0.87900  0.25000  1.0000
  Ga  Ga6       1.0  0.00000  0.50000  0.49300  1.0000
  Ga  Ga7       1.0  0.50000  0.00000  0.50700  1.0000
  Ga  Ga8       1.0  0.12100  0.12100  0.75000  1.0000
  Ga  Ga9       1.0  0.62100  0.37900  0.75000  1.0000
  Ga  Ga10      1.0  0.37900  0.62100  0.75000  1.0000
  Ga  Ga11      1.0  0.87900  0.87900  0.75000  1.0000
  Ga  Ga12      1.0  0.00000  0.50000  0.99300  1.0000
  Gd  Gd1       1.0  0.15700  0.18400  0.10300  1.0000
  Gd  Gd2       1.0  0.68400  0.34300  0.10300  1.0000
  Gd  Gd3       1.0  0.31600  0.65700  0.10300  1.0000
  Gd  Gd4       1.0  0.84300  0.81600  0.10300  1.0000
  Gd  Gd5       1.0  0.50000  0.00000  0.22500  1.0000
  Gd  Gd6       1.0  0.00000  0.50000  0.27500  1.0000
  Gd  Gd7       1.0  0.18400  0.15700  0.39700  1.0000
  Gd  Gd8       1.0  0.65700  0.31600  0.39700  1.0000
  Gd  Gd9       1.0  0.34300  0.68400  0.39700  1.0000
  Gd  Gd10      1.0  0.81600  0.84300  0.39700  1.0000
  Gd  Gd11      1.0  0.84300  0.18400  0.60300  1.0000
  Gd  Gd12      1.0  0.31600  0.34300  0.60300  1.0000
  Gd  Gd13      1.0  0.68400  0.65700  0.60300  1.0000
  Gd  Gd14      1.0  0.15700  0.81600  0.60300  1.0000
  Gd  Gd15      1.0  0.50000  0.00000  0.72500  1.0000
  Gd  Gd16      1.0  0.00000  0.50000  0.77500  1.0000
  Gd  Gd17      1.0  0.81600  0.15700  0.89700  1.0000
  Gd  Gd18      1.0  0.34300  0.31600  0.89700  1.0000
  Gd  Gd19      1.0  0.65700  0.68400  0.89700  1.0000
  Gd  Gd20      1.0  0.18400  0.84300  0.89700  1.0000
