data_image0
_chemical_formula_structural       K12S16V4
_chemical_formula_sum              "K12 S16 V4"
_cell_length_a       10.6249
_cell_length_b       9.27422
_cell_length_c       9.17483
_cell_angle_alpha    90
_cell_angle_beta     90
_cell_angle_gamma    90

_space_group_name_H-M_alt    "P 1"
_space_group_IT_number       1

loop_
  _space_group_symop_operation_xyz
  'x, y, z'

loop_
  _atom_site_type_symbol
  _atom_site_label
  _atom_site_symmetry_multiplicity
  _atom_site_fract_x
  _atom_site_fract_y
  _atom_site_fract_z
  _atom_site_occupancy
  K   K1        1.0  0.54400  0.20800  0.05060  1.0000
  K   K2        1.0  0.95600  0.20800  0.05060  1.0000
  K   K3        1.0  0.25000  0.41800  0.13800  1.0000
  K   K4        1.0  0.75000  0.91800  0.36200  1.0000
  K   K5        1.0  0.04400  0.70800  0.44900  1.0000
  K   K6        1.0  0.45600  0.70800  0.44900  1.0000
  K   K7        1.0  0.54400  0.29200  0.55100  1.0000
  K   K8        1.0  0.95600  0.29200  0.55100  1.0000
  K   K9        1.0  0.25000  0.08210  0.63800  1.0000
  K   K10       1.0  0.75000  0.58200  0.86200  1.0000
  K   K11       1.0  0.04400  0.79200  0.94900  1.0000
  K   K12       1.0  0.45600  0.79200  0.94900  1.0000
  S   S1        1.0  0.75000  0.92300  0.00026  1.0000
  S   S2        1.0  0.58200  0.54900  0.16800  1.0000
  S   S3        1.0  0.91800  0.54900  0.16800  1.0000
  S   S4        1.0  0.25000  0.75200  0.20000  1.0000
  S   S5        1.0  0.75000  0.25200  0.30000  1.0000
  S   S6        1.0  0.08240  0.04940  0.33200  1.0000
  S   S7        1.0  0.41800  0.04940  0.33200  1.0000
  S   S8        1.0  0.25000  0.42300  0.50000  1.0000
  S   S9        1.0  0.75000  0.57700  0.50000  1.0000
  S   S10       1.0  0.58200  0.95100  0.66800  1.0000
  S   S11       1.0  0.91800  0.95100  0.66800  1.0000
  S   S12       1.0  0.25000  0.74800  0.70000  1.0000
  S   S13       1.0  0.75000  0.24800  0.80000  1.0000
  S   S14       1.0  0.08240  0.45100  0.83200  1.0000
  S   S15       1.0  0.41800  0.45100  0.83200  1.0000
  S   S16       1.0  0.25000  0.07710  0.00000  1.0000
  V   V1        1.0  0.25000  0.98400  0.21700  1.0000
  V   V2        1.0  0.75000  0.48400  0.28300  1.0000
  V   V3        1.0  0.25000  0.51600  0.71700  1.0000
  V   V4        1.0  0.75000  0.01590  0.78300  1.0000
