data_image0
_chemical_formula_structural       Cl10O12Si4Y6
_chemical_formula_sum              "Cl10 O12 Si4 Y6"
_cell_length_a       7.41728
_cell_length_b       7.41728
_cell_length_c       11.5934
_cell_angle_alpha    99.4763
_cell_angle_beta     80.5237
_cell_angle_gamma    91.6069

_space_group_name_H-M_alt    "P 1"
_space_group_IT_number       1

loop_
  _space_group_symop_operation_xyz
  'x, y, z'

loop_
  _atom_site_type_symbol
  _atom_site_label
  _atom_site_symmetry_multiplicity
  _atom_site_fract_x
  _atom_site_fract_y
  _atom_site_fract_z
  _atom_site_occupancy
  Cl  Cl1       1.0  0.68300  0.31700  0.00126  1.0000
  Cl  Cl2       1.0  0.21800  0.78200  0.33900  1.0000
  Cl  Cl3       1.0  0.61900  0.38100  0.35700  1.0000
  Cl  Cl4       1.0  0.11700  0.32900  0.42100  1.0000
  Cl  Cl5       1.0  0.67100  0.88300  0.42100  1.0000
  Cl  Cl6       1.0  0.32900  0.11700  0.57900  1.0000
  Cl  Cl7       1.0  0.88300  0.67100  0.57900  1.0000
  Cl  Cl8       1.0  0.38100  0.61900  0.64300  1.0000
  Cl  Cl9       1.0  0.78200  0.21800  0.66100  1.0000
  Cl  Cl10      1.0  0.31700  0.68300  0.99900  1.0000
  O   O1        1.0  0.14000  0.14000  0.00000  1.0000
  O   O2        1.0  0.86000  0.86000  0.00000  1.0000
  O   O3        1.0  0.04540  0.39500  0.17300  1.0000
  O   O4        1.0  0.60500  0.95500  0.17300  1.0000
  O   O5        1.0  0.30900  0.13400  0.17300  1.0000
  O   O6        1.0  0.86600  0.69100  0.17300  1.0000
  O   O7        1.0  0.95200  0.04760  0.19900  1.0000
  O   O8        1.0  0.04760  0.95200  0.80100  1.0000
  O   O9        1.0  0.13400  0.30900  0.82700  1.0000
  O   O10       1.0  0.69100  0.86600  0.82700  1.0000
  O   O11       1.0  0.39500  0.04540  0.82700  1.0000
  O   O12       1.0  0.95500  0.60500  0.82700  1.0000
  Si  Si1       1.0  0.11000  0.18300  0.14600  1.0000
  Si  Si2       1.0  0.81700  0.89000  0.14600  1.0000
  Si  Si3       1.0  0.18300  0.11000  0.85400  1.0000
  Si  Si4       1.0  0.89000  0.81700  0.85400  1.0000
  Y   Y1        1.0  0.50000  0.00000  0.00000  1.0000
  Y   Y2        1.0  0.00000  0.50000  0.00000  1.0000
  Y   Y3        1.0  0.41600  0.08330  0.33200  1.0000
  Y   Y4        1.0  0.91700  0.58400  0.33200  1.0000
  Y   Y5        1.0  0.08330  0.41600  0.66800  1.0000
  Y   Y6        1.0  0.58400  0.91700  0.66800  1.0000
