data_image0
_chemical_formula_structural       La8O20Si4
_chemical_formula_sum              "La8 O20 Si4"
_cell_length_a       9.28477
_cell_length_b       7.4614
_cell_length_c       7.0094
_cell_angle_alpha    90
_cell_angle_beta     108.46
_cell_angle_gamma    90

_space_group_name_H-M_alt    "P 1"
_space_group_IT_number       1

loop_
  _space_group_symop_operation_xyz
  'x, y, z'

loop_
  _atom_site_type_symbol
  _atom_site_label
  _atom_site_symmetry_multiplicity
  _atom_site_fract_x
  _atom_site_fract_y
  _atom_site_fract_z
  _atom_site_occupancy
  La  La1       1.0  0.89000  0.65500  0.09280  1.0000
  La  La2       1.0  0.51400  0.62300  0.23500  1.0000
  La  La3       1.0  0.48600  0.12300  0.26500  1.0000
  La  La4       1.0  0.11000  0.15500  0.40700  1.0000
  La  La5       1.0  0.89000  0.84500  0.59300  1.0000
  La  La6       1.0  0.51400  0.87700  0.73500  1.0000
  La  La7       1.0  0.48600  0.37700  0.76500  1.0000
  La  La8       1.0  0.11000  0.34500  0.90700  1.0000
  O   O1        1.0  0.38200  0.86500  0.00826  1.0000
  O   O2        1.0  0.38700  0.37200  0.04670  1.0000
  O   O3        1.0  0.90700  0.25500  0.05900  1.0000
  O   O4        1.0  0.20400  0.06710  0.13500  1.0000
  O   O5        1.0  0.13800  0.46400  0.24900  1.0000
  O   O6        1.0  0.86200  0.96400  0.25100  1.0000
  O   O7        1.0  0.79600  0.56700  0.36500  1.0000
  O   O8        1.0  0.09280  0.75500  0.44100  1.0000
  O   O9        1.0  0.61300  0.87200  0.45300  1.0000
  O   O10       1.0  0.61800  0.36500  0.49200  1.0000
  O   O11       1.0  0.38200  0.63500  0.50800  1.0000
  O   O12       1.0  0.38700  0.12800  0.54700  1.0000
  O   O13       1.0  0.90700  0.24500  0.55900  1.0000
  O   O14       1.0  0.20400  0.43300  0.63500  1.0000
  O   O15       1.0  0.13800  0.03640  0.74900  1.0000
  O   O16       1.0  0.86200  0.53600  0.75100  1.0000
  O   O17       1.0  0.79600  0.93300  0.86500  1.0000
  O   O18       1.0  0.09280  0.74500  0.94100  1.0000
  O   O19       1.0  0.61300  0.62800  0.95300  1.0000
  O   O20       1.0  0.61800  0.13500  0.99200  1.0000
  Si  Si1       1.0  0.79900  0.08180  0.04240  1.0000
  Si  Si2       1.0  0.20100  0.58200  0.45800  1.0000
  Si  Si3       1.0  0.79900  0.41800  0.54200  1.0000
  Si  Si4       1.0  0.20100  0.91800  0.95800  1.0000
