data_image0
_chemical_formula_structural       Cl4Re12S16
_chemical_formula_sum              "Cl4 Re12 S16"
_cell_length_a       6.41815
_cell_length_b       11.4269
_cell_length_c       10.0279
_cell_angle_alpha    90
_cell_angle_beta     100.522
_cell_angle_gamma    90

_space_group_name_H-M_alt    "P 1"
_space_group_IT_number       1

loop_
  _space_group_symop_operation_xyz
  'x, y, z'

loop_
  _atom_site_type_symbol
  _atom_site_label
  _atom_site_symmetry_multiplicity
  _atom_site_fract_x
  _atom_site_fract_y
  _atom_site_fract_z
  _atom_site_occupancy
  Cl  Cl1       1.0  0.20900  0.35400  0.11300  1.0000
  Cl  Cl2       1.0  0.29100  0.85400  0.38700  1.0000
  Cl  Cl3       1.0  0.70900  0.14600  0.61300  1.0000
  Cl  Cl4       1.0  0.79100  0.64600  0.88700  1.0000
  Re  Re1       1.0  0.09250  0.14700  0.06160  1.0000
  Re  Re2       1.0  0.75400  0.02200  0.06540  1.0000
  Re  Re3       1.0  0.12500  0.93400  0.16300  1.0000
  Re  Re4       1.0  0.37500  0.43400  0.33700  1.0000
  Re  Re5       1.0  0.74600  0.52200  0.43500  1.0000
  Re  Re6       1.0  0.40700  0.64700  0.43800  1.0000
  Re  Re7       1.0  0.59300  0.35300  0.56200  1.0000
  Re  Re8       1.0  0.25400  0.47800  0.56500  1.0000
  Re  Re9       1.0  0.62500  0.56600  0.66300  1.0000
  Re  Re10      1.0  0.87500  0.06640  0.83700  1.0000
  Re  Re11      1.0  0.24600  0.97800  0.93500  1.0000
  Re  Re12      1.0  0.90700  0.85300  0.93800  1.0000
  S   S1        1.0  0.25600  0.78500  0.02980  1.0000
  S   S2        1.0  0.80300  0.82700  0.15600  1.0000
  S   S3        1.0  0.42700  0.05920  0.16200  1.0000
  S   S4        1.0  0.53000  0.59300  0.23200  1.0000
  S   S5        1.0  0.97000  0.09350  0.26800  1.0000
  S   S6        1.0  0.07260  0.55900  0.33800  1.0000
  S   S7        1.0  0.69700  0.32700  0.34400  1.0000
  S   S8        1.0  0.24400  0.28500  0.47000  1.0000
  S   S9        1.0  0.75600  0.71500  0.53000  1.0000
  S   S10       1.0  0.30300  0.67300  0.65600  1.0000
  S   S11       1.0  0.92700  0.44100  0.66200  1.0000
  S   S12       1.0  0.03000  0.90700  0.73200  1.0000
  S   S13       1.0  0.47000  0.40700  0.76800  1.0000
  S   S14       1.0  0.57300  0.94100  0.83800  1.0000
  S   S15       1.0  0.19700  0.17300  0.84400  1.0000
  S   S16       1.0  0.74400  0.21500  0.97000  1.0000
