data_image0
_chemical_formula_structural       Cl6Nd2O24
_chemical_formula_sum              "Cl6 Nd2 O24"
_cell_length_a       9.05392
_cell_length_b       9.05359
_cell_length_c       5.80058
_cell_angle_alpha    90
_cell_angle_beta     90
_cell_angle_gamma    120

_space_group_name_H-M_alt    "P 1"
_space_group_IT_number       1

loop_
  _space_group_symop_operation_xyz
  'x, y, z'

loop_
  _atom_site_type_symbol
  _atom_site_label
  _atom_site_symmetry_multiplicity
  _atom_site_fract_x
  _atom_site_fract_y
  _atom_site_fract_z
  _atom_site_occupancy
  Cl  Cl1       1.0  0.71500  0.09300  0.25000  1.0000
  Cl  Cl2       1.0  0.37800  0.28500  0.25000  1.0000
  Cl  Cl3       1.0  0.90700  0.62200  0.25000  1.0000
  Cl  Cl4       1.0  0.09290  0.37800  0.75000  1.0000
  Cl  Cl5       1.0  0.62200  0.71500  0.75000  1.0000
  Cl  Cl6       1.0  0.28500  0.90700  0.75000  1.0000
  Nd  Nd1       1.0  0.33300  0.66700  0.25000  1.0000
  Nd  Nd2       1.0  0.66700  0.33300  0.75000  1.0000
  O   O1        1.0  0.79700  0.55300  0.04720  1.0000
  O   O2        1.0  0.75600  0.20300  0.04720  1.0000
  O   O3        1.0  0.44700  0.24400  0.04720  1.0000
  O   O4        1.0  0.81100  0.00869  0.25000  1.0000
  O   O5        1.0  0.19800  0.18900  0.25000  1.0000
  O   O6        1.0  0.44700  0.47100  0.25000  1.0000
  O   O7        1.0  0.02350  0.55300  0.25000  1.0000
  O   O8        1.0  0.99100  0.80200  0.25000  1.0000
  O   O9        1.0  0.52900  0.97700  0.25000  1.0000
  O   O10       1.0  0.44700  0.24400  0.45300  1.0000
  O   O11       1.0  0.75600  0.20300  0.45300  1.0000
  O   O12       1.0  0.79700  0.55300  0.45300  1.0000
  O   O13       1.0  0.20300  0.44700  0.54700  1.0000
  O   O14       1.0  0.24400  0.79700  0.54700  1.0000
  O   O15       1.0  0.55300  0.75600  0.54700  1.0000
  O   O16       1.0  0.47100  0.02350  0.75000  1.0000
  O   O17       1.0  0.00869  0.19800  0.75000  1.0000
  O   O18       1.0  0.97700  0.44700  0.75000  1.0000
  O   O19       1.0  0.55300  0.52900  0.75000  1.0000
  O   O20       1.0  0.80200  0.81100  0.75000  1.0000
  O   O21       1.0  0.18900  0.99100  0.75000  1.0000
  O   O22       1.0  0.55300  0.75600  0.95300  1.0000
  O   O23       1.0  0.24400  0.79700  0.95300  1.0000
  O   O24       1.0  0.20300  0.44700  0.95300  1.0000
