data_image0
_chemical_formula_structural       H8Ni8Ti16
_chemical_formula_sum              "H8 Ni8 Ti16"
_cell_length_a       8.02684
_cell_length_b       8.02684
_cell_length_c       8.02684
_cell_angle_alpha    120
_cell_angle_beta     90
_cell_angle_gamma    120

_space_group_name_H-M_alt    "P 1"
_space_group_IT_number       1

loop_
  _space_group_symop_operation_xyz
  'x, y, z'

loop_
  _atom_site_type_symbol
  _atom_site_label
  _atom_site_symmetry_multiplicity
  _atom_site_fract_x
  _atom_site_fract_y
  _atom_site_fract_z
  _atom_site_occupancy
  H   H1        1.0  0.50000  0.00000  0.00000  1.0000
  H   H2        1.0  0.87500  0.75000  0.12500  1.0000
  H   H3        1.0  0.62500  0.25000  0.37500  1.0000
  H   H4        1.0  0.00000  0.50000  0.50000  1.0000
  H   H5        1.0  0.50000  0.50000  0.50000  1.0000
  H   H6        1.0  0.50000  0.00000  0.50000  1.0000
  H   H7        1.0  0.37500  0.75000  0.62500  1.0000
  H   H8        1.0  0.12500  0.25000  0.87500  1.0000
  Ni  Ni1       1.0  0.21500  0.43000  0.14500  1.0000
  Ni  Ni2       1.0  0.78500  0.57000  0.21500  1.0000
  Ni  Ni3       1.0  0.14500  0.93000  0.21500  1.0000
  Ni  Ni4       1.0  0.78500  0.93000  0.21500  1.0000
  Ni  Ni5       1.0  0.21500  0.43000  0.78500  1.0000
  Ni  Ni6       1.0  0.85500  0.07020  0.78500  1.0000
  Ni  Ni7       1.0  0.21500  0.07020  0.78500  1.0000
  Ni  Ni8       1.0  0.78500  0.57000  0.85500  1.0000
  Ti  Ti1       1.0  0.00000  0.00000  0.00000  1.0000
  Ti  Ti2       1.0  0.00000  0.50000  0.00000  1.0000
  Ti  Ti3       1.0  0.50000  0.50000  0.00000  1.0000
  Ti  Ti4       1.0  0.43500  0.87000  0.18500  1.0000
  Ti  Ti5       1.0  0.43500  0.25000  0.18500  1.0000
  Ti  Ti6       1.0  0.81500  0.25000  0.18500  1.0000
  Ti  Ti7       1.0  0.18500  0.75000  0.43500  1.0000
  Ti  Ti8       1.0  0.56500  0.75000  0.43500  1.0000
  Ti  Ti9       1.0  0.18500  0.37000  0.43500  1.0000
  Ti  Ti10      1.0  0.00000  0.00000  0.50000  1.0000
  Ti  Ti11      1.0  0.81500  0.63000  0.56500  1.0000
  Ti  Ti12      1.0  0.43500  0.25000  0.56500  1.0000
  Ti  Ti13      1.0  0.81500  0.25000  0.56500  1.0000
  Ti  Ti14      1.0  0.18500  0.75000  0.81500  1.0000
  Ti  Ti15      1.0  0.56500  0.75000  0.81500  1.0000
  Ti  Ti16      1.0  0.56500  0.13000  0.81500  1.0000
