data_image0
_chemical_formula_structural       Al4Fe4O20P4
_chemical_formula_sum              "Al4 Fe4 O20 P4"
_cell_length_a       7.12092
_cell_length_b       10.4914
_cell_length_c       5.45013
_cell_angle_alpha    90
_cell_angle_beta     97.8074
_cell_angle_gamma    90

_space_group_name_H-M_alt    "P 1"
_space_group_IT_number       1

loop_
  _space_group_symop_operation_xyz
  'x, y, z'

loop_
  _atom_site_type_symbol
  _atom_site_label
  _atom_site_symmetry_multiplicity
  _atom_site_fract_x
  _atom_site_fract_y
  _atom_site_fract_z
  _atom_site_occupancy
  Al  Al1       1.0  0.35800  0.32700  0.05940  1.0000
  Al  Al2       1.0  0.64200  0.82700  0.44100  1.0000
  Al  Al3       1.0  0.35800  0.17300  0.55900  1.0000
  Al  Al4       1.0  0.64200  0.67300  0.94100  1.0000
  Fe  Fe1       1.0  0.01830  0.14400  0.10500  1.0000
  Fe  Fe2       1.0  0.98200  0.64400  0.39500  1.0000
  Fe  Fe3       1.0  0.01830  0.35600  0.60500  1.0000
  Fe  Fe4       1.0  0.98200  0.85600  0.89500  1.0000
  O   O1        1.0  0.08590  0.68200  0.05900  1.0000
  O   O2        1.0  0.28800  0.48600  0.10800  1.0000
  O   O3        1.0  0.60500  0.32100  0.11500  1.0000
  O   O4        1.0  0.12300  0.95400  0.18300  1.0000
  O   O5        1.0  0.73200  0.72000  0.24100  1.0000
  O   O6        1.0  0.26800  0.22000  0.25900  1.0000
  O   O7        1.0  0.87700  0.45400  0.31700  1.0000
  O   O8        1.0  0.39500  0.82100  0.38500  1.0000
  O   O9        1.0  0.71200  0.98600  0.39200  1.0000
  O   O10       1.0  0.91400  0.18200  0.44100  1.0000
  O   O11       1.0  0.08590  0.81800  0.55900  1.0000
  O   O12       1.0  0.28800  0.01420  0.60800  1.0000
  O   O13       1.0  0.60500  0.17900  0.61500  1.0000
  O   O14       1.0  0.12300  0.54600  0.68300  1.0000
  O   O15       1.0  0.73200  0.78000  0.74100  1.0000
  O   O16       1.0  0.26800  0.28000  0.75900  1.0000
  O   O17       1.0  0.87700  0.04620  0.81700  1.0000
  O   O18       1.0  0.39500  0.67900  0.88500  1.0000
  O   O19       1.0  0.71200  0.51400  0.89200  1.0000
  O   O20       1.0  0.91400  0.31800  0.94100  1.0000
  P   P1        1.0  0.77700  0.40200  0.06680  1.0000
  P   P2        1.0  0.22300  0.90200  0.43300  1.0000
  P   P3        1.0  0.77700  0.09820  0.56700  1.0000
  P   P4        1.0  0.22300  0.59800  0.93300  1.0000
