data_image0
_chemical_formula_structural       O20Si8Sr4
_chemical_formula_sum              "O20 Si8 Sr4"
_cell_length_a       5.24062
_cell_length_b       5.33214
_cell_length_c       13.3602
_cell_angle_alpha    90
_cell_angle_beta     90
_cell_angle_gamma    60.5662

_space_group_name_H-M_alt    "P 1"
_space_group_IT_number       1

loop_
  _space_group_symop_operation_xyz
  'x, y, z'

loop_
  _atom_site_type_symbol
  _atom_site_label
  _atom_site_symmetry_multiplicity
  _atom_site_fract_x
  _atom_site_fract_y
  _atom_site_fract_z
  _atom_site_occupancy
  O   O1        1.0  0.16400  0.18100  0.09150  1.0000
  O   O2        1.0  0.65400  0.18100  0.09150  1.0000
  O   O3        1.0  0.16500  0.66900  0.09960  1.0000
  O   O4        1.0  0.49000  0.02030  0.24200  1.0000
  O   O5        1.0  0.00278  0.49400  0.25000  1.0000
  O   O6        1.0  0.50300  0.49400  0.25000  1.0000
  O   O7        1.0  0.99000  0.02030  0.25800  1.0000
  O   O8        1.0  0.66500  0.66900  0.40000  1.0000
  O   O9        1.0  0.15400  0.18100  0.40900  1.0000
  O   O10       1.0  0.66400  0.18100  0.40900  1.0000
  O   O11       1.0  0.33600  0.81900  0.59100  1.0000
  O   O12       1.0  0.84600  0.81900  0.59100  1.0000
  O   O13       1.0  0.33500  0.33100  0.60000  1.0000
  O   O14       1.0  0.01020  0.98000  0.74200  1.0000
  O   O15       1.0  0.49700  0.50600  0.75000  1.0000
  O   O16       1.0  0.99700  0.50600  0.75000  1.0000
  O   O17       1.0  0.51000  0.98000  0.75800  1.0000
  O   O18       1.0  0.83500  0.33100  0.90000  1.0000
  O   O19       1.0  0.34600  0.81900  0.90900  1.0000
  O   O20       1.0  0.83600  0.81900  0.90900  1.0000
  Si  Si1       1.0  0.99400  0.01120  0.13700  1.0000
  Si  Si2       1.0  0.32600  0.34800  0.18200  1.0000
  Si  Si3       1.0  0.82600  0.34800  0.31800  1.0000
  Si  Si4       1.0  0.49400  0.01120  0.36300  1.0000
  Si  Si5       1.0  0.50600  0.98900  0.63700  1.0000
  Si  Si6       1.0  0.17400  0.65200  0.68200  1.0000
  Si  Si7       1.0  0.67400  0.65200  0.81800  1.0000
  Si  Si8       1.0  0.00558  0.98900  0.86300  1.0000
  Sr  Sr1       1.0  0.66100  0.67700  0.08270  1.0000
  Sr  Sr2       1.0  0.16100  0.67700  0.41700  1.0000
  Sr  Sr3       1.0  0.83900  0.32300  0.58300  1.0000
  Sr  Sr4       1.0  0.33900  0.32300  0.91700  1.0000
