data_image0
_chemical_formula_structural       Ga16Pt7Zr6
_chemical_formula_sum              "Ga16 Pt7 Zr6"
_cell_length_a       8.84927
_cell_length_b       8.84927
_cell_length_c       8.84927
_cell_angle_alpha    120
_cell_angle_beta     90
_cell_angle_gamma    120

_space_group_name_H-M_alt    "P 1"
_space_group_IT_number       1

loop_
  _space_group_symop_operation_xyz
  'x, y, z'

loop_
  _atom_site_type_symbol
  _atom_site_label
  _atom_site_symmetry_multiplicity
  _atom_site_fract_x
  _atom_site_fract_y
  _atom_site_fract_z
  _atom_site_occupancy
  Ga  Ga1       1.0  0.34200  0.68500  0.02750  1.0000
  Ga  Ga2       1.0  0.87900  0.75700  0.12100  1.0000
  Ga  Ga3       1.0  0.36400  0.24300  0.12100  1.0000
  Ga  Ga4       1.0  0.87900  0.24300  0.12100  1.0000
  Ga  Ga5       1.0  0.65800  0.31500  0.34200  1.0000
  Ga  Ga6       1.0  0.02750  0.68500  0.34200  1.0000
  Ga  Ga7       1.0  0.65800  0.68500  0.34200  1.0000
  Ga  Ga8       1.0  0.12100  0.24300  0.36400  1.0000
  Ga  Ga9       1.0  0.87900  0.75700  0.63600  1.0000
  Ga  Ga10      1.0  0.34200  0.31500  0.65800  1.0000
  Ga  Ga11      1.0  0.97300  0.31500  0.65800  1.0000
  Ga  Ga12      1.0  0.34200  0.68500  0.65800  1.0000
  Ga  Ga13      1.0  0.12100  0.24300  0.87900  1.0000
  Ga  Ga14      1.0  0.12100  0.75700  0.87900  1.0000
  Ga  Ga15      1.0  0.63600  0.75700  0.87900  1.0000
  Ga  Ga16      1.0  0.65800  0.31500  0.97300  1.0000
  Pt  Pt1       1.0  0.00000  0.00000  0.00000  1.0000
  Pt  Pt2       1.0  0.50000  0.00000  0.00000  1.0000
  Pt  Pt3       1.0  0.00000  0.50000  0.00000  1.0000
  Pt  Pt4       1.0  0.50000  0.50000  0.00000  1.0000
  Pt  Pt5       1.0  0.00000  0.00000  0.50000  1.0000
  Pt  Pt6       1.0  0.00000  0.50000  0.50000  1.0000
  Pt  Pt7       1.0  0.50000  0.50000  0.50000  1.0000
  Zr  Zr1       1.0  0.30700  0.00000  0.30700  1.0000
  Zr  Zr2       1.0  0.69300  0.00000  0.30700  1.0000
  Zr  Zr3       1.0  0.30700  0.61400  0.30700  1.0000
  Zr  Zr4       1.0  0.30700  1.00000  0.69300  1.0000
  Zr  Zr5       1.0  0.69300  1.00000  0.69300  1.0000
  Zr  Zr6       1.0  0.69300  0.38600  0.69300  1.0000
