data_image0
_chemical_formula_structural       B6C20N6
_chemical_formula_sum              "B6 C20 N6"
_cell_length_a       6.61142
_cell_length_b       5.00185
_cell_length_c       8.64352
_cell_angle_alpha    90
_cell_angle_beta     90
_cell_angle_gamma    90

_space_group_name_H-M_alt    "P 1"
_space_group_IT_number       1

loop_
  _space_group_symop_operation_xyz
  'x, y, z'

loop_
  _atom_site_type_symbol
  _atom_site_label
  _atom_site_symmetry_multiplicity
  _atom_site_fract_x
  _atom_site_fract_y
  _atom_site_fract_z
  _atom_site_occupancy
  B   B1        1.0  0.25000  0.50000  0.00446  1.0000
  B   B2        1.0  0.25000  0.50000  0.34400  1.0000
  B   B3        1.0  0.75000  0.00000  0.49300  1.0000
  B   B4        1.0  0.25000  0.00000  0.50700  1.0000
  B   B5        1.0  0.75000  0.50000  0.65600  1.0000
  B   B6        1.0  0.75000  0.50000  0.99600  1.0000
  C   C1        1.0  0.25000  0.00000  0.00354  1.0000
  C   C2        1.0  0.25000  0.24100  0.08890  1.0000
  C   C3        1.0  0.25000  0.75900  0.08890  1.0000
  C   C4        1.0  0.75000  0.00000  0.16300  1.0000
  C   C5        1.0  0.75000  0.50000  0.16400  1.0000
  C   C6        1.0  0.25000  0.24100  0.25300  1.0000
  C   C7        1.0  0.25000  0.75900  0.25300  1.0000
  C   C8        1.0  0.25000  0.00000  0.33300  1.0000
  C   C9        1.0  0.75000  0.25500  0.40500  1.0000
  C   C10       1.0  0.75000  0.74500  0.40500  1.0000
  C   C11       1.0  0.25000  0.25500  0.59500  1.0000
  C   C12       1.0  0.25000  0.74500  0.59500  1.0000
  C   C13       1.0  0.75000  0.00000  0.66700  1.0000
  C   C14       1.0  0.75000  0.24100  0.74700  1.0000
  C   C15       1.0  0.75000  0.75900  0.74700  1.0000
  C   C16       1.0  0.25000  0.50000  0.83600  1.0000
  C   C17       1.0  0.25000  0.00000  0.83700  1.0000
  C   C18       1.0  0.75000  0.24100  0.91100  1.0000
  C   C19       1.0  0.75000  0.75900  0.91100  1.0000
  C   C20       1.0  0.75000  0.00000  0.99600  1.0000
  N   N1        1.0  0.75000  0.25100  0.24600  1.0000
  N   N2        1.0  0.75000  0.74900  0.24600  1.0000
  N   N3        1.0  0.75000  0.50000  0.48200  1.0000
  N   N4        1.0  0.25000  0.50000  0.51800  1.0000
  N   N5        1.0  0.25000  0.25100  0.75400  1.0000
  N   N6        1.0  0.25000  0.74900  0.75400  1.0000
