data_image0
_chemical_formula_structural       Sb16Sn12Sr4
_chemical_formula_sum              "Sb16 Sn12 Sr4"
_cell_length_a       10.166
_cell_length_b       4.42237
_cell_length_c       23.2134
_cell_angle_alpha    90
_cell_angle_beta     90
_cell_angle_gamma    90

_space_group_name_H-M_alt    "P 1"
_space_group_IT_number       1

loop_
  _space_group_symop_operation_xyz
  'x, y, z'

loop_
  _atom_site_type_symbol
  _atom_site_label
  _atom_site_symmetry_multiplicity
  _atom_site_fract_x
  _atom_site_fract_y
  _atom_site_fract_z
  _atom_site_occupancy
  Sb  Sb1       1.0  0.92900  0.75000  0.02920  1.0000
  Sb  Sb2       1.0  0.29700  0.75000  0.09210  1.0000
  Sb  Sb3       1.0  0.71300  0.25000  0.12400  1.0000
  Sb  Sb4       1.0  0.96600  0.75000  0.23200  1.0000
  Sb  Sb5       1.0  0.46600  0.75000  0.26800  1.0000
  Sb  Sb6       1.0  0.21300  0.25000  0.37600  1.0000
  Sb  Sb7       1.0  0.79700  0.75000  0.40800  1.0000
  Sb  Sb8       1.0  0.42900  0.75000  0.47100  1.0000
  Sb  Sb9       1.0  0.57100  0.25000  0.52900  1.0000
  Sb  Sb10      1.0  0.20300  0.25000  0.59200  1.0000
  Sb  Sb11      1.0  0.78700  0.75000  0.62400  1.0000
  Sb  Sb12      1.0  0.53400  0.25000  0.73200  1.0000
  Sb  Sb13      1.0  0.03370  0.25000  0.76800  1.0000
  Sb  Sb14      1.0  0.28700  0.75000  0.87600  1.0000
  Sb  Sb15      1.0  0.70300  0.25000  0.90800  1.0000
  Sb  Sb16      1.0  0.07130  0.25000  0.97100  1.0000
  Sn  Sn1       1.0  0.35300  0.25000  0.01010  1.0000
  Sn  Sn2       1.0  0.54300  0.75000  0.15000  1.0000
  Sn  Sn3       1.0  0.77600  0.25000  0.25000  1.0000
  Sn  Sn4       1.0  0.27600  0.25000  0.25000  1.0000
  Sn  Sn5       1.0  0.04300  0.75000  0.35000  1.0000
  Sn  Sn6       1.0  0.85300  0.25000  0.49000  1.0000
  Sn  Sn7       1.0  0.14700  0.75000  0.51000  1.0000
  Sn  Sn8       1.0  0.95700  0.25000  0.65000  1.0000
  Sn  Sn9       1.0  0.72400  0.75000  0.75000  1.0000
  Sn  Sn10      1.0  0.22400  0.75000  0.75000  1.0000
  Sn  Sn11      1.0  0.45700  0.25000  0.85000  1.0000
  Sn  Sn12      1.0  0.64700  0.75000  0.99000  1.0000
  Sr  Sr1       1.0  0.06220  0.25000  0.13000  1.0000
  Sr  Sr2       1.0  0.56200  0.25000  0.37000  1.0000
  Sr  Sr3       1.0  0.43800  0.75000  0.63000  1.0000
  Sr  Sr4       1.0  0.93800  0.75000  0.87000  1.0000
