data_image0
_chemical_formula_structural       C2Ga2Ge4H10N2O12
_chemical_formula_sum              "C2 Ga2 Ge4 H10 N2 O12"
_cell_length_a       7.08411
_cell_length_b       7.52026
_cell_length_c       7.51328
_cell_angle_alpha    114.049
_cell_angle_beta     108.483
_cell_angle_gamma    99.9202

_space_group_name_H-M_alt    "P 1"
_space_group_IT_number       1

loop_
  _space_group_symop_operation_xyz
  'x, y, z'

loop_
  _atom_site_type_symbol
  _atom_site_label
  _atom_site_symmetry_multiplicity
  _atom_site_fract_x
  _atom_site_fract_y
  _atom_site_fract_z
  _atom_site_occupancy
  C   C1        1.0  0.61200  0.57900  0.06980  1.0000
  C   C2        1.0  0.38800  0.42100  0.93000  1.0000
  Ga  Ga1       1.0  0.92000  0.26200  0.18600  1.0000
  Ga  Ga2       1.0  0.08000  0.73800  0.81400  1.0000
  Ge  Ge1       1.0  0.24600  0.02620  0.31800  1.0000
  Ge  Ge2       1.0  0.28300  0.68400  0.46800  1.0000
  Ge  Ge3       1.0  0.71700  0.31600  0.53200  1.0000
  Ge  Ge4       1.0  0.75400  0.97400  0.68200  1.0000
  H   H1        1.0  0.72800  0.51400  0.02640  1.0000
  H   H2        1.0  0.51300  0.82500  0.07490  1.0000
  H   H3        1.0  0.41500  0.28700  0.12400  1.0000
  H   H4        1.0  0.77800  0.87300  0.13100  1.0000
  H   H5        1.0  0.65300  0.63200  0.24100  1.0000
  H   H6        1.0  0.34700  0.36800  0.75900  1.0000
  H   H7        1.0  0.22200  0.12700  0.86900  1.0000
  H   H8        1.0  0.58500  0.71300  0.87600  1.0000
  H   H9        1.0  0.48700  0.17500  0.92500  1.0000
  H   H10       1.0  0.27200  0.48600  0.97400  1.0000
  N   N1        1.0  0.62400  0.75900  0.03620  1.0000
  N   N2        1.0  0.37600  0.24100  0.96400  1.0000
  O   O1        1.0  0.29100  0.87300  0.09730  1.0000
  O   O2        1.0  0.13100  0.46500  0.21400  1.0000
  O   O3        1.0  0.00123  0.05950  0.23500  1.0000
  O   O4        1.0  0.76000  0.35200  0.33100  1.0000
  O   O5        1.0  0.44400  0.27800  0.47600  1.0000
  O   O6        1.0  0.24400  0.91800  0.48800  1.0000
  O   O7        1.0  0.75600  0.08180  0.51200  1.0000
  O   O8        1.0  0.55600  0.72200  0.52400  1.0000
  O   O9        1.0  0.24000  0.64800  0.66900  1.0000
  O   O10       1.0  0.99900  0.94100  0.76500  1.0000
  O   O11       1.0  0.86900  0.53500  0.78600  1.0000
  O   O12       1.0  0.70900  0.12700  0.90300  1.0000
