data_image0
_chemical_formula_structural       Ag4F24Sb4
_chemical_formula_sum              "Ag4 F24 Sb4"
_cell_length_a       8.17852
_cell_length_b       8.17852
_cell_length_c       8.17852
_cell_angle_alpha    109.471
_cell_angle_beta     109.471
_cell_angle_gamma    109.471

_space_group_name_H-M_alt    "P 1"
_space_group_IT_number       1

loop_
  _space_group_symop_operation_xyz
  'x, y, z'

loop_
  _atom_site_type_symbol
  _atom_site_label
  _atom_site_symmetry_multiplicity
  _atom_site_fract_x
  _atom_site_fract_y
  _atom_site_fract_z
  _atom_site_occupancy
  Ag  Ag1       1.0  0.50000  0.00000  0.00000  1.0000
  Ag  Ag2       1.0  0.00000  0.50000  0.00000  1.0000
  Ag  Ag3       1.0  0.00000  0.00000  0.50000  1.0000
  Ag  Ag4       1.0  0.50000  0.50000  0.50000  1.0000
  F   F1        1.0  0.94500  0.21600  0.04110  1.0000
  F   F2        1.0  0.28400  0.45900  0.05500  1.0000
  F   F3        1.0  0.54100  0.32500  0.09610  1.0000
  F   F4        1.0  0.90400  0.95900  0.17500  1.0000
  F   F5        1.0  0.27100  0.17500  0.21600  1.0000
  F   F6        1.0  0.44500  0.90400  0.22900  1.0000
  F   F7        1.0  0.67500  0.71600  0.27100  1.0000
  F   F8        1.0  0.95900  0.55500  0.28400  1.0000
  F   F9        1.0  0.78400  0.22900  0.32500  1.0000
  F   F10       1.0  0.22900  0.94500  0.40400  1.0000
  F   F11       1.0  0.40400  0.72900  0.44500  1.0000
  F   F12       1.0  0.17500  0.40400  0.45900  1.0000
  F   F13       1.0  0.82500  0.59600  0.54100  1.0000
  F   F14       1.0  0.59600  0.27100  0.55500  1.0000
  F   F15       1.0  0.77100  0.05500  0.59600  1.0000
  F   F16       1.0  0.21600  0.77100  0.67500  1.0000
  F   F17       1.0  0.04110  0.44500  0.71600  1.0000
  F   F18       1.0  0.32500  0.28400  0.72900  1.0000
  F   F19       1.0  0.55500  0.09610  0.77100  1.0000
  F   F20       1.0  0.72900  0.82500  0.78400  1.0000
  F   F21       1.0  0.09610  0.04110  0.82500  1.0000
  F   F22       1.0  0.45900  0.67500  0.90400  1.0000
  F   F23       1.0  0.71600  0.54100  0.94500  1.0000
  F   F24       1.0  0.05500  0.78400  0.95900  1.0000
  Sb  Sb1       1.0  0.00000  0.00000  0.00000  1.0000
  Sb  Sb2       1.0  0.50000  0.50000  0.00000  1.0000
  Sb  Sb3       1.0  0.50000  0.00000  0.50000  1.0000
  Sb  Sb4       1.0  0.00000  0.50000  0.50000  1.0000
