data_image0
_chemical_formula_structural       Ge6Sb10Yb16
_chemical_formula_sum              "Ge6 Sb10 Yb16"
_cell_length_a       6.84118
_cell_length_b       11.9073
_cell_length_c       11.9073
_cell_angle_alpha    94.7336
_cell_angle_beta     73.3055
_cell_angle_gamma    106.694

_space_group_name_H-M_alt    "P 1"
_space_group_IT_number       1

loop_
  _space_group_symop_operation_xyz
  'x, y, z'

loop_
  _atom_site_type_symbol
  _atom_site_label
  _atom_site_symmetry_multiplicity
  _atom_site_fract_x
  _atom_site_fract_y
  _atom_site_fract_z
  _atom_site_occupancy
  Ge  Ge1       1.0  0.61800  0.61800  0.38200  1.0000
  Ge  Ge2       1.0  0.00000  0.38200  0.38200  1.0000
  Ge  Ge3       1.0  0.25000  0.50000  0.50000  1.0000
  Ge  Ge4       1.0  0.75000  0.50000  0.50000  1.0000
  Ge  Ge5       1.0  0.00000  0.61800  0.61800  1.0000
  Ge  Ge6       1.0  0.38200  0.38200  0.61800  1.0000
  Sb  Sb1       1.0  0.24200  0.00000  0.00000  1.0000
  Sb  Sb2       1.0  0.75800  0.00000  0.00000  1.0000
  Sb  Sb3       1.0  0.19400  0.38800  0.00000  1.0000
  Sb  Sb4       1.0  0.80600  0.61200  0.00000  1.0000
  Sb  Sb5       1.0  0.22900  0.72900  0.27100  1.0000
  Sb  Sb6       1.0  0.50000  0.27100  0.27100  1.0000
  Sb  Sb7       1.0  0.80600  0.00000  0.38800  1.0000
  Sb  Sb8       1.0  0.19400  0.00000  0.61200  1.0000
  Sb  Sb9       1.0  0.77100  0.27100  0.72900  1.0000
  Sb  Sb10      1.0  0.50000  0.72900  0.72900  1.0000
  Yb  Yb1       1.0  0.62800  0.25600  0.00000  1.0000
  Yb  Yb2       1.0  0.37200  0.74400  0.00000  1.0000
  Yb  Yb3       1.0  0.81500  0.81500  0.18500  1.0000
  Yb  Yb4       1.0  0.00000  0.18500  0.18500  1.0000
  Yb  Yb5       1.0  0.39800  0.50000  0.20400  1.0000
  Yb  Yb6       1.0  0.89800  0.50000  0.20400  1.0000
  Yb  Yb7       1.0  0.37200  0.00000  0.25600  1.0000
  Yb  Yb8       1.0  0.10200  0.20400  0.50000  1.0000
  Yb  Yb9       1.0  0.60200  0.20400  0.50000  1.0000
  Yb  Yb10      1.0  0.39800  0.79600  0.50000  1.0000
  Yb  Yb11      1.0  0.89800  0.79600  0.50000  1.0000
  Yb  Yb12      1.0  0.62800  0.00000  0.74400  1.0000
  Yb  Yb13      1.0  0.10200  0.50000  0.79600  1.0000
  Yb  Yb14      1.0  0.60200  0.50000  0.79600  1.0000
  Yb  Yb15      1.0  0.18500  0.18500  0.81500  1.0000
  Yb  Yb16      1.0  0.00000  0.81500  0.81500  1.0000
