data_image0
_chemical_formula_structural       K2N6Np2O22
_chemical_formula_sum              "K2 N6 Np2 O22"
_cell_length_a       7.8609
_cell_length_b       7.8609
_cell_length_c       7.8609
_cell_angle_alpha    110.778
_cell_angle_beta     69.2224
_cell_angle_gamma    110.778

_space_group_name_H-M_alt    "P 1"
_space_group_IT_number       1

loop_
  _space_group_symop_operation_xyz
  'x, y, z'

loop_
  _atom_site_type_symbol
  _atom_site_label
  _atom_site_symmetry_multiplicity
  _atom_site_fract_x
  _atom_site_fract_y
  _atom_site_fract_z
  _atom_site_occupancy
  K   K1        1.0  0.00000  0.00000  0.00000  1.0000
  K   K2        1.0  0.50000  0.50000  0.50000  1.0000
  N   N1        1.0  0.75000  0.57500  0.07470  1.0000
  N   N2        1.0  0.57500  0.07470  0.25000  1.0000
  N   N3        1.0  0.07470  0.25000  0.42500  1.0000
  N   N4        1.0  0.92500  0.75000  0.57500  1.0000
  N   N5        1.0  0.42500  0.92500  0.75000  1.0000
  N   N6        1.0  0.25000  0.42500  0.92500  1.0000
  Np  Np1       1.0  0.25000  0.75000  0.25000  1.0000
  Np  Np2       1.0  0.75000  0.25000  0.75000  1.0000
  O   O1        1.0  0.61600  0.42200  0.07460  1.0000
  O   O2        1.0  0.11600  0.42500  0.07810  1.0000
  O   O3        1.0  0.57500  0.92200  0.11600  1.0000
  O   O4        1.0  0.15200  0.84800  0.15200  1.0000
  O   O5        1.0  0.75000  0.71200  0.21200  1.0000
  O   O6        1.0  0.71200  0.21200  0.25000  1.0000
  O   O7        1.0  0.21200  0.25000  0.28800  1.0000
  O   O8        1.0  0.34800  0.65200  0.34800  1.0000
  O   O9        1.0  0.42200  0.07460  0.38400  1.0000
  O   O10       1.0  0.92500  0.61600  0.42200  1.0000
  O   O11       1.0  0.92200  0.11600  0.42500  1.0000
  O   O12       1.0  0.07810  0.88400  0.57500  1.0000
  O   O13       1.0  0.07460  0.38400  0.57800  1.0000
  O   O14       1.0  0.57800  0.92500  0.61600  1.0000
  O   O15       1.0  0.65200  0.34800  0.65200  1.0000
  O   O16       1.0  0.78800  0.75000  0.71200  1.0000
  O   O17       1.0  0.28800  0.78800  0.75000  1.0000
  O   O18       1.0  0.25000  0.28800  0.78800  1.0000
  O   O19       1.0  0.84800  0.15200  0.84800  1.0000
  O   O20       1.0  0.42500  0.07810  0.88400  1.0000
  O   O21       1.0  0.88400  0.57500  0.92200  1.0000
  O   O22       1.0  0.38400  0.57800  0.92500  1.0000
