data_image0
_chemical_formula_structural       Bi12Sc20
_chemical_formula_sum              "Bi12 Sc20"
_cell_length_a       11.2804
_cell_length_b       8.94076
_cell_length_c       7.80127
_cell_angle_alpha    90
_cell_angle_beta     90
_cell_angle_gamma    90

_space_group_name_H-M_alt    "P 1"
_space_group_IT_number       1

loop_
  _space_group_symop_operation_xyz
  'x, y, z'

loop_
  _atom_site_type_symbol
  _atom_site_label
  _atom_site_symmetry_multiplicity
  _atom_site_fract_x
  _atom_site_fract_y
  _atom_site_fract_z
  _atom_site_occupancy
  Bi  Bi1       1.0  0.32400  0.00983  0.06400  1.0000
  Bi  Bi2       1.0  0.32400  0.49000  0.06400  1.0000
  Bi  Bi3       1.0  0.02540  0.75000  0.09850  1.0000
  Bi  Bi4       1.0  0.52500  0.75000  0.40200  1.0000
  Bi  Bi5       1.0  0.82400  0.00983  0.43600  1.0000
  Bi  Bi6       1.0  0.82400  0.49000  0.43600  1.0000
  Bi  Bi7       1.0  0.17600  0.51000  0.56400  1.0000
  Bi  Bi8       1.0  0.17600  0.99000  0.56400  1.0000
  Bi  Bi9       1.0  0.47500  0.25000  0.59800  1.0000
  Bi  Bi10      1.0  0.97500  0.25000  0.90200  1.0000
  Bi  Bi11      1.0  0.67600  0.51000  0.93600  1.0000
  Bi  Bi12      1.0  0.67600  0.99000  0.93600  1.0000
  Sc  Sc1       1.0  0.49400  0.75000  0.02010  1.0000
  Sc  Sc2       1.0  0.78700  0.25000  0.16000  1.0000
  Sc  Sc3       1.0  0.76900  0.75000  0.17700  1.0000
  Sc  Sc4       1.0  0.06430  0.06450  0.19400  1.0000
  Sc  Sc5       1.0  0.06430  0.43600  0.19400  1.0000
  Sc  Sc6       1.0  0.56400  0.06450  0.30600  1.0000
  Sc  Sc7       1.0  0.56400  0.43600  0.30600  1.0000
  Sc  Sc8       1.0  0.26900  0.75000  0.32300  1.0000
  Sc  Sc9       1.0  0.28700  0.25000  0.34000  1.0000
  Sc  Sc10      1.0  0.99400  0.75000  0.48000  1.0000
  Sc  Sc11      1.0  0.00634  0.25000  0.52000  1.0000
  Sc  Sc12      1.0  0.71300  0.75000  0.66000  1.0000
  Sc  Sc13      1.0  0.73100  0.25000  0.67700  1.0000
  Sc  Sc14      1.0  0.43600  0.56400  0.69400  1.0000
  Sc  Sc15      1.0  0.43600  0.93600  0.69400  1.0000
  Sc  Sc16      1.0  0.93600  0.56400  0.80600  1.0000
  Sc  Sc17      1.0  0.93600  0.93600  0.80600  1.0000
  Sc  Sc18      1.0  0.23100  0.25000  0.82300  1.0000
  Sc  Sc19      1.0  0.21300  0.75000  0.84000  1.0000
  Sc  Sc20      1.0  0.50600  0.25000  0.98000  1.0000
