data_image0
_chemical_formula_structural       O20Si6Sr2Y4
_chemical_formula_sum              "O20 Si6 Sr2 Y4"
_cell_length_a       6.74352
_cell_length_b       6.87267
_cell_length_c       9.26083
_cell_angle_alpha    72.174
_cell_angle_beta     86.4562
_cell_angle_gamma    88.2084

_space_group_name_H-M_alt    "P 1"
_space_group_IT_number       1

loop_
  _space_group_symop_operation_xyz
  'x, y, z'

loop_
  _atom_site_type_symbol
  _atom_site_label
  _atom_site_symmetry_multiplicity
  _atom_site_fract_x
  _atom_site_fract_y
  _atom_site_fract_z
  _atom_site_occupancy
  O   O1        1.0  0.26200  0.60800  0.01050  1.0000
  O   O2        1.0  0.08700  0.20200  0.05310  1.0000
  O   O3        1.0  0.53100  0.78300  0.11300  1.0000
  O   O4        1.0  0.76700  0.04640  0.22300  1.0000
  O   O5        1.0  0.89100  0.40000  0.24100  1.0000
  O   O6        1.0  0.16900  0.75900  0.24800  1.0000
  O   O7        1.0  0.39300  0.41400  0.28100  1.0000
  O   O8        1.0  0.18100  0.10100  0.43200  1.0000
  O   O9        1.0  0.82400  0.60300  0.45500  1.0000
  O   O10       1.0  0.46600  0.79400  0.45800  1.0000
  O   O11       1.0  0.53400  0.20600  0.54200  1.0000
  O   O12       1.0  0.17600  0.39700  0.54500  1.0000
  O   O13       1.0  0.81900  0.89900  0.56800  1.0000
  O   O14       1.0  0.60700  0.58600  0.71900  1.0000
  O   O15       1.0  0.83100  0.24100  0.75200  1.0000
  O   O16       1.0  0.10900  0.60000  0.75900  1.0000
  O   O17       1.0  0.23300  0.95400  0.77700  1.0000
  O   O18       1.0  0.46900  0.21700  0.88700  1.0000
  O   O19       1.0  0.91300  0.79800  0.94700  1.0000
  O   O20       1.0  0.73800  0.39200  0.98900  1.0000
  Si  Si1       1.0  0.87900  0.25700  0.12900  1.0000
  Si  Si2       1.0  0.33600  0.64200  0.16700  1.0000
  Si  Si3       1.0  0.33000  0.27100  0.46000  1.0000
  Si  Si4       1.0  0.67000  0.72900  0.54000  1.0000
  Si  Si5       1.0  0.66400  0.35800  0.83300  1.0000
  Si  Si6       1.0  0.12100  0.74300  0.87100  1.0000
  Sr  Sr1       1.0  0.40100  0.09380  0.18300  1.0000
  Sr  Sr2       1.0  0.59900  0.90600  0.81700  1.0000
  Y   Y1        1.0  0.84100  0.74100  0.19000  1.0000
  Y   Y2        1.0  0.86300  0.24600  0.49300  1.0000
  Y   Y3        1.0  0.13700  0.75400  0.50700  1.0000
  Y   Y4        1.0  0.15900  0.25900  0.81000  1.0000
