data_image0
_chemical_formula_structural       O18SrV13
_chemical_formula_sum              "O18 Sr1 V13"
_cell_length_a       7.42177
_cell_length_b       7.89639
_cell_length_c       7.89639
_cell_angle_alpha    110.657
_cell_angle_beta     108.258
_cell_angle_gamma    108.258

_space_group_name_H-M_alt    "P 1"
_space_group_IT_number       1

loop_
  _space_group_symop_operation_xyz
  'x, y, z'

loop_
  _atom_site_type_symbol
  _atom_site_label
  _atom_site_symmetry_multiplicity
  _atom_site_fract_x
  _atom_site_fract_y
  _atom_site_fract_z
  _atom_site_occupancy
  O   O1        1.0  0.88400  0.62600  0.05600  1.0000
  O   O2        1.0  0.77800  0.27200  0.10400  1.0000
  O   O3        1.0  0.67400  0.89600  0.16800  1.0000
  O   O4        1.0  0.60000  0.54600  0.21800  1.0000
  O   O5        1.0  0.49400  0.16800  0.27200  1.0000
  O   O6        1.0  0.38200  0.78200  0.32800  1.0000
  O   O7        1.0  0.25800  0.43000  0.37400  1.0000
  O   O8        1.0  0.17200  0.05600  0.43000  1.0000
  O   O9        1.0  0.05350  0.67200  0.45400  1.0000
  O   O10       1.0  0.94700  0.32800  0.54600  1.0000
  O   O11       1.0  0.82800  0.94400  0.57000  1.0000
  O   O12       1.0  0.74200  0.57000  0.62600  1.0000
  O   O13       1.0  0.61800  0.21800  0.67200  1.0000
  O   O14       1.0  0.50600  0.83200  0.72800  1.0000
  O   O15       1.0  0.40000  0.45400  0.78200  1.0000
  O   O16       1.0  0.32600  0.10400  0.83200  1.0000
  O   O17       1.0  0.22200  0.72800  0.89600  1.0000
  O   O18       1.0  0.11600  0.37400  0.94400  1.0000
  Sr  Sr1       1.0  0.00000  0.00000  0.00000  1.0000
  V   V1        1.0  0.50000  0.00000  0.00000  1.0000
  V   V2        1.0  0.40000  0.63300  0.05480  1.0000
  V   V3        1.0  0.07290  0.51100  0.19000  1.0000
  V   V4        1.0  0.88300  0.81000  0.32100  1.0000
  V   V5        1.0  0.76700  0.42100  0.36700  1.0000
  V   V6        1.0  0.65500  0.05480  0.42100  1.0000
  V   V7        1.0  0.56200  0.67900  0.48900  1.0000
  V   V8        1.0  0.43800  0.32100  0.51100  1.0000
  V   V9        1.0  0.34500  0.94500  0.57900  1.0000
  V   V10       1.0  0.23300  0.57900  0.63300  1.0000
  V   V11       1.0  0.11700  0.19000  0.67900  1.0000
  V   V12       1.0  0.92700  0.48900  0.81000  1.0000
  V   V13       1.0  0.60000  0.36700  0.94500  1.0000
