data_image0
_chemical_formula_structural       C12Co2Li2N12Rb4
_chemical_formula_sum              "C12 Co2 Li2 N12 Rb4"
_cell_length_a       7.08284
_cell_length_b       7.34348
_cell_length_c       10.1661
_cell_angle_alpha    90
_cell_angle_beta     90.1589
_cell_angle_gamma    90

_space_group_name_H-M_alt    "P 1"
_space_group_IT_number       1

loop_
  _space_group_symop_operation_xyz
  'x, y, z'

loop_
  _atom_site_type_symbol
  _atom_site_label
  _atom_site_symmetry_multiplicity
  _atom_site_fract_x
  _atom_site_fract_y
  _atom_site_fract_z
  _atom_site_occupancy
  C   C1        1.0  0.78600  0.14400  0.02330  1.0000
  C   C2        1.0  0.85600  0.79000  0.02630  1.0000
  C   C3        1.0  0.04860  0.00949  0.18000  1.0000
  C   C4        1.0  0.45100  0.50900  0.32000  1.0000
  C   C5        1.0  0.64400  0.29000  0.47400  1.0000
  C   C6        1.0  0.71400  0.64400  0.47700  1.0000
  C   C7        1.0  0.28600  0.35600  0.52300  1.0000
  C   C8        1.0  0.35600  0.71000  0.52600  1.0000
  C   C9        1.0  0.54900  0.49100  0.68000  1.0000
  C   C10       1.0  0.95100  0.99100  0.82000  1.0000
  C   C11       1.0  0.14400  0.21000  0.97400  1.0000
  C   C12       1.0  0.21400  0.85600  0.97700  1.0000
  Co  Co1       1.0  0.00000  0.00000  0.00000  1.0000
  Co  Co2       1.0  0.50000  0.50000  0.50000  1.0000
  Li  Li1       1.0  0.50000  0.50000  0.00000  1.0000
  Li  Li2       1.0  0.00000  0.00000  0.50000  1.0000
  N   N1        1.0  0.65200  0.23600  0.03860  1.0000
  N   N2        1.0  0.76500  0.65900  0.04320  1.0000
  N   N3        1.0  0.42300  0.51800  0.20600  1.0000
  N   N4        1.0  0.07740  0.01810  0.29400  1.0000
  N   N5        1.0  0.73500  0.15900  0.45700  1.0000
  N   N6        1.0  0.84800  0.73600  0.46100  1.0000
  N   N7        1.0  0.15200  0.26400  0.53900  1.0000
  N   N8        1.0  0.26500  0.84100  0.54300  1.0000
  N   N9        1.0  0.92300  0.98200  0.70600  1.0000
  N   N10       1.0  0.57700  0.48200  0.79400  1.0000
  N   N11       1.0  0.23500  0.34100  0.95700  1.0000
  N   N12       1.0  0.34800  0.76400  0.96100  1.0000
  Rb  Rb1       1.0  0.98600  0.44600  0.25000  1.0000
  Rb  Rb2       1.0  0.51400  0.94600  0.25000  1.0000
  Rb  Rb3       1.0  0.48600  0.05370  0.75000  1.0000
  Rb  Rb4       1.0  0.01350  0.55400  0.75000  1.0000
