data_image0
_chemical_formula_structural       Cs6I18Mo4
_chemical_formula_sum              "Cs6 I18 Mo4"
_cell_length_a       8.37872
_cell_length_b       8.37994
_cell_length_c       20.4203
_cell_angle_alpha    90
_cell_angle_beta     90
_cell_angle_gamma    119.995

_space_group_name_H-M_alt    "P 1"
_space_group_IT_number       1

loop_
  _space_group_symop_operation_xyz
  'x, y, z'

loop_
  _atom_site_type_symbol
  _atom_site_label
  _atom_site_symmetry_multiplicity
  _atom_site_fract_x
  _atom_site_fract_y
  _atom_site_fract_z
  _atom_site_occupancy
  Cs  Cs1       1.0  0.33300  0.66700  0.06360  1.0000
  Cs  Cs2       1.0  0.00000  0.00000  0.25000  1.0000
  Cs  Cs3       1.0  0.33300  0.66700  0.43600  1.0000
  Cs  Cs4       1.0  0.66700  0.33300  0.56400  1.0000
  Cs  Cs5       1.0  0.00000  0.00000  0.75000  1.0000
  Cs  Cs6       1.0  0.66700  0.33300  0.93600  1.0000
  I   I1        1.0  0.35300  0.17700  0.09590  1.0000
  I   I2        1.0  0.82300  0.17700  0.09590  1.0000
  I   I3        1.0  0.82300  0.64700  0.09590  1.0000
  I   I4        1.0  0.50300  0.00646  0.25000  1.0000
  I   I5        1.0  0.50300  0.49700  0.25000  1.0000
  I   I6        1.0  0.99300  0.49700  0.25000  1.0000
  I   I7        1.0  0.82300  0.64700  0.40400  1.0000
  I   I8        1.0  0.35300  0.17700  0.40400  1.0000
  I   I9        1.0  0.82300  0.17700  0.40400  1.0000
  I   I10       1.0  0.17700  0.82300  0.59600  1.0000
  I   I11       1.0  0.64700  0.82300  0.59600  1.0000
  I   I12       1.0  0.17700  0.35300  0.59600  1.0000
  I   I13       1.0  0.00661  0.50300  0.75000  1.0000
  I   I14       1.0  0.49700  0.50300  0.75000  1.0000
  I   I15       1.0  0.49700  0.99400  0.75000  1.0000
  I   I16       1.0  0.17700  0.35300  0.90400  1.0000
  I   I17       1.0  0.17700  0.82300  0.90400  1.0000
  I   I18       1.0  0.64700  0.82300  0.90400  1.0000
  Mo  Mo1       1.0  0.66700  0.33400  0.17700  1.0000
  Mo  Mo2       1.0  0.66700  0.33400  0.32300  1.0000
  Mo  Mo3       1.0  0.33300  0.66600  0.67700  1.0000
  Mo  Mo4       1.0  0.33300  0.66600  0.82300  1.0000
