data_image0
_chemical_formula_structural       La12Rh12Si8
_chemical_formula_sum              "La12 Rh12 Si8"
_cell_length_a       7.84148
_cell_length_b       15.0583
_cell_length_c       5.88613
_cell_angle_alpha    90
_cell_angle_beta     90
_cell_angle_gamma    90

_space_group_name_H-M_alt    "P 1"
_space_group_IT_number       1

loop_
  _space_group_symop_operation_xyz
  'x, y, z'

loop_
  _atom_site_type_symbol
  _atom_site_label
  _atom_site_symmetry_multiplicity
  _atom_site_fract_x
  _atom_site_fract_y
  _atom_site_fract_z
  _atom_site_occupancy
  La  La1       1.0  0.16000  0.25000  0.11800  1.0000
  La  La2       1.0  0.47600  0.60800  0.14500  1.0000
  La  La3       1.0  0.47600  0.89200  0.14500  1.0000
  La  La4       1.0  0.97600  0.60800  0.35500  1.0000
  La  La5       1.0  0.97600  0.89200  0.35500  1.0000
  La  La6       1.0  0.66000  0.25000  0.38200  1.0000
  La  La7       1.0  0.34000  0.75000  0.61800  1.0000
  La  La8       1.0  0.02360  0.10800  0.64500  1.0000
  La  La9       1.0  0.02360  0.39200  0.64500  1.0000
  La  La10      1.0  0.52400  0.10800  0.85500  1.0000
  La  La11      1.0  0.52400  0.39200  0.85500  1.0000
  La  La12      1.0  0.84000  0.75000  0.88200  1.0000
  Rh  Rh1       1.0  0.18300  0.75000  0.05870  1.0000
  Rh  Rh2       1.0  0.15800  0.03700  0.10300  1.0000
  Rh  Rh3       1.0  0.15800  0.46300  0.10300  1.0000
  Rh  Rh4       1.0  0.65800  0.03700  0.39700  1.0000
  Rh  Rh5       1.0  0.65800  0.46300  0.39700  1.0000
  Rh  Rh6       1.0  0.68300  0.75000  0.44100  1.0000
  Rh  Rh7       1.0  0.31700  0.25000  0.55900  1.0000
  Rh  Rh8       1.0  0.34200  0.53700  0.60300  1.0000
  Rh  Rh9       1.0  0.34200  0.96300  0.60300  1.0000
  Rh  Rh10      1.0  0.84200  0.53700  0.89700  1.0000
  Rh  Rh11      1.0  0.84200  0.96300  0.89700  1.0000
  Rh  Rh12      1.0  0.81700  0.25000  0.94100  1.0000
  Si  Si1       1.0  0.86900  0.09580  0.13800  1.0000
  Si  Si2       1.0  0.86900  0.40400  0.13800  1.0000
  Si  Si3       1.0  0.36900  0.09580  0.36200  1.0000
  Si  Si4       1.0  0.36900  0.40400  0.36200  1.0000
  Si  Si5       1.0  0.63100  0.59600  0.63800  1.0000
  Si  Si6       1.0  0.63100  0.90400  0.63800  1.0000
  Si  Si7       1.0  0.13100  0.59600  0.86200  1.0000
  Si  Si8       1.0  0.13100  0.90400  0.86200  1.0000
