data_image0
_chemical_formula_structural       Li4O11Pa4
_chemical_formula_sum              "Li4 O11 Pa4"
_cell_length_a       5.19392
_cell_length_b       5.83561
_cell_length_c       7.30297
_cell_angle_alpha    90
_cell_angle_beta     90
_cell_angle_gamma    89.432

_space_group_name_H-M_alt    "P 1"
_space_group_IT_number       1

loop_
  _space_group_symop_operation_xyz
  'x, y, z'

loop_
  _atom_site_type_symbol
  _atom_site_label
  _atom_site_symmetry_multiplicity
  _atom_site_fract_x
  _atom_site_fract_y
  _atom_site_fract_z
  _atom_site_occupancy
  Li  Li1       1.0  0.50500  0.00928  0.00348  1.0000
  Li  Li2       1.0  0.50500  0.00928  0.49700  1.0000
  Li  Li3       1.0  0.98400  0.48900  0.52300  1.0000
  Li  Li4       1.0  0.98400  0.48900  0.97700  1.0000
  O   O1        1.0  0.68700  0.32900  0.05940  1.0000
  O   O2        1.0  0.83200  0.81400  0.06390  1.0000
  O   O3        1.0  0.37800  0.97300  0.25000  1.0000
  O   O4        1.0  0.83200  0.81400  0.43600  1.0000
  O   O5        1.0  0.68700  0.32900  0.44100  1.0000
  O   O6        1.0  0.31000  0.66300  0.56000  1.0000
  O   O7        1.0  0.17600  0.17900  0.56500  1.0000
  O   O8        1.0  0.63900  0.04480  0.75000  1.0000
  O   O9        1.0  0.84800  0.56200  0.75000  1.0000
  O   O10       1.0  0.17600  0.17900  0.93500  1.0000
  O   O11       1.0  0.31000  0.66300  0.94000  1.0000
  Pa  Pa1       1.0  0.96600  0.09210  0.25000  1.0000
  Pa  Pa2       1.0  0.53200  0.61400  0.25000  1.0000
  Pa  Pa3       1.0  0.47600  0.39800  0.75000  1.0000
  Pa  Pa4       1.0  0.02920  0.90200  0.75000  1.0000
