data_image0
_chemical_formula_structural       K12O16V4
_chemical_formula_sum              "K12 O16 V4"
_cell_length_a       8.23598
_cell_length_b       8.23598
_cell_length_c       8.23598
_cell_angle_alpha    90
_cell_angle_beta     90
_cell_angle_gamma    90

_space_group_name_H-M_alt    "P 1"
_space_group_IT_number       1

loop_
  _space_group_symop_operation_xyz
  'x, y, z'

loop_
  _atom_site_type_symbol
  _atom_site_label
  _atom_site_symmetry_multiplicity
  _atom_site_fract_x
  _atom_site_fract_y
  _atom_site_fract_z
  _atom_site_occupancy
  K   K1        1.0  0.51300  0.98700  0.01310  1.0000
  K   K2        1.0  0.46300  0.53700  0.03660  1.0000
  K   K3        1.0  0.78700  0.28700  0.21300  1.0000
  K   K4        1.0  0.21300  0.78700  0.28700  1.0000
  K   K5        1.0  0.53700  0.03660  0.46300  1.0000
  K   K6        1.0  0.48700  0.48700  0.48700  1.0000
  K   K7        1.0  0.98700  0.01310  0.51300  1.0000
  K   K8        1.0  0.03660  0.46300  0.53700  1.0000
  K   K9        1.0  0.71300  0.71300  0.71300  1.0000
  K   K10       1.0  0.28700  0.21300  0.78700  1.0000
  K   K11       1.0  0.96300  0.96300  0.96300  1.0000
  K   K12       1.0  0.01310  0.51300  0.98700  1.0000
  O   O1        1.0  0.75500  0.70600  0.03370  1.0000
  O   O2        1.0  0.14200  0.14200  0.14200  1.0000
  O   O3        1.0  0.46600  0.24500  0.20600  1.0000
  O   O4        1.0  0.20600  0.46600  0.24500  1.0000
  O   O5        1.0  0.79400  0.96600  0.25500  1.0000
  O   O6        1.0  0.53400  0.74500  0.29400  1.0000
  O   O7        1.0  0.85800  0.64200  0.35800  1.0000
  O   O8        1.0  0.24500  0.20600  0.46600  1.0000
  O   O9        1.0  0.74500  0.29400  0.53400  1.0000
  O   O10       1.0  0.35800  0.85800  0.64200  1.0000
  O   O11       1.0  0.03370  0.75500  0.70600  1.0000
  O   O12       1.0  0.29400  0.53400  0.74500  1.0000
  O   O13       1.0  0.70600  0.03370  0.75500  1.0000
  O   O14       1.0  0.96600  0.25500  0.79400  1.0000
  O   O15       1.0  0.64200  0.35800  0.85800  1.0000
  O   O16       1.0  0.25500  0.79400  0.96600  1.0000
  V   V1        1.0  0.73700  0.76300  0.23700  1.0000
  V   V2        1.0  0.26300  0.26300  0.26300  1.0000
  V   V3        1.0  0.76300  0.23700  0.73700  1.0000
  V   V4        1.0  0.23700  0.73700  0.76300  1.0000
