data_image0
_chemical_formula_structural       F8Se12Sn4Sr8
_chemical_formula_sum              "F8 Se12 Sn4 Sr8"
_cell_length_a       6.11433
_cell_length_b       19.4849
_cell_length_c       6.08863
_cell_angle_alpha    90
_cell_angle_beta     90
_cell_angle_gamma    90

_space_group_name_H-M_alt    "P 1"
_space_group_IT_number       1

loop_
  _space_group_symop_operation_xyz
  'x, y, z'

loop_
  _atom_site_type_symbol
  _atom_site_label
  _atom_site_symmetry_multiplicity
  _atom_site_fract_x
  _atom_site_fract_y
  _atom_site_fract_z
  _atom_site_occupancy
  F   F1        1.0  0.99900  0.00093  0.24600  1.0000
  F   F2        1.0  0.99900  0.49900  0.24600  1.0000
  F   F3        1.0  0.49900  0.00093  0.25400  1.0000
  F   F4        1.0  0.49900  0.49900  0.25400  1.0000
  F   F5        1.0  0.50100  0.50100  0.74600  1.0000
  F   F6        1.0  0.50100  0.99900  0.74600  1.0000
  F   F7        1.0  0.00131  0.50100  0.75400  1.0000
  F   F8        1.0  0.00131  0.99900  0.75400  1.0000
  Se  Se1       1.0  0.77200  0.75000  0.00097  1.0000
  Se  Se2       1.0  0.76000  0.13000  0.01170  1.0000
  Se  Se3       1.0  0.76000  0.37000  0.01170  1.0000
  Se  Se4       1.0  0.26000  0.13000  0.48800  1.0000
  Se  Se5       1.0  0.26000  0.37000  0.48800  1.0000
  Se  Se6       1.0  0.27200  0.75000  0.49900  1.0000
  Se  Se7       1.0  0.72800  0.25000  0.50100  1.0000
  Se  Se8       1.0  0.74000  0.63000  0.51200  1.0000
  Se  Se9       1.0  0.74000  0.87000  0.51200  1.0000
  Se  Se10      1.0  0.24000  0.63000  0.98800  1.0000
  Se  Se11      1.0  0.24000  0.87000  0.98800  1.0000
  Se  Se12      1.0  0.22800  0.25000  0.99900  1.0000
  Sn  Sn1       1.0  0.35600  0.75000  0.07910  1.0000
  Sn  Sn2       1.0  0.85600  0.75000  0.42100  1.0000
  Sn  Sn3       1.0  0.14400  0.25000  0.57900  1.0000
  Sn  Sn4       1.0  0.64400  0.25000  0.92100  1.0000
  Sr  Sr1       1.0  0.74500  0.57000  0.00515  1.0000
  Sr  Sr2       1.0  0.74500  0.93000  0.00515  1.0000
  Sr  Sr3       1.0  0.24500  0.57000  0.49500  1.0000
  Sr  Sr4       1.0  0.24500  0.93000  0.49500  1.0000
  Sr  Sr5       1.0  0.75500  0.07030  0.50500  1.0000
  Sr  Sr6       1.0  0.75500  0.43000  0.50500  1.0000
  Sr  Sr7       1.0  0.25500  0.07030  0.99500  1.0000
  Sr  Sr8       1.0  0.25500  0.43000  0.99500  1.0000
