data_image0
_chemical_formula_structural       B6H24N2
_chemical_formula_sum              "B6 H24 N2"
_cell_length_a       5.31819
_cell_length_b       5.31819
_cell_length_c       8.22385
_cell_angle_alpha    90
_cell_angle_beta     90
_cell_angle_gamma    98.505

_space_group_name_H-M_alt    "P 1"
_space_group_IT_number       1

loop_
  _space_group_symop_operation_xyz
  'x, y, z'

loop_
  _atom_site_type_symbol
  _atom_site_label
  _atom_site_symmetry_multiplicity
  _atom_site_fract_x
  _atom_site_fract_y
  _atom_site_fract_z
  _atom_site_occupancy
  B   B1        1.0  0.28700  0.71300  0.14100  1.0000
  B   B2        1.0  0.09800  0.90200  0.25000  1.0000
  B   B3        1.0  0.28700  0.71300  0.35900  1.0000
  B   B4        1.0  0.71300  0.28700  0.64100  1.0000
  B   B5        1.0  0.90200  0.09800  0.75000  1.0000
  B   B6        1.0  0.71300  0.28700  0.85900  1.0000
  H   H1        1.0  0.14500  0.85500  0.07700  1.0000
  H   H2        1.0  0.20200  0.50300  0.09030  1.0000
  H   H3        1.0  0.49700  0.79800  0.09030  1.0000
  H   H4        1.0  0.60700  0.39300  0.14700  1.0000
  H   H5        1.0  0.63400  0.12400  0.25000  1.0000
  H   H6        1.0  0.16400  0.12900  0.25000  1.0000
  H   H7        1.0  0.87600  0.36600  0.25000  1.0000
  H   H8        1.0  0.87100  0.83600  0.25000  1.0000
  H   H9        1.0  0.60700  0.39300  0.35300  1.0000
  H   H10       1.0  0.20200  0.50300  0.41000  1.0000
  H   H11       1.0  0.49700  0.79800  0.41000  1.0000
  H   H12       1.0  0.14500  0.85500  0.42300  1.0000
  H   H13       1.0  0.85500  0.14500  0.57700  1.0000
  H   H14       1.0  0.50300  0.20200  0.59000  1.0000
  H   H15       1.0  0.79800  0.49700  0.59000  1.0000
  H   H16       1.0  0.39300  0.60700  0.64700  1.0000
  H   H17       1.0  0.12900  0.16400  0.75000  1.0000
  H   H18       1.0  0.12400  0.63400  0.75000  1.0000
  H   H19       1.0  0.83600  0.87100  0.75000  1.0000
  H   H20       1.0  0.36600  0.87600  0.75000  1.0000
  H   H21       1.0  0.39300  0.60700  0.85300  1.0000
  H   H22       1.0  0.50300  0.20200  0.91000  1.0000
  H   H23       1.0  0.79800  0.49700  0.91000  1.0000
  H   H24       1.0  0.85500  0.14500  0.92300  1.0000
  N   N1        1.0  0.68100  0.31900  0.25000  1.0000
  N   N2        1.0  0.31900  0.68100  0.75000  1.0000
