data_image0
_chemical_formula_structural       As12Cu12Sm8
_chemical_formula_sum              "As12 Cu12 Sm8"
_cell_length_a       13.5302
_cell_length_b       4.03808
_cell_length_c       11.1335
_cell_angle_alpha    90
_cell_angle_beta     90
_cell_angle_gamma    90

_space_group_name_H-M_alt    "P 1"
_space_group_IT_number       1

loop_
  _space_group_symop_operation_xyz
  'x, y, z'

loop_
  _atom_site_type_symbol
  _atom_site_label
  _atom_site_symmetry_multiplicity
  _atom_site_fract_x
  _atom_site_fract_y
  _atom_site_fract_z
  _atom_site_occupancy
  As  As1       1.0  0.36800  0.25000  0.05530  1.0000
  As  As2       1.0  0.90100  0.75000  0.10300  1.0000
  As  As3       1.0  0.64400  0.25000  0.24100  1.0000
  As  As4       1.0  0.14400  0.25000  0.25900  1.0000
  As  As5       1.0  0.40100  0.75000  0.39700  1.0000
  As  As6       1.0  0.86800  0.25000  0.44500  1.0000
  As  As7       1.0  0.13200  0.75000  0.55500  1.0000
  As  As8       1.0  0.59900  0.25000  0.60300  1.0000
  As  As9       1.0  0.85600  0.75000  0.74100  1.0000
  As  As10      1.0  0.35600  0.75000  0.75900  1.0000
  As  As11      1.0  0.09930  0.25000  0.89700  1.0000
  As  As12      1.0  0.63200  0.75000  0.94500  1.0000
  Cu  Cu1       1.0  0.01200  0.25000  0.09830  1.0000
  Cu  Cu2       1.0  0.72200  0.75000  0.14400  1.0000
  Cu  Cu3       1.0  0.83200  0.25000  0.22700  1.0000
  Cu  Cu4       1.0  0.33200  0.25000  0.27300  1.0000
  Cu  Cu5       1.0  0.22200  0.75000  0.35600  1.0000
  Cu  Cu6       1.0  0.51200  0.25000  0.40200  1.0000
  Cu  Cu7       1.0  0.48800  0.75000  0.59800  1.0000
  Cu  Cu8       1.0  0.77800  0.25000  0.64400  1.0000
  Cu  Cu9       1.0  0.66800  0.75000  0.72700  1.0000
  Cu  Cu10      1.0  0.16800  0.75000  0.77300  1.0000
  Cu  Cu11      1.0  0.27800  0.25000  0.85600  1.0000
  Cu  Cu12      1.0  0.98800  0.75000  0.90200  1.0000
  Sm  Sm1       1.0  0.20600  0.75000  0.06670  1.0000
  Sm  Sm2       1.0  0.49700  0.75000  0.16000  1.0000
  Sm  Sm3       1.0  0.99700  0.75000  0.34000  1.0000
  Sm  Sm4       1.0  0.70600  0.75000  0.43300  1.0000
  Sm  Sm5       1.0  0.29400  0.25000  0.56700  1.0000
  Sm  Sm6       1.0  0.00336  0.25000  0.66000  1.0000
  Sm  Sm7       1.0  0.50300  0.25000  0.84000  1.0000
  Sm  Sm8       1.0  0.79400  0.25000  0.93300  1.0000
