data_image0
_chemical_formula_structural       Br4Re12Se16
_chemical_formula_sum              "Br4 Re12 Se16"
_cell_length_a       6.63671
_cell_length_b       11.9753
_cell_length_c       10.3761
_cell_angle_alpha    90
_cell_angle_beta     100.526
_cell_angle_gamma    90

_space_group_name_H-M_alt    "P 1"
_space_group_IT_number       1

loop_
  _space_group_symop_operation_xyz
  'x, y, z'

loop_
  _atom_site_type_symbol
  _atom_site_label
  _atom_site_symmetry_multiplicity
  _atom_site_fract_x
  _atom_site_fract_y
  _atom_site_fract_z
  _atom_site_occupancy
  Br  Br1       1.0  0.20800  0.35200  0.11200  1.0000
  Br  Br2       1.0  0.29200  0.85200  0.38800  1.0000
  Br  Br3       1.0  0.70800  0.14800  0.61200  1.0000
  Br  Br4       1.0  0.79200  0.64800  0.88800  1.0000
  Re  Re1       1.0  0.09040  0.14200  0.06150  1.0000
  Re  Re2       1.0  0.75900  0.02010  0.06270  1.0000
  Re  Re3       1.0  0.12200  0.93400  0.15900  1.0000
  Re  Re4       1.0  0.37800  0.43400  0.34100  1.0000
  Re  Re5       1.0  0.74100  0.52000  0.43700  1.0000
  Re  Re6       1.0  0.41000  0.64200  0.43900  1.0000
  Re  Re7       1.0  0.59000  0.35800  0.56100  1.0000
  Re  Re8       1.0  0.25900  0.48000  0.56300  1.0000
  Re  Re9       1.0  0.62200  0.56600  0.65900  1.0000
  Re  Re10      1.0  0.87800  0.06560  0.84100  1.0000
  Re  Re11      1.0  0.24100  0.98000  0.93700  1.0000
  Re  Re12      1.0  0.91000  0.85800  0.93900  1.0000
  Se  Se1       1.0  0.26200  0.78400  0.02820  1.0000
  Se  Se2       1.0  0.79800  0.82500  0.15700  1.0000
  Se  Se3       1.0  0.43400  0.05960  0.16800  1.0000
  Se  Se4       1.0  0.52900  0.59100  0.22600  1.0000
  Se  Se5       1.0  0.97100  0.09140  0.27400  1.0000
  Se  Se6       1.0  0.06650  0.56000  0.33200  1.0000
  Se  Se7       1.0  0.70200  0.32500  0.34300  1.0000
  Se  Se8       1.0  0.23800  0.28400  0.47200  1.0000
  Se  Se9       1.0  0.76200  0.71600  0.52800  1.0000
  Se  Se10      1.0  0.29800  0.67500  0.65700  1.0000
  Se  Se11      1.0  0.93400  0.44000  0.66800  1.0000
  Se  Se12      1.0  0.02940  0.90900  0.72600  1.0000
  Se  Se13      1.0  0.47100  0.40900  0.77400  1.0000
  Se  Se14      1.0  0.56600  0.94000  0.83200  1.0000
  Se  Se15      1.0  0.20200  0.17500  0.84300  1.0000
  Se  Se16      1.0  0.73800  0.21600  0.97200  1.0000
