data_image0
_chemical_formula_structural       Cl16Cs4O8Re4
_chemical_formula_sum              "Cl16 Cs4 O8 Re4"
_cell_length_a       6.65322
_cell_length_b       10.4203
_cell_length_c       11.7938
_cell_angle_alpha    90
_cell_angle_beta     92.1682
_cell_angle_gamma    90

_space_group_name_H-M_alt    "P 1"
_space_group_IT_number       1

loop_
  _space_group_symop_operation_xyz
  'x, y, z'

loop_
  _atom_site_type_symbol
  _atom_site_label
  _atom_site_symmetry_multiplicity
  _atom_site_fract_x
  _atom_site_fract_y
  _atom_site_fract_z
  _atom_site_occupancy
  Cl  Cl1       1.0  0.68600  0.61300  0.06680  1.0000
  Cl  Cl2       1.0  0.87900  0.90000  0.09180  1.0000
  Cl  Cl3       1.0  0.00376  0.28500  0.11700  1.0000
  Cl  Cl4       1.0  0.47800  0.32300  0.18900  1.0000
  Cl  Cl5       1.0  0.52200  0.82300  0.31100  1.0000
  Cl  Cl6       1.0  0.99600  0.78500  0.38300  1.0000
  Cl  Cl7       1.0  0.12100  0.40000  0.40800  1.0000
  Cl  Cl8       1.0  0.31400  0.11300  0.43300  1.0000
  Cl  Cl9       1.0  0.68600  0.88700  0.56700  1.0000
  Cl  Cl10      1.0  0.87900  0.60000  0.59200  1.0000
  Cl  Cl11      1.0  0.00376  0.21500  0.61700  1.0000
  Cl  Cl12      1.0  0.47800  0.17700  0.68900  1.0000
  Cl  Cl13      1.0  0.52200  0.67700  0.81100  1.0000
  Cl  Cl14      1.0  0.99600  0.71500  0.88300  1.0000
  Cl  Cl15      1.0  0.12100  0.10000  0.90800  1.0000
  Cl  Cl16      1.0  0.31400  0.38700  0.93300  1.0000
  Cs  Cs1       1.0  0.18700  0.61100  0.15300  1.0000
  Cs  Cs2       1.0  0.81300  0.11100  0.34700  1.0000
  Cs  Cs3       1.0  0.18700  0.88900  0.65300  1.0000
  Cs  Cs4       1.0  0.81300  0.38900  0.84700  1.0000
  O   O1        1.0  0.45300  0.84900  0.00884  1.0000
  O   O2        1.0  0.28900  0.06460  0.14800  1.0000
  O   O3        1.0  0.71100  0.56500  0.35200  1.0000
  O   O4        1.0  0.54700  0.34900  0.49100  1.0000
  O   O5        1.0  0.45300  0.65100  0.50900  1.0000
  O   O6        1.0  0.28900  0.43500  0.64800  1.0000
  O   O7        1.0  0.71100  0.93500  0.85200  1.0000
  O   O8        1.0  0.54700  0.15100  0.99100  1.0000
  Re  Re1       1.0  0.32300  0.18900  0.05280  1.0000
  Re  Re2       1.0  0.67700  0.68900  0.44700  1.0000
  Re  Re3       1.0  0.32300  0.31100  0.55300  1.0000
  Re  Re4       1.0  0.67700  0.81100  0.94700  1.0000
