data_image0
_chemical_formula_structural       Mo4Pt12Si16
_chemical_formula_sum              "Mo4 Pt12 Si16"
_cell_length_a       5.56584
_cell_length_b       3.5178
_cell_length_c       24.5701
_cell_angle_alpha    90
_cell_angle_beta     90
_cell_angle_gamma    90

_space_group_name_H-M_alt    "P 1"
_space_group_IT_number       1

loop_
  _space_group_symop_operation_xyz
  'x, y, z'

loop_
  _atom_site_type_symbol
  _atom_site_label
  _atom_site_symmetry_multiplicity
  _atom_site_fract_x
  _atom_site_fract_y
  _atom_site_fract_z
  _atom_site_occupancy
  Mo  Mo1       1.0  0.99400  0.25000  0.21000  1.0000
  Mo  Mo2       1.0  0.49400  0.25000  0.29000  1.0000
  Mo  Mo3       1.0  0.50600  0.75000  0.71000  1.0000
  Mo  Mo4       1.0  0.00551  0.75000  0.79000  1.0000
  Pt  Pt1       1.0  0.99700  0.75000  0.04840  1.0000
  Pt  Pt2       1.0  0.49700  0.75000  0.07450  1.0000
  Pt  Pt3       1.0  0.49500  0.25000  0.17000  1.0000
  Pt  Pt4       1.0  0.99500  0.25000  0.33000  1.0000
  Pt  Pt5       1.0  0.99700  0.75000  0.42600  1.0000
  Pt  Pt6       1.0  0.49700  0.75000  0.45200  1.0000
  Pt  Pt7       1.0  0.50300  0.25000  0.54800  1.0000
  Pt  Pt8       1.0  0.00266  0.25000  0.57400  1.0000
  Pt  Pt9       1.0  0.00467  0.75000  0.67000  1.0000
  Pt  Pt10      1.0  0.50500  0.75000  0.83000  1.0000
  Pt  Pt11      1.0  0.50300  0.25000  0.92600  1.0000
  Pt  Pt12      1.0  0.00306  0.25000  0.95200  1.0000
  Si  Si1       1.0  0.32000  0.25000  0.01950  1.0000
  Si  Si2       1.0  0.83900  0.25000  0.11000  1.0000
  Si  Si3       1.0  0.17900  0.75000  0.14600  1.0000
  Si  Si4       1.0  0.66800  0.75000  0.22600  1.0000
  Si  Si5       1.0  0.16800  0.75000  0.27400  1.0000
  Si  Si6       1.0  0.67900  0.75000  0.35400  1.0000
  Si  Si7       1.0  0.33900  0.25000  0.39000  1.0000
  Si  Si8       1.0  0.82000  0.25000  0.48100  1.0000
  Si  Si9       1.0  0.18000  0.75000  0.51900  1.0000
  Si  Si10      1.0  0.66100  0.75000  0.61000  1.0000
  Si  Si11      1.0  0.32100  0.25000  0.64600  1.0000
  Si  Si12      1.0  0.83200  0.25000  0.72600  1.0000
  Si  Si13      1.0  0.33200  0.25000  0.77400  1.0000
  Si  Si14      1.0  0.82100  0.25000  0.85400  1.0000
  Si  Si15      1.0  0.16100  0.75000  0.89000  1.0000
  Si  Si16      1.0  0.68000  0.75000  0.98100  1.0000
