data_image0
_chemical_formula_structural       Mo8Sb16Se8
_chemical_formula_sum              "Mo8 Sb16 Se8"
_cell_length_a       6.642
_cell_length_b       6.55274
_cell_length_c       18.6198
_cell_angle_alpha    90
_cell_angle_beta     94.3577
_cell_angle_gamma    90

_space_group_name_H-M_alt    "P 1"
_space_group_IT_number       1

loop_
  _space_group_symop_operation_xyz
  'x, y, z'

loop_
  _atom_site_type_symbol
  _atom_site_label
  _atom_site_symmetry_multiplicity
  _atom_site_fract_x
  _atom_site_fract_y
  _atom_site_fract_z
  _atom_site_occupancy
  Mo  Mo1       1.0  0.67400  0.37600  0.00552  1.0000
  Mo  Mo2       1.0  0.67400  0.87500  0.00571  1.0000
  Mo  Mo3       1.0  0.32600  0.37500  0.49400  1.0000
  Mo  Mo4       1.0  0.32600  0.87600  0.49400  1.0000
  Mo  Mo5       1.0  0.67400  0.12400  0.50600  1.0000
  Mo  Mo6       1.0  0.67400  0.62500  0.50600  1.0000
  Mo  Mo7       1.0  0.32600  0.12500  0.99400  1.0000
  Mo  Mo8       1.0  0.32600  0.62400  0.99400  1.0000
  Sb  Sb1       1.0  0.07500  0.87500  0.07440  1.0000
  Sb  Sb2       1.0  0.07510  0.37500  0.07460  1.0000
  Sb  Sb3       1.0  0.20200  0.89900  0.22700  1.0000
  Sb  Sb4       1.0  0.20200  0.35100  0.22700  1.0000
  Sb  Sb5       1.0  0.79800  0.85100  0.27300  1.0000
  Sb  Sb6       1.0  0.79800  0.39900  0.27300  1.0000
  Sb  Sb7       1.0  0.92500  0.87500  0.42500  1.0000
  Sb  Sb8       1.0  0.92500  0.37500  0.42600  1.0000
  Sb  Sb9       1.0  0.07500  0.62500  0.57400  1.0000
  Sb  Sb10      1.0  0.07510  0.12500  0.57500  1.0000
  Sb  Sb11      1.0  0.20200  0.60100  0.72700  1.0000
  Sb  Sb12      1.0  0.20200  0.14900  0.72700  1.0000
  Sb  Sb13      1.0  0.79800  0.64900  0.77300  1.0000
  Sb  Sb14      1.0  0.79800  0.10100  0.77300  1.0000
  Sb  Sb15      1.0  0.92500  0.62500  0.92500  1.0000
  Sb  Sb16      1.0  0.92500  0.12500  0.92600  1.0000
  Se  Se1       1.0  0.58800  0.12500  0.10000  1.0000
  Se  Se2       1.0  0.58700  0.62500  0.10100  1.0000
  Se  Se3       1.0  0.41300  0.12500  0.39900  1.0000
  Se  Se4       1.0  0.41200  0.62500  0.40000  1.0000
  Se  Se5       1.0  0.58800  0.37500  0.60000  1.0000
  Se  Se6       1.0  0.58700  0.87500  0.60100  1.0000
  Se  Se7       1.0  0.41300  0.37500  0.89900  1.0000
  Se  Se8       1.0  0.41200  0.87500  0.90000  1.0000
