data_image0
_chemical_formula_structural       F8S12Sn4Sr8
_chemical_formula_sum              "F8 S12 Sn4 Sr8"
_cell_length_a       5.93178
_cell_length_b       18.8839
_cell_length_c       5.92278
_cell_angle_alpha    90
_cell_angle_beta     90
_cell_angle_gamma    90

_space_group_name_H-M_alt    "P 1"
_space_group_IT_number       1

loop_
  _space_group_symop_operation_xyz
  'x, y, z'

loop_
  _atom_site_type_symbol
  _atom_site_label
  _atom_site_symmetry_multiplicity
  _atom_site_fract_x
  _atom_site_fract_y
  _atom_site_fract_z
  _atom_site_occupancy
  F   F1        1.0  0.99900  0.00048  0.24700  1.0000
  F   F2        1.0  0.99900  0.50000  0.24700  1.0000
  F   F3        1.0  0.49900  0.00048  0.25300  1.0000
  F   F4        1.0  0.49900  0.50000  0.25300  1.0000
  F   F5        1.0  0.50100  0.50000  0.74700  1.0000
  F   F6        1.0  0.50100  0.00000  0.74700  1.0000
  F   F7        1.0  0.00146  0.50000  0.75300  1.0000
  F   F8        1.0  0.00146  0.00000  0.75300  1.0000
  S   S1        1.0  0.75800  0.13200  0.01290  1.0000
  S   S2        1.0  0.75800  0.36800  0.01290  1.0000
  S   S3        1.0  0.75700  0.75000  0.01720  1.0000
  S   S4        1.0  0.25700  0.75000  0.48300  1.0000
  S   S5        1.0  0.25800  0.13200  0.48700  1.0000
  S   S6        1.0  0.25800  0.36800  0.48700  1.0000
  S   S7        1.0  0.74200  0.63200  0.51300  1.0000
  S   S8        1.0  0.74200  0.86800  0.51300  1.0000
  S   S9        1.0  0.74300  0.25000  0.51700  1.0000
  S   S10       1.0  0.24300  0.25000  0.98300  1.0000
  S   S11       1.0  0.24200  0.63200  0.98700  1.0000
  S   S12       1.0  0.24200  0.86800  0.98700  1.0000
  Sn  Sn1       1.0  0.34500  0.75000  0.07190  1.0000
  Sn  Sn2       1.0  0.84500  0.75000  0.42800  1.0000
  Sn  Sn3       1.0  0.15500  0.25000  0.57200  1.0000
  Sn  Sn4       1.0  0.65500  0.25000  0.92800  1.0000
  Sr  Sr1       1.0  0.74600  0.57400  0.00332  1.0000
  Sr  Sr2       1.0  0.74600  0.92600  0.00332  1.0000
  Sr  Sr3       1.0  0.24600  0.57400  0.49700  1.0000
  Sr  Sr4       1.0  0.24600  0.92600  0.49700  1.0000
  Sr  Sr5       1.0  0.75400  0.07450  0.50300  1.0000
  Sr  Sr6       1.0  0.75400  0.42600  0.50300  1.0000
  Sr  Sr7       1.0  0.25400  0.07450  0.99700  1.0000
  Sr  Sr8       1.0  0.25400  0.42600  0.99700  1.0000
