data_image0
_chemical_formula_structural       C12Fe2Li2N12Rb4
_chemical_formula_sum              "C12 Fe2 Li2 N12 Rb4"
_cell_length_a       7.08895
_cell_length_b       7.39445
_cell_length_c       10.1932
_cell_angle_alpha    90
_cell_angle_beta     90.2504
_cell_angle_gamma    90

_space_group_name_H-M_alt    "P 1"
_space_group_IT_number       1

loop_
  _space_group_symop_operation_xyz
  'x, y, z'

loop_
  _atom_site_type_symbol
  _atom_site_label
  _atom_site_symmetry_multiplicity
  _atom_site_fract_x
  _atom_site_fract_y
  _atom_site_fract_z
  _atom_site_occupancy
  C   C1        1.0  0.78300  0.14500  0.02480  1.0000
  C   C2        1.0  0.85500  0.78800  0.02830  1.0000
  C   C3        1.0  0.05160  0.00974  0.18200  1.0000
  C   C4        1.0  0.44800  0.51000  0.31800  1.0000
  C   C5        1.0  0.64500  0.28800  0.47200  1.0000
  C   C6        1.0  0.71700  0.64500  0.47500  1.0000
  C   C7        1.0  0.28300  0.35500  0.52500  1.0000
  C   C8        1.0  0.35500  0.71200  0.52800  1.0000
  C   C9        1.0  0.55200  0.49000  0.68200  1.0000
  C   C10       1.0  0.94800  0.99000  0.81800  1.0000
  C   C11       1.0  0.14500  0.21200  0.97200  1.0000
  C   C12       1.0  0.21700  0.85500  0.97500  1.0000
  Fe  Fe1       1.0  0.00000  0.00000  0.00000  1.0000
  Fe  Fe2       1.0  0.50000  0.50000  0.50000  1.0000
  Li  Li1       1.0  0.50000  0.50000  0.00000  1.0000
  Li  Li2       1.0  0.00000  0.00000  0.50000  1.0000
  N   N1        1.0  0.64900  0.23700  0.04030  1.0000
  N   N2        1.0  0.76500  0.65700  0.04610  1.0000
  N   N3        1.0  0.41900  0.51800  0.20400  1.0000
  N   N4        1.0  0.08050  0.01840  0.29600  1.0000
  N   N5        1.0  0.73500  0.15700  0.45400  1.0000
  N   N6        1.0  0.85100  0.73700  0.46000  1.0000
  N   N7        1.0  0.14900  0.26300  0.54000  1.0000
  N   N8        1.0  0.26500  0.84300  0.54600  1.0000
  N   N9        1.0  0.91900  0.98200  0.70400  1.0000
  N   N10       1.0  0.58100  0.48200  0.79600  1.0000
  N   N11       1.0  0.23500  0.34300  0.95400  1.0000
  N   N12       1.0  0.35100  0.76300  0.96000  1.0000
  Rb  Rb1       1.0  0.51500  0.94200  0.25000  1.0000
  Rb  Rb2       1.0  0.98500  0.44200  0.25000  1.0000
  Rb  Rb3       1.0  0.01510  0.55800  0.75000  1.0000
  Rb  Rb4       1.0  0.48500  0.05820  0.75000  1.0000
