data_image0
_chemical_formula_structural       Co8Ge12Te12
_chemical_formula_sum              "Co8 Ge12 Te12"
_cell_length_a       8.77473
_cell_length_b       8.77473
_cell_length_c       8.77473
_cell_angle_alpha    90.0077
_cell_angle_beta     89.9923
_cell_angle_gamma    89.9923

_space_group_name_H-M_alt    "P 1"
_space_group_IT_number       1

loop_
  _space_group_symop_operation_xyz
  'x, y, z'

loop_
  _atom_site_type_symbol
  _atom_site_label
  _atom_site_symmetry_multiplicity
  _atom_site_fract_x
  _atom_site_fract_y
  _atom_site_fract_z
  _atom_site_occupancy
  Co  Co1       1.0  0.75400  0.24600  0.24600  1.0000
  Co  Co2       1.0  0.25500  0.74900  0.24900  1.0000
  Co  Co3       1.0  0.24900  0.25500  0.25100  1.0000
  Co  Co4       1.0  0.74900  0.75100  0.25500  1.0000
  Co  Co5       1.0  0.25100  0.24900  0.74500  1.0000
  Co  Co6       1.0  0.75100  0.74500  0.74900  1.0000
  Co  Co7       1.0  0.74500  0.25100  0.75100  1.0000
  Co  Co8       1.0  0.24600  0.75400  0.75400  1.0000
  Ge  Ge1       1.0  0.32000  0.83200  0.00332  1.0000
  Ge  Ge2       1.0  0.00332  0.32000  0.16800  1.0000
  Ge  Ge3       1.0  0.33200  0.50000  0.17900  1.0000
  Ge  Ge4       1.0  0.83200  0.99700  0.32000  1.0000
  Ge  Ge5       1.0  0.50000  0.82100  0.33200  1.0000
  Ge  Ge6       1.0  0.82100  0.66800  0.50000  1.0000
  Ge  Ge7       1.0  0.17900  0.33200  0.50000  1.0000
  Ge  Ge8       1.0  0.50000  0.17900  0.66800  1.0000
  Ge  Ge9       1.0  0.16800  0.00332  0.68000  1.0000
  Ge  Ge10      1.0  0.66800  0.50000  0.82100  1.0000
  Ge  Ge11      1.0  0.99700  0.68000  0.83200  1.0000
  Ge  Ge12      1.0  0.68000  0.16800  0.99700  1.0000
  Te  Te1       1.0  0.34400  0.14900  0.00016  1.0000
  Te  Te2       1.0  0.00000  0.65600  0.14900  1.0000
  Te  Te3       1.0  0.64900  0.49600  0.15600  1.0000
  Te  Te4       1.0  0.14900  0.00000  0.34400  1.0000
  Te  Te5       1.0  0.50400  0.15600  0.35100  1.0000
  Te  Te6       1.0  0.84400  0.35100  0.49600  1.0000
  Te  Te7       1.0  0.15600  0.64900  0.50400  1.0000
  Te  Te8       1.0  0.49600  0.84400  0.64900  1.0000
  Te  Te9       1.0  0.85100  0.00016  0.65600  1.0000
  Te  Te10      1.0  0.35100  0.50400  0.84400  1.0000
  Te  Te11      1.0  0.00016  0.34400  0.85100  1.0000
  Te  Te12      1.0  0.65600  0.85100  0.00000  1.0000
