data_image0
_chemical_formula_structural       Ba4C6F2La2O18
_chemical_formula_sum              "Ba4 C6 F2 La2 O18"
_cell_length_a       13.1895
_cell_length_b       5.0988
_cell_length_c       6.61734
_cell_angle_alpha    90
_cell_angle_beta     106.032
_cell_angle_gamma    90

_space_group_name_H-M_alt    "P 1"
_space_group_IT_number       1

loop_
  _space_group_symop_operation_xyz
  'x, y, z'

loop_
  _atom_site_type_symbol
  _atom_site_label
  _atom_site_symmetry_multiplicity
  _atom_site_fract_x
  _atom_site_fract_y
  _atom_site_fract_z
  _atom_site_occupancy
  Ba  Ba1       1.0  0.07470  0.25000  0.29100  1.0000
  Ba  Ba2       1.0  0.58500  0.75000  0.30800  1.0000
  Ba  Ba3       1.0  0.41500  0.25000  0.69200  1.0000
  Ba  Ba4       1.0  0.92500  0.75000  0.70900  1.0000
  C   C1        1.0  0.42800  0.25000  0.17500  1.0000
  C   C2        1.0  0.87100  0.75000  0.20600  1.0000
  C   C3        1.0  0.27400  0.75000  0.48800  1.0000
  C   C4        1.0  0.72600  0.25000  0.51200  1.0000
  C   C5        1.0  0.12900  0.25000  0.79400  1.0000
  C   C6        1.0  0.57200  0.75000  0.82500  1.0000
  F   F1        1.0  0.06990  0.75000  0.09290  1.0000
  F   F2        1.0  0.93000  0.25000  0.90700  1.0000
  La  La1       1.0  0.23900  0.75000  0.01280  1.0000
  La  La2       1.0  0.76100  0.25000  0.98700  1.0000
  O   O1        1.0  0.81600  0.75000  0.00867  1.0000
  O   O2        1.0  0.39900  0.02980  0.07740  1.0000
  O   O3        1.0  0.39900  0.47000  0.07740  1.0000
  O   O4        1.0  0.89500  0.52800  0.30100  1.0000
  O   O5        1.0  0.89500  0.97200  0.30100  1.0000
  O   O6        1.0  0.70000  0.25000  0.30900  1.0000
  O   O7        1.0  0.49300  0.25000  0.36000  1.0000
  O   O8        1.0  0.26300  0.53200  0.38400  1.0000
  O   O9        1.0  0.26300  0.96800  0.38400  1.0000
  O   O10       1.0  0.73700  0.03160  0.61600  1.0000
  O   O11       1.0  0.73700  0.46800  0.61600  1.0000
  O   O12       1.0  0.50700  0.75000  0.64000  1.0000
  O   O13       1.0  0.30000  0.75000  0.69100  1.0000
  O   O14       1.0  0.10500  0.02810  0.69900  1.0000
  O   O15       1.0  0.10500  0.47200  0.69900  1.0000
  O   O16       1.0  0.60100  0.53000  0.92300  1.0000
  O   O17       1.0  0.60100  0.97000  0.92300  1.0000
  O   O18       1.0  0.18400  0.25000  0.99100  1.0000
