data_image0
_chemical_formula_structural       B4F16N4O8
_chemical_formula_sum              "B4 F16 N4 O8"
_cell_length_a       6.14223
_cell_length_b       6.43178
_cell_length_c       8.52727
_cell_angle_alpha    90
_cell_angle_beta     103.421
_cell_angle_gamma    90

_space_group_name_H-M_alt    "P 1"
_space_group_IT_number       1

loop_
  _space_group_symop_operation_xyz
  'x, y, z'

loop_
  _atom_site_type_symbol
  _atom_site_label
  _atom_site_symmetry_multiplicity
  _atom_site_fract_x
  _atom_site_fract_y
  _atom_site_fract_z
  _atom_site_occupancy
  B   B1        1.0  0.25900  0.70100  0.00299  1.0000
  B   B2        1.0  0.74100  0.20100  0.49700  1.0000
  B   B3        1.0  0.25900  0.79900  0.50300  1.0000
  B   B4        1.0  0.74100  0.29900  0.99700  1.0000
  F   F1        1.0  0.92300  0.16300  0.04260  1.0000
  F   F2        1.0  0.45200  0.82200  0.05850  1.0000
  F   F3        1.0  0.22600  0.57000  0.12700  1.0000
  F   F4        1.0  0.71800  0.41500  0.13200  1.0000
  F   F5        1.0  0.28200  0.91500  0.36800  1.0000
  F   F6        1.0  0.77400  0.07030  0.37300  1.0000
  F   F7        1.0  0.54800  0.32200  0.44200  1.0000
  F   F8        1.0  0.07730  0.66300  0.45700  1.0000
  F   F9        1.0  0.92300  0.33700  0.54300  1.0000
  F   F10       1.0  0.45200  0.67800  0.55800  1.0000
  F   F11       1.0  0.22600  0.93000  0.62700  1.0000
  F   F12       1.0  0.71800  0.08540  0.63200  1.0000
  F   F13       1.0  0.28200  0.58500  0.86800  1.0000
  F   F14       1.0  0.77400  0.43000  0.87300  1.0000
  F   F15       1.0  0.54800  0.17800  0.94200  1.0000
  F   F16       1.0  0.07730  0.83700  0.95700  1.0000
  N   N1        1.0  0.24000  0.23900  0.24300  1.0000
  N   N2        1.0  0.76000  0.73900  0.25700  1.0000
  N   N3        1.0  0.24000  0.26100  0.74300  1.0000
  N   N4        1.0  0.76000  0.76100  0.75700  1.0000
  O   O1        1.0  0.34800  0.17300  0.16300  1.0000
  O   O2        1.0  0.87000  0.80500  0.17800  1.0000
  O   O3        1.0  0.13000  0.30500  0.32200  1.0000
  O   O4        1.0  0.65200  0.67300  0.33700  1.0000
  O   O5        1.0  0.34800  0.32700  0.66300  1.0000
  O   O6        1.0  0.87000  0.69500  0.67800  1.0000
  O   O7        1.0  0.13000  0.19500  0.82200  1.0000
  O   O8        1.0  0.65200  0.82700  0.83700  1.0000
