data_image0
_chemical_formula_structural       Ca8Cl8O12Si4
_chemical_formula_sum              "Ca8 Cl8 O12 Si4"
_cell_length_a       8.8842
_cell_length_b       8.8842
_cell_length_c       8.8842
_cell_angle_alpha    106.112
_cell_angle_beta     116.421
_cell_angle_gamma    106.112

_space_group_name_H-M_alt    "P 1"
_space_group_IT_number       1

loop_
  _space_group_symop_operation_xyz
  'x, y, z'

loop_
  _atom_site_type_symbol
  _atom_site_label
  _atom_site_symmetry_multiplicity
  _atom_site_fract_x
  _atom_site_fract_y
  _atom_site_fract_z
  _atom_site_occupancy
  Ca  Ca1       1.0  0.18900  0.66900  0.01590  1.0000
  Ca  Ca2       1.0  0.52000  0.17300  0.18900  1.0000
  Ca  Ca3       1.0  0.01590  0.82700  0.34700  1.0000
  Ca  Ca4       1.0  0.65700  0.66900  0.48500  1.0000
  Ca  Ca5       1.0  0.34700  0.33100  0.52000  1.0000
  Ca  Ca6       1.0  0.98800  0.17200  0.65700  1.0000
  Ca  Ca7       1.0  0.48500  0.82800  0.81600  1.0000
  Ca  Ca8       1.0  0.81600  0.33100  0.98800  1.0000
  Cl  Cl1       1.0  0.58100  0.82100  0.24500  1.0000
  Cl  Cl2       1.0  0.74600  0.50000  0.24600  1.0000
  Cl  Cl3       1.0  0.29200  0.00000  0.29200  1.0000
  Cl  Cl4       1.0  0.24500  0.66400  0.42400  1.0000
  Cl  Cl5       1.0  0.76000  0.33600  0.58100  1.0000
  Cl  Cl6       1.0  0.71300  0.00000  0.71300  1.0000
  Cl  Cl7       1.0  0.24600  0.50000  0.74600  1.0000
  Cl  Cl8       1.0  0.42400  0.17900  0.76000  1.0000
  O   O1        1.0  0.90400  0.61100  0.01720  1.0000
  O   O2        1.0  0.82900  0.87700  0.05340  1.0000
  O   O3        1.0  0.71300  0.11500  0.10200  1.0000
  O   O4        1.0  0.05340  0.22500  0.17700  1.0000
  O   O5        1.0  0.40600  0.38900  0.29300  1.0000
  O   O6        1.0  0.01720  0.11300  0.40600  1.0000
  O   O7        1.0  0.98800  0.88500  0.59800  1.0000
  O   O8        1.0  0.59800  0.61100  0.71300  1.0000
  O   O9        1.0  0.95200  0.77500  0.82900  1.0000
  O   O10       1.0  0.29300  0.88700  0.90400  1.0000
  O   O11       1.0  0.17700  0.12300  0.95200  1.0000
  O   O12       1.0  0.10200  0.38900  0.98800  1.0000
  Si  Si1       1.0  0.19200  0.29400  0.10700  1.0000
  Si  Si2       1.0  0.89900  0.08560  0.19200  1.0000
  Si  Si3       1.0  0.10700  0.91400  0.81300  1.0000
  Si  Si4       1.0  0.81300  0.70600  0.89900  1.0000
