data_image0
_chemical_formula_structural       B6O18Sr6Y2
_chemical_formula_sum              "B6 O18 Sr6 Y2"
_cell_length_a       7.79115
_cell_length_b       7.79115
_cell_length_c       7.79115
_cell_angle_alpha    105.084
_cell_angle_beta     105.084
_cell_angle_gamma    105.084

_space_group_name_H-M_alt    "P 1"
_space_group_IT_number       1

loop_
  _space_group_symop_operation_xyz
  'x, y, z'

loop_
  _atom_site_type_symbol
  _atom_site_label
  _atom_site_symmetry_multiplicity
  _atom_site_fract_x
  _atom_site_fract_y
  _atom_site_fract_z
  _atom_site_occupancy
  B   B1        1.0  0.29400  0.38600  0.03640  1.0000
  B   B2        1.0  0.38600  0.03640  0.29400  1.0000
  B   B3        1.0  0.03640  0.29400  0.38600  1.0000
  B   B4        1.0  0.96400  0.70600  0.61400  1.0000
  B   B5        1.0  0.61400  0.96400  0.70600  1.0000
  B   B6        1.0  0.70600  0.61400  0.96400  1.0000
  O   O1        1.0  0.73700  0.80800  0.02450  1.0000
  O   O2        1.0  0.81500  0.53600  0.06330  1.0000
  O   O3        1.0  0.46400  0.93700  0.18500  1.0000
  O   O4        1.0  0.97500  0.26300  0.19200  1.0000
  O   O5        1.0  0.44400  0.50200  0.20500  1.0000
  O   O6        1.0  0.19200  0.97500  0.26300  1.0000
  O   O7        1.0  0.50200  0.20500  0.44400  1.0000
  O   O8        1.0  0.93700  0.18500  0.46400  1.0000
  O   O9        1.0  0.79500  0.55600  0.49800  1.0000
  O   O10       1.0  0.20500  0.44400  0.50200  1.0000
  O   O11       1.0  0.06330  0.81500  0.53600  1.0000
  O   O12       1.0  0.49800  0.79500  0.55600  1.0000
  O   O13       1.0  0.80800  0.02450  0.73700  1.0000
  O   O14       1.0  0.55600  0.49800  0.79500  1.0000
  O   O15       1.0  0.02450  0.73700  0.80800  1.0000
  O   O16       1.0  0.53600  0.06330  0.81500  1.0000
  O   O17       1.0  0.18500  0.46400  0.93700  1.0000
  O   O18       1.0  0.26300  0.19200  0.97500  1.0000
  Sr  Sr1       1.0  0.64400  0.26400  0.15000  1.0000
  Sr  Sr2       1.0  0.15000  0.64400  0.26400  1.0000
  Sr  Sr3       1.0  0.73600  0.85000  0.35600  1.0000
  Sr  Sr4       1.0  0.26400  0.15000  0.64400  1.0000
  Sr  Sr5       1.0  0.85000  0.35600  0.73600  1.0000
  Sr  Sr6       1.0  0.35600  0.73600  0.85000  1.0000
  Y   Y1        1.0  0.00000  0.00000  0.00000  1.0000
  Y   Y2        1.0  0.50000  0.50000  0.50000  1.0000
