data_image0
_chemical_formula_structural       N6Np2O22Rb2
_chemical_formula_sum              "N6 Np2 O22 Rb2"
_cell_length_a       7.97102
_cell_length_b       7.97102
_cell_length_c       7.97102
_cell_angle_alpha    110.979
_cell_angle_beta     110.979
_cell_angle_gamma    69.0214

_space_group_name_H-M_alt    "P 1"
_space_group_IT_number       1

loop_
  _space_group_symop_operation_xyz
  'x, y, z'

loop_
  _atom_site_type_symbol
  _atom_site_label
  _atom_site_symmetry_multiplicity
  _atom_site_fract_x
  _atom_site_fract_y
  _atom_site_fract_z
  _atom_site_occupancy
  N   N1        1.0  0.57200  0.25000  0.07220  1.0000
  N   N2        1.0  0.07220  0.42800  0.25000  1.0000
  N   N3        1.0  0.25000  0.92800  0.42800  1.0000
  N   N4        1.0  0.75000  0.07220  0.57200  1.0000
  N   N5        1.0  0.92800  0.57200  0.75000  1.0000
  N   N6        1.0  0.42800  0.75000  0.92800  1.0000
  Np  Np1       1.0  0.75000  0.75000  0.25000  1.0000
  Np  Np2       1.0  0.25000  0.25000  0.75000  1.0000
  O   O1        1.0  0.42200  0.38400  0.07070  1.0000
  O   O2        1.0  0.42900  0.88400  0.07840  1.0000
  O   O3        1.0  0.92200  0.42900  0.11600  1.0000
  O   O4        1.0  0.84600  0.84600  0.15400  1.0000
  O   O5        1.0  0.70800  0.25000  0.20800  1.0000
  O   O6        1.0  0.20800  0.29200  0.25000  1.0000
  O   O7        1.0  0.25000  0.79200  0.29200  1.0000
  O   O8        1.0  0.65400  0.65400  0.34600  1.0000
  O   O9        1.0  0.07070  0.57800  0.38400  1.0000
  O   O10       1.0  0.61600  0.07070  0.42200  1.0000
  O   O11       1.0  0.11600  0.07840  0.42900  1.0000
  O   O12       1.0  0.88400  0.92200  0.57100  1.0000
  O   O13       1.0  0.38400  0.92900  0.57800  1.0000
  O   O14       1.0  0.92900  0.42200  0.61600  1.0000
  O   O15       1.0  0.34600  0.34600  0.65400  1.0000
  O   O16       1.0  0.75000  0.20800  0.70800  1.0000
  O   O17       1.0  0.79200  0.70800  0.75000  1.0000
  O   O18       1.0  0.29200  0.75000  0.79200  1.0000
  O   O19       1.0  0.15400  0.15400  0.84600  1.0000
  O   O20       1.0  0.07840  0.57100  0.88400  1.0000
  O   O21       1.0  0.57100  0.11600  0.92200  1.0000
  O   O22       1.0  0.57800  0.61600  0.92900  1.0000
  Rb  Rb1       1.0  0.00000  0.00000  0.00000  1.0000
  Rb  Rb2       1.0  0.50000  0.50000  0.50000  1.0000
