data_image0
_chemical_formula_structural       Co8Se12Sn12
_chemical_formula_sum              "Co8 Se12 Sn12"
_cell_length_a       8.77428
_cell_length_b       8.77428
_cell_length_c       8.77428
_cell_angle_alpha    90.1127
_cell_angle_beta     89.8873
_cell_angle_gamma    89.8873

_space_group_name_H-M_alt    "P 1"
_space_group_IT_number       1

loop_
  _space_group_symop_operation_xyz
  'x, y, z'

loop_
  _atom_site_type_symbol
  _atom_site_label
  _atom_site_symmetry_multiplicity
  _atom_site_fract_x
  _atom_site_fract_y
  _atom_site_fract_z
  _atom_site_occupancy
  Co  Co1       1.0  0.75500  0.74100  0.23800  1.0000
  Co  Co2       1.0  0.25900  0.23800  0.24500  1.0000
  Co  Co3       1.0  0.23800  0.75500  0.25900  1.0000
  Co  Co4       1.0  0.74100  0.25900  0.25900  1.0000
  Co  Co5       1.0  0.25900  0.74100  0.74100  1.0000
  Co  Co6       1.0  0.76200  0.24500  0.74100  1.0000
  Co  Co7       1.0  0.74100  0.76200  0.75500  1.0000
  Co  Co8       1.0  0.24500  0.25900  0.76200  1.0000
  Se  Se1       1.0  0.66100  0.84400  0.00156  1.0000
  Se  Se2       1.0  0.00156  0.66100  0.15600  1.0000
  Se  Se3       1.0  0.65600  0.49800  0.16100  1.0000
  Se  Se4       1.0  0.15600  0.00156  0.33900  1.0000
  Se  Se5       1.0  0.50200  0.16100  0.34400  1.0000
  Se  Se6       1.0  0.83900  0.34400  0.49800  1.0000
  Se  Se7       1.0  0.16100  0.65600  0.50200  1.0000
  Se  Se8       1.0  0.49800  0.83900  0.65600  1.0000
  Se  Se9       1.0  0.84400  0.99800  0.66100  1.0000
  Se  Se10      1.0  0.34400  0.50200  0.83900  1.0000
  Se  Se11      1.0  0.99800  0.33900  0.84400  1.0000
  Se  Se12      1.0  0.33900  0.15600  0.99800  1.0000
  Sn  Sn1       1.0  0.32700  0.84300  0.00089  1.0000
  Sn  Sn2       1.0  0.00089  0.32700  0.15700  1.0000
  Sn  Sn3       1.0  0.34300  0.50000  0.17200  1.0000
  Sn  Sn4       1.0  0.84300  0.99900  0.32700  1.0000
  Sn  Sn5       1.0  0.50000  0.82800  0.34300  1.0000
  Sn  Sn6       1.0  0.82800  0.65700  0.50000  1.0000
  Sn  Sn7       1.0  0.17200  0.34300  0.50000  1.0000
  Sn  Sn8       1.0  0.50000  0.17200  0.65700  1.0000
  Sn  Sn9       1.0  0.15700  0.00089  0.67300  1.0000
  Sn  Sn10      1.0  0.65700  0.50000  0.82800  1.0000
  Sn  Sn11      1.0  0.99900  0.67300  0.84300  1.0000
  Sn  Sn12      1.0  0.67300  0.15700  0.99900  1.0000
