data_image0
_chemical_formula_structural       Lu20Sb12
_chemical_formula_sum              "Lu20 Sb12"
_cell_length_a       7.92997
_cell_length_b       9.14823
_cell_length_c       11.5658
_cell_angle_alpha    90
_cell_angle_beta     90
_cell_angle_gamma    90

_space_group_name_H-M_alt    "P 1"
_space_group_IT_number       1

loop_
  _space_group_symop_operation_xyz
  'x, y, z'

loop_
  _atom_site_type_symbol
  _atom_site_label
  _atom_site_symmetry_multiplicity
  _atom_site_fract_x
  _atom_site_fract_y
  _atom_site_fract_z
  _atom_site_occupancy
  Lu  Lu1       1.0  0.97300  0.25000  0.00973  1.0000
  Lu  Lu2       1.0  0.69500  0.56200  0.06070  1.0000
  Lu  Lu3       1.0  0.69500  0.93800  0.06070  1.0000
  Lu  Lu4       1.0  0.35500  0.75000  0.21500  1.0000
  Lu  Lu5       1.0  0.31400  0.25000  0.21900  1.0000
  Lu  Lu6       1.0  0.81400  0.25000  0.28100  1.0000
  Lu  Lu7       1.0  0.85500  0.75000  0.28500  1.0000
  Lu  Lu8       1.0  0.19500  0.56200  0.43900  1.0000
  Lu  Lu9       1.0  0.19500  0.93800  0.43900  1.0000
  Lu  Lu10      1.0  0.47300  0.25000  0.49000  1.0000
  Lu  Lu11      1.0  0.52700  0.75000  0.51000  1.0000
  Lu  Lu12      1.0  0.80500  0.06190  0.56100  1.0000
  Lu  Lu13      1.0  0.80500  0.43800  0.56100  1.0000
  Lu  Lu14      1.0  0.14500  0.25000  0.71500  1.0000
  Lu  Lu15      1.0  0.18600  0.75000  0.71900  1.0000
  Lu  Lu16      1.0  0.68600  0.75000  0.78100  1.0000
  Lu  Lu17      1.0  0.64500  0.25000  0.78500  1.0000
  Lu  Lu18      1.0  0.30500  0.06190  0.93900  1.0000
  Lu  Lu19      1.0  0.30500  0.43800  0.93900  1.0000
  Lu  Lu20      1.0  0.02690  0.75000  0.99000  1.0000
  Sb  Sb1       1.0  0.59000  0.25000  0.04120  1.0000
  Sb  Sb2       1.0  0.06640  0.50300  0.17400  1.0000
  Sb  Sb3       1.0  0.06640  0.99700  0.17400  1.0000
  Sb  Sb4       1.0  0.56600  0.50300  0.32600  1.0000
  Sb  Sb5       1.0  0.56600  0.99700  0.32600  1.0000
  Sb  Sb6       1.0  0.08970  0.25000  0.45900  1.0000
  Sb  Sb7       1.0  0.91000  0.75000  0.54100  1.0000
  Sb  Sb8       1.0  0.43400  0.00297  0.67400  1.0000
  Sb  Sb9       1.0  0.43400  0.49700  0.67400  1.0000
  Sb  Sb10      1.0  0.93400  0.00297  0.82600  1.0000
  Sb  Sb11      1.0  0.93400  0.49700  0.82600  1.0000
  Sb  Sb12      1.0  0.41000  0.75000  0.95900  1.0000
