data_image0
_chemical_formula_structural       S12Sn4Tl16
_chemical_formula_sum              "S12 Sn4 Tl16"
_cell_length_a       8.1293
_cell_length_b       8.1293
_cell_length_c       14.1744
_cell_angle_alpha    90
_cell_angle_beta     90
_cell_angle_gamma    90

_space_group_name_H-M_alt    "P 1"
_space_group_IT_number       1

loop_
  _space_group_symop_operation_xyz
  'x, y, z'

loop_
  _atom_site_type_symbol
  _atom_site_label
  _atom_site_symmetry_multiplicity
  _atom_site_fract_x
  _atom_site_fract_y
  _atom_site_fract_z
  _atom_site_occupancy
  S   S1        1.0  0.75000  0.75000  0.08140  1.0000
  S   S2        1.0  0.58000  0.07980  0.25000  1.0000
  S   S3        1.0  0.92000  0.42000  0.25000  1.0000
  S   S4        1.0  0.42000  0.58000  0.25000  1.0000
  S   S5        1.0  0.07980  0.92000  0.25000  1.0000
  S   S6        1.0  0.25000  0.25000  0.41900  1.0000
  S   S7        1.0  0.75000  0.75000  0.58100  1.0000
  S   S8        1.0  0.92000  0.07980  0.75000  1.0000
  S   S9        1.0  0.58000  0.42000  0.75000  1.0000
  S   S10       1.0  0.07980  0.58000  0.75000  1.0000
  S   S11       1.0  0.42000  0.92000  0.75000  1.0000
  S   S12       1.0  0.25000  0.25000  0.91900  1.0000
  Sn  Sn1       1.0  0.25000  0.25000  0.23900  1.0000
  Sn  Sn2       1.0  0.75000  0.75000  0.26100  1.0000
  Sn  Sn3       1.0  0.25000  0.25000  0.73900  1.0000
  Sn  Sn4       1.0  0.75000  0.75000  0.76100  1.0000
  Tl  Tl1       1.0  0.89000  0.09060  0.10700  1.0000
  Tl  Tl2       1.0  0.61000  0.40900  0.10700  1.0000
  Tl  Tl3       1.0  0.09060  0.61000  0.10700  1.0000
  Tl  Tl4       1.0  0.40900  0.89000  0.10700  1.0000
  Tl  Tl5       1.0  0.90900  0.11000  0.39300  1.0000
  Tl  Tl6       1.0  0.59100  0.39000  0.39300  1.0000
  Tl  Tl7       1.0  0.11000  0.59100  0.39300  1.0000
  Tl  Tl8       1.0  0.39000  0.90900  0.39300  1.0000
  Tl  Tl9       1.0  0.61000  0.09060  0.60700  1.0000
  Tl  Tl10      1.0  0.89000  0.40900  0.60700  1.0000
  Tl  Tl11      1.0  0.40900  0.61000  0.60700  1.0000
  Tl  Tl12      1.0  0.09060  0.89000  0.60700  1.0000
  Tl  Tl13      1.0  0.59100  0.11000  0.89300  1.0000
  Tl  Tl14      1.0  0.90900  0.39000  0.89300  1.0000
  Tl  Tl15      1.0  0.39000  0.59100  0.89300  1.0000
  Tl  Tl16      1.0  0.11000  0.90900  0.89300  1.0000
