data_image0
_chemical_formula_structural       B6Ba6In2O18
_chemical_formula_sum              "B6 Ba6 In2 O18"
_cell_length_a       7.99258
_cell_length_b       7.99258
_cell_length_c       7.99258
_cell_angle_alpha    105.594
_cell_angle_beta     105.594
_cell_angle_gamma    105.594

_space_group_name_H-M_alt    "P 1"
_space_group_IT_number       1

loop_
  _space_group_symop_operation_xyz
  'x, y, z'

loop_
  _atom_site_type_symbol
  _atom_site_label
  _atom_site_symmetry_multiplicity
  _atom_site_fract_x
  _atom_site_fract_y
  _atom_site_fract_z
  _atom_site_occupancy
  B   B1        1.0  0.45200  0.20900  0.13300  1.0000
  B   B2        1.0  0.13300  0.45200  0.20900  1.0000
  B   B3        1.0  0.20900  0.13300  0.45200  1.0000
  B   B4        1.0  0.79100  0.86700  0.54800  1.0000
  B   B5        1.0  0.86700  0.54800  0.79100  1.0000
  B   B6        1.0  0.54800  0.79100  0.86700  1.0000
  Ba  Ba1       1.0  0.76300  0.66400  0.15600  1.0000
  Ba  Ba2       1.0  0.33600  0.84400  0.23700  1.0000
  Ba  Ba3       1.0  0.84400  0.23700  0.33600  1.0000
  Ba  Ba4       1.0  0.15600  0.76300  0.66400  1.0000
  Ba  Ba5       1.0  0.66400  0.15600  0.76300  1.0000
  Ba  Ba6       1.0  0.23700  0.33600  0.84400  1.0000
  In  In1       1.0  0.00000  0.00000  0.00000  1.0000
  In  In2       1.0  0.50000  0.50000  0.50000  1.0000
  O   O1        1.0  0.28400  0.06830  0.00410  1.0000
  O   O2        1.0  0.57300  0.30300  0.06700  1.0000
  O   O3        1.0  0.00410  0.28400  0.06830  1.0000
  O   O4        1.0  0.32300  0.50200  0.23500  1.0000
  O   O5        1.0  0.06830  0.00410  0.28400  1.0000
  O   O6        1.0  0.06700  0.57300  0.30300  1.0000
  O   O7        1.0  0.50200  0.23500  0.32300  1.0000
  O   O8        1.0  0.69700  0.93300  0.42700  1.0000
  O   O9        1.0  0.76500  0.67700  0.49800  1.0000
  O   O10       1.0  0.23500  0.32300  0.50200  1.0000
  O   O11       1.0  0.30300  0.06700  0.57300  1.0000
  O   O12       1.0  0.49800  0.76500  0.67700  1.0000
  O   O13       1.0  0.93300  0.42700  0.69700  1.0000
  O   O14       1.0  0.93200  0.99600  0.71600  1.0000
  O   O15       1.0  0.67700  0.49800  0.76500  1.0000
  O   O16       1.0  0.99600  0.71600  0.93200  1.0000
  O   O17       1.0  0.42700  0.69700  0.93300  1.0000
  O   O18       1.0  0.71600  0.93200  0.99600  1.0000
