data_image0
_chemical_formula_structural       Ga12Sm20
_chemical_formula_sum              "Ga12 Sm20"
_cell_length_a       7.76395
_cell_length_b       7.76395
_cell_length_c       14.5
_cell_angle_alpha    90
_cell_angle_beta     90
_cell_angle_gamma    90

_space_group_name_H-M_alt    "P 1"
_space_group_IT_number       1

loop_
  _space_group_symop_operation_xyz
  'x, y, z'

loop_
  _atom_site_type_symbol
  _atom_site_label
  _atom_site_symmetry_multiplicity
  _atom_site_fract_x
  _atom_site_fract_y
  _atom_site_fract_z
  _atom_site_occupancy
  Ga  Ga1       1.0  0.25000  0.25000  0.00684  1.0000
  Ga  Ga2       1.0  0.87000  0.13000  0.25000  1.0000
  Ga  Ga3       1.0  0.63000  0.37000  0.25000  1.0000
  Ga  Ga4       1.0  0.13000  0.63000  0.25000  1.0000
  Ga  Ga5       1.0  0.37000  0.87000  0.25000  1.0000
  Ga  Ga6       1.0  0.75000  0.75000  0.49300  1.0000
  Ga  Ga7       1.0  0.25000  0.25000  0.50700  1.0000
  Ga  Ga8       1.0  0.63000  0.13000  0.75000  1.0000
  Ga  Ga9       1.0  0.87000  0.37000  0.75000  1.0000
  Ga  Ga10      1.0  0.37000  0.63000  0.75000  1.0000
  Ga  Ga11      1.0  0.13000  0.87000  0.75000  1.0000
  Ga  Ga12      1.0  0.75000  0.75000  0.99300  1.0000
  Sm  Sm1       1.0  0.59300  0.06500  0.10300  1.0000
  Sm  Sm2       1.0  0.90700  0.43500  0.10300  1.0000
  Sm  Sm3       1.0  0.43500  0.59300  0.10300  1.0000
  Sm  Sm4       1.0  0.06500  0.90700  0.10300  1.0000
  Sm  Sm5       1.0  0.25000  0.25000  0.22200  1.0000
  Sm  Sm6       1.0  0.75000  0.75000  0.27800  1.0000
  Sm  Sm7       1.0  0.56500  0.09260  0.39700  1.0000
  Sm  Sm8       1.0  0.93500  0.40700  0.39700  1.0000
  Sm  Sm9       1.0  0.40700  0.56500  0.39700  1.0000
  Sm  Sm10      1.0  0.09260  0.93500  0.39700  1.0000
  Sm  Sm11      1.0  0.90700  0.06500  0.60300  1.0000
  Sm  Sm12      1.0  0.59300  0.43500  0.60300  1.0000
  Sm  Sm13      1.0  0.06500  0.59300  0.60300  1.0000
  Sm  Sm14      1.0  0.43500  0.90700  0.60300  1.0000
  Sm  Sm15      1.0  0.25000  0.25000  0.72200  1.0000
  Sm  Sm16      1.0  0.75000  0.75000  0.77800  1.0000
  Sm  Sm17      1.0  0.93500  0.09260  0.89700  1.0000
  Sm  Sm18      1.0  0.56500  0.40700  0.89700  1.0000
  Sm  Sm19      1.0  0.09260  0.56500  0.89700  1.0000
  Sm  Sm20      1.0  0.40700  0.93500  0.89700  1.0000
