data_image0
_chemical_formula_structural       Cl16Mo4O4Te8
_chemical_formula_sum              "Cl16 Mo4 O4 Te8"
_cell_length_a       12.014
_cell_length_b       7.03625
_cell_length_c       10.7141
_cell_angle_alpha    90
_cell_angle_beta     90.0512
_cell_angle_gamma    90

_space_group_name_H-M_alt    "P 1"
_space_group_IT_number       1

loop_
  _space_group_symop_operation_xyz
  'x, y, z'

loop_
  _atom_site_type_symbol
  _atom_site_label
  _atom_site_symmetry_multiplicity
  _atom_site_fract_x
  _atom_site_fract_y
  _atom_site_fract_z
  _atom_site_occupancy
  Cl  Cl1       1.0  0.82000  0.71100  0.01840  1.0000
  Cl  Cl2       1.0  0.08910  0.82900  0.03610  1.0000
  Cl  Cl3       1.0  0.31200  0.61700  0.23000  1.0000
  Cl  Cl4       1.0  0.58200  0.52100  0.23700  1.0000
  Cl  Cl5       1.0  0.91800  0.02110  0.26300  1.0000
  Cl  Cl6       1.0  0.18800  0.11700  0.27000  1.0000
  Cl  Cl7       1.0  0.41100  0.32900  0.46400  1.0000
  Cl  Cl8       1.0  0.68000  0.21100  0.48200  1.0000
  Cl  Cl9       1.0  0.32000  0.78900  0.51800  1.0000
  Cl  Cl10      1.0  0.58900  0.67100  0.53600  1.0000
  Cl  Cl11      1.0  0.81200  0.88300  0.73000  1.0000
  Cl  Cl12      1.0  0.08160  0.97900  0.73700  1.0000
  Cl  Cl13      1.0  0.41800  0.47900  0.76300  1.0000
  Cl  Cl14      1.0  0.68800  0.38300  0.77000  1.0000
  Cl  Cl15      1.0  0.91100  0.17100  0.96400  1.0000
  Cl  Cl16      1.0  0.18000  0.28900  0.98200  1.0000
  Mo  Mo1       1.0  0.04300  0.20200  0.13300  1.0000
  Mo  Mo2       1.0  0.45700  0.70200  0.36700  1.0000
  Mo  Mo3       1.0  0.54300  0.29800  0.63300  1.0000
  Mo  Mo4       1.0  0.95700  0.79800  0.86700  1.0000
  O   O1        1.0  0.00816  0.42200  0.18200  1.0000
  O   O2        1.0  0.49200  0.92200  0.31800  1.0000
  O   O3        1.0  0.50800  0.07790  0.68200  1.0000
  O   O4        1.0  0.99200  0.57800  0.81800  1.0000
  Te  Te1       1.0  0.42700  0.22000  0.07130  1.0000
  Te  Te2       1.0  0.63900  0.07680  0.07450  1.0000
  Te  Te3       1.0  0.86100  0.57700  0.42600  1.0000
  Te  Te4       1.0  0.07350  0.72000  0.42900  1.0000
  Te  Te5       1.0  0.92700  0.28000  0.57100  1.0000
  Te  Te6       1.0  0.13900  0.42300  0.57400  1.0000
  Te  Te7       1.0  0.36100  0.92300  0.92600  1.0000
  Te  Te8       1.0  0.57300  0.78000  0.92900  1.0000
