data_image0
_chemical_formula_structural       Au4C8K4N8S8
_chemical_formula_sum              "Au4 C8 K4 N8 S8"
_cell_length_a       6.05342
_cell_length_b       7.25527
_cell_length_c       17.04
_cell_angle_alpha    95.3236
_cell_angle_beta     100.231
_cell_angle_gamma    65.3437

_space_group_name_H-M_alt    "P 1"
_space_group_IT_number       1

loop_
  _space_group_symop_operation_xyz
  'x, y, z'

loop_
  _atom_site_type_symbol
  _atom_site_label
  _atom_site_symmetry_multiplicity
  _atom_site_fract_x
  _atom_site_fract_y
  _atom_site_fract_z
  _atom_site_occupancy
  Au  Au1       1.0  0.32600  0.25000  0.25000  1.0000
  Au  Au2       1.0  0.82400  0.25000  0.25000  1.0000
  Au  Au3       1.0  0.17600  0.75000  0.75000  1.0000
  Au  Au4       1.0  0.67400  0.75000  0.75000  1.0000
  C   C1        1.0  0.55100  0.11000  0.08840  1.0000
  C   C2        1.0  0.71700  0.59000  0.13500  1.0000
  C   C3        1.0  0.17200  0.91000  0.36500  1.0000
  C   C4        1.0  0.57300  0.39000  0.41200  1.0000
  C   C5        1.0  0.42700  0.61000  0.58800  1.0000
  C   C6        1.0  0.82800  0.09050  0.63500  1.0000
  C   C7        1.0  0.28300  0.41000  0.86500  1.0000
  C   C8        1.0  0.44900  0.88900  0.91200  1.0000
  K   K1        1.0  0.14700  0.71500  0.05200  1.0000
  K   K2        1.0  0.81000  0.78500  0.44800  1.0000
  K   K3        1.0  0.19000  0.21500  0.55200  1.0000
  K   K4        1.0  0.85300  0.28500  0.94800  1.0000
  N   N1        1.0  0.72900  0.09260  0.06380  1.0000
  N   N2        1.0  0.77400  0.59300  0.07220  1.0000
  N   N3        1.0  0.29500  0.90700  0.42800  1.0000
  N   N4        1.0  0.75800  0.40700  0.43600  1.0000
  N   N5        1.0  0.24200  0.59300  0.56400  1.0000
  N   N6        1.0  0.70500  0.09260  0.57200  1.0000
  N   N7        1.0  0.22600  0.40700  0.92800  1.0000
  N   N8        1.0  0.27100  0.90700  0.93600  1.0000
  S   S1        1.0  0.29500  0.13000  0.11800  1.0000
  S   S2        1.0  0.61800  0.59500  0.22000  1.0000
  S   S3        1.0  0.99300  0.90500  0.28000  1.0000
  S   S4        1.0  0.30800  0.37000  0.38200  1.0000
  S   S5        1.0  0.69200  0.63000  0.61800  1.0000
  S   S6        1.0  0.00671  0.09510  0.72000  1.0000
  S   S7        1.0  0.38200  0.40500  0.78000  1.0000
  S   S8        1.0  0.70500  0.87000  0.88200  1.0000
