data_image0
_chemical_formula_structural       H4Nd4O20S4
_chemical_formula_sum              "H4 Nd4 O20 S4"
_cell_length_a       4.4542
_cell_length_b       12.3671
_cell_length_c       6.78907
_cell_angle_alpha    90
_cell_angle_beta     106.563
_cell_angle_gamma    90

_space_group_name_H-M_alt    "P 1"
_space_group_IT_number       1

loop_
  _space_group_symop_operation_xyz
  'x, y, z'

loop_
  _atom_site_type_symbol
  _atom_site_label
  _atom_site_symmetry_multiplicity
  _atom_site_fract_x
  _atom_site_fract_y
  _atom_site_fract_z
  _atom_site_occupancy
  H   H1        1.0  0.73700  0.65900  0.02830  1.0000
  H   H2        1.0  0.76300  0.15900  0.47200  1.0000
  H   H3        1.0  0.23700  0.84100  0.52800  1.0000
  H   H4        1.0  0.26300  0.34100  0.97200  1.0000
  Nd  Nd1       1.0  0.86200  0.43600  0.19700  1.0000
  Nd  Nd2       1.0  0.63800  0.93600  0.30300  1.0000
  Nd  Nd3       1.0  0.36200  0.06440  0.69700  1.0000
  Nd  Nd4       1.0  0.13800  0.56400  0.80300  1.0000
  O   O1        1.0  0.30700  0.41200  0.04010  1.0000
  O   O2        1.0  0.74900  0.06690  0.04970  1.0000
  O   O3        1.0  0.86400  0.83200  0.06260  1.0000
  O   O4        1.0  0.90500  0.24500  0.18500  1.0000
  O   O5        1.0  0.23900  0.59600  0.21400  1.0000
  O   O6        1.0  0.26100  0.09600  0.28600  1.0000
  O   O7        1.0  0.59500  0.74500  0.31500  1.0000
  O   O8        1.0  0.63600  0.33200  0.43700  1.0000
  O   O9        1.0  0.75100  0.56700  0.45000  1.0000
  O   O10       1.0  0.19300  0.91200  0.46000  1.0000
  O   O11       1.0  0.80700  0.08790  0.54000  1.0000
  O   O12       1.0  0.24900  0.43300  0.55000  1.0000
  O   O13       1.0  0.36400  0.66800  0.56300  1.0000
  O   O14       1.0  0.40500  0.25500  0.68500  1.0000
  O   O15       1.0  0.73900  0.90400  0.71400  1.0000
  O   O16       1.0  0.76100  0.40400  0.78600  1.0000
  O   O17       1.0  0.09530  0.75500  0.81500  1.0000
  O   O18       1.0  0.13600  0.16800  0.93700  1.0000
  O   O19       1.0  0.25100  0.93300  0.95000  1.0000
  O   O20       1.0  0.69300  0.58800  0.96000  1.0000
  S   S1        1.0  0.01800  0.14600  0.11400  1.0000
  S   S2        1.0  0.48200  0.64600  0.38600  1.0000
  S   S3        1.0  0.51800  0.35400  0.61400  1.0000
  S   S4        1.0  0.98200  0.85400  0.88600  1.0000
