data_image0
_chemical_formula_structural       C4Cd2H12O14
_chemical_formula_sum              "C4 Cd2 H12 O14"
_cell_length_a       5.96569
_cell_length_b       6.40543
_cell_length_c       8.22834
_cell_angle_alpha    73.7124
_cell_angle_beta     72.3568
_cell_angle_gamma    79.3863

_space_group_name_H-M_alt    "P 1"
_space_group_IT_number       1

loop_
  _space_group_symop_operation_xyz
  'x, y, z'

loop_
  _atom_site_type_symbol
  _atom_site_label
  _atom_site_symmetry_multiplicity
  _atom_site_fract_x
  _atom_site_fract_y
  _atom_site_fract_z
  _atom_site_occupancy
  C   C1        1.0  0.11200  0.32700  0.08280  1.0000
  C   C2        1.0  0.24600  0.15700  0.20300  1.0000
  C   C3        1.0  0.62000  0.34700  0.59200  1.0000
  C   C4        1.0  0.73600  0.13400  0.69300  1.0000
  Cd  Cd1       1.0  0.72700  0.02460  0.34900  1.0000
  Cd  Cd2       1.0  0.63100  0.45700  0.93700  1.0000
  H   H1        1.0  0.73100  0.62500  0.27000  1.0000
  H   H2        1.0  0.97200  0.62700  0.31100  1.0000
  H   H3        1.0  0.28600  0.43300  0.41600  1.0000
  H   H4        1.0  0.27100  0.91100  0.46800  1.0000
  H   H5        1.0  0.06640  0.49900  0.56000  1.0000
  H   H6        1.0  0.43300  0.73200  0.58300  1.0000
  H   H7        1.0  0.92500  0.75200  0.70300  1.0000
  H   H8        1.0  0.28300  0.97500  0.73700  1.0000
  H   H9        1.0  0.08610  0.57400  0.82100  1.0000
  H   H10       1.0  0.06220  0.03150  0.88500  1.0000
  H   H11       1.0  0.38400  0.84600  0.98500  1.0000
  H   H12       1.0  0.63500  0.86800  0.99700  1.0000
  O   O1        1.0  0.51500  0.76400  0.04070  1.0000
  O   O2        1.0  0.90000  0.29700  0.10400  1.0000
  O   O3        1.0  0.45800  0.18700  0.18200  1.0000
  O   O4        1.0  0.85500  0.72000  0.24500  1.0000
  O   O5        1.0  0.14000  0.00132  0.31100  1.0000
  O   O6        1.0  0.11200  0.45700  0.44500  1.0000
  O   O7        1.0  0.58900  0.35100  0.44600  1.0000
  O   O8        1.0  0.37800  0.89200  0.54600  1.0000
  O   O9        1.0  0.79300  0.97400  0.62300  1.0000
  O   O10       1.0  0.56500  0.50700  0.66200  1.0000
  O   O11       1.0  0.97900  0.59200  0.74300  1.0000
  O   O12       1.0  0.76300  0.12900  0.84100  1.0000
  O   O13       1.0  0.23600  0.01160  0.85500  1.0000
  O   O14       1.0  0.21800  0.48200  0.97400  1.0000
