data_image0
_chemical_formula_structural       Ba8Se20Sn4
_chemical_formula_sum              "Ba8 Se20 Sn4"
_cell_length_a       9.50663
_cell_length_b       8.98617
_cell_length_c       12.7592
_cell_angle_alpha    90
_cell_angle_beta     112.852
_cell_angle_gamma    90

_space_group_name_H-M_alt    "P 1"
_space_group_IT_number       1

loop_
  _space_group_symop_operation_xyz
  'x, y, z'

loop_
  _atom_site_type_symbol
  _atom_site_label
  _atom_site_symmetry_multiplicity
  _atom_site_fract_x
  _atom_site_fract_y
  _atom_site_fract_z
  _atom_site_occupancy
  Ba  Ba1       1.0  0.46200  0.62500  0.15600  1.0000
  Ba  Ba2       1.0  0.92000  0.13800  0.17600  1.0000
  Ba  Ba3       1.0  0.07990  0.63800  0.32400  1.0000
  Ba  Ba4       1.0  0.53800  0.12500  0.34400  1.0000
  Ba  Ba5       1.0  0.46200  0.87500  0.65600  1.0000
  Ba  Ba6       1.0  0.92000  0.36200  0.67600  1.0000
  Ba  Ba7       1.0  0.07990  0.86200  0.82400  1.0000
  Ba  Ba8       1.0  0.53800  0.37500  0.84400  1.0000
  Se  Se1       1.0  0.36000  0.07360  0.05770  1.0000
  Se  Se2       1.0  0.09870  0.82200  0.09560  1.0000
  Se  Se3       1.0  0.55900  0.26300  0.09720  1.0000
  Se  Se4       1.0  0.78500  0.50700  0.10600  1.0000
  Se  Se5       1.0  0.23700  0.37300  0.22400  1.0000
  Se  Se6       1.0  0.76300  0.87300  0.27600  1.0000
  Se  Se7       1.0  0.21500  0.00723  0.39400  1.0000
  Se  Se8       1.0  0.44100  0.76300  0.40300  1.0000
  Se  Se9       1.0  0.90100  0.32200  0.40400  1.0000
  Se  Se10      1.0  0.64000  0.57400  0.44200  1.0000
  Se  Se11      1.0  0.36000  0.42600  0.55800  1.0000
  Se  Se12      1.0  0.09870  0.67800  0.59600  1.0000
  Se  Se13      1.0  0.55900  0.23700  0.59700  1.0000
  Se  Se14      1.0  0.78500  0.99300  0.60600  1.0000
  Se  Se15      1.0  0.23700  0.12700  0.72400  1.0000
  Se  Se16      1.0  0.76300  0.62700  0.77600  1.0000
  Se  Se17      1.0  0.21500  0.49300  0.89400  1.0000
  Se  Se18      1.0  0.44100  0.73700  0.90300  1.0000
  Se  Se19      1.0  0.90100  0.17800  0.90400  1.0000
  Se  Se20      1.0  0.64000  0.92600  0.94200  1.0000
  Sn  Sn1       1.0  0.16300  0.29300  0.01750  1.0000
  Sn  Sn2       1.0  0.83700  0.79300  0.48300  1.0000
  Sn  Sn3       1.0  0.16300  0.20700  0.51700  1.0000
  Sn  Sn4       1.0  0.83700  0.70700  0.98300  1.0000
