data_image0
_chemical_formula_structural       H8Li4O16P4
_chemical_formula_sum              "H8 Li4 O16 P4"
_cell_length_a       6.1349
_cell_length_b       7.509
_cell_length_c       6.78404
_cell_angle_alpha    90
_cell_angle_beta     90
_cell_angle_gamma    90

_space_group_name_H-M_alt    "P 1"
_space_group_IT_number       1

loop_
  _space_group_symop_operation_xyz
  'x, y, z'

loop_
  _atom_site_type_symbol
  _atom_site_label
  _atom_site_symmetry_multiplicity
  _atom_site_fract_x
  _atom_site_fract_y
  _atom_site_fract_z
  _atom_site_occupancy
  H   H1        1.0  0.53900  0.64000  0.12200  1.0000
  H   H2        1.0  0.03900  0.86000  0.12200  1.0000
  H   H3        1.0  0.47100  0.11300  0.43700  1.0000
  H   H4        1.0  0.97100  0.38700  0.43700  1.0000
  H   H5        1.0  0.96100  0.14000  0.62200  1.0000
  H   H6        1.0  0.46100  0.36000  0.62200  1.0000
  H   H7        1.0  0.02920  0.61300  0.93700  1.0000
  H   H8        1.0  0.52900  0.88700  0.93700  1.0000
  Li  Li1       1.0  0.98600  0.72700  0.49200  1.0000
  Li  Li2       1.0  0.48600  0.77300  0.49200  1.0000
  Li  Li3       1.0  0.51400  0.22700  0.99200  1.0000
  Li  Li4       1.0  0.01390  0.27300  0.99200  1.0000
  O   O1        1.0  0.77200  0.19400  0.14600  1.0000
  O   O2        1.0  0.27200  0.30600  0.14600  1.0000
  O   O3        1.0  0.43600  0.59000  0.30000  1.0000
  O   O4        1.0  0.93600  0.91000  0.30000  1.0000
  O   O5        1.0  0.56200  0.00663  0.39400  1.0000
  O   O6        1.0  0.06200  0.49300  0.39400  1.0000
  O   O7        1.0  0.88400  0.19700  0.49700  1.0000
  O   O8        1.0  0.38400  0.30300  0.49700  1.0000
  O   O9        1.0  0.72800  0.69400  0.64600  1.0000
  O   O10       1.0  0.22800  0.80600  0.64600  1.0000
  O   O11       1.0  0.06380  0.09020  0.80000  1.0000
  O   O12       1.0  0.56400  0.41000  0.80000  1.0000
  O   O13       1.0  0.93800  0.50700  0.89400  1.0000
  O   O14       1.0  0.43800  0.99300  0.89400  1.0000
  O   O15       1.0  0.61600  0.69700  0.99700  1.0000
  O   O16       1.0  0.11600  0.80300  0.99700  1.0000
  P   P1        1.0  0.79600  0.07530  0.32400  1.0000
  P   P2        1.0  0.29600  0.42500  0.32400  1.0000
  P   P3        1.0  0.70400  0.57500  0.82400  1.0000
  P   P4        1.0  0.20400  0.92500  0.82400  1.0000
