data_image0
_chemical_formula_structural       C4Cl16O8Sb4
_chemical_formula_sum              "C4 Cl16 O8 Sb4"
_cell_length_a       6.80686
_cell_length_b       7.0829
_cell_length_c       15.9029
_cell_angle_alpha    82.8613
_cell_angle_beta     84.1659
_cell_angle_gamma    82.6055

_space_group_name_H-M_alt    "P 1"
_space_group_IT_number       1

loop_
  _space_group_symop_operation_xyz
  'x, y, z'

loop_
  _atom_site_type_symbol
  _atom_site_label
  _atom_site_symmetry_multiplicity
  _atom_site_fract_x
  _atom_site_fract_y
  _atom_site_fract_z
  _atom_site_occupancy
  C   C1        1.0  0.91000  0.07870  0.00032  1.0000
  C   C2        1.0  0.56100  0.94600  0.46500  1.0000
  C   C3        1.0  0.43900  0.05420  0.53500  1.0000
  C   C4        1.0  0.08960  0.92100  0.00000  1.0000
  Cl  Cl1       1.0  0.31500  0.33600  0.01090  1.0000
  Cl  Cl2       1.0  0.88200  0.43900  0.17200  1.0000
  Cl  Cl3       1.0  0.45000  0.80400  0.17500  1.0000
  Cl  Cl4       1.0  0.91000  0.89500  0.22000  1.0000
  Cl  Cl5       1.0  0.39000  0.28500  0.22600  1.0000
  Cl  Cl6       1.0  0.08450  0.06910  0.38400  1.0000
  Cl  Cl7       1.0  0.61300  0.42700  0.38800  1.0000
  Cl  Cl8       1.0  0.11000  0.55000  0.39000  1.0000
  Cl  Cl9       1.0  0.89000  0.45000  0.61000  1.0000
  Cl  Cl10      1.0  0.38700  0.57300  0.61200  1.0000
  Cl  Cl11      1.0  0.91600  0.93100  0.61600  1.0000
  Cl  Cl12      1.0  0.61000  0.71500  0.77400  1.0000
  Cl  Cl13      1.0  0.08960  0.10500  0.78000  1.0000
  Cl  Cl14      1.0  0.55000  0.19600  0.82500  1.0000
  Cl  Cl15      1.0  0.11800  0.56100  0.82800  1.0000
  Cl  Cl16      1.0  0.68500  0.66400  0.98900  1.0000
  O   O1        1.0  0.07080  0.76500  0.04610  1.0000
  O   O2        1.0  0.75500  0.04180  0.04720  1.0000
  O   O3        1.0  0.53800  0.01110  0.38800  1.0000
  O   O4        1.0  0.67600  0.79800  0.48800  1.0000
  O   O5        1.0  0.32400  0.20200  0.51200  1.0000
  O   O6        1.0  0.46200  0.98900  0.61200  1.0000
  O   O7        1.0  0.24500  0.95800  0.95300  1.0000
  O   O8        1.0  0.92900  0.23500  0.95400  1.0000
  Sb  Sb1       1.0  0.77800  0.75200  0.11600  1.0000
  Sb  Sb2       1.0  0.33300  0.27600  0.37300  1.0000
  Sb  Sb3       1.0  0.66700  0.72400  0.62700  1.0000
  Sb  Sb4       1.0  0.22200  0.24800  0.88400  1.0000
