data_image0
_chemical_formula_structural       Cu4O20Ti4Zr4
_chemical_formula_sum              "Cu4 O20 Ti4 Zr4"
_cell_length_a       3.60432
_cell_length_b       6.70084
_cell_length_c       14.6283
_cell_angle_alpha    90
_cell_angle_beta     90
_cell_angle_gamma    90

_space_group_name_H-M_alt    "P 1"
_space_group_IT_number       1

loop_
  _space_group_symop_operation_xyz
  'x, y, z'

loop_
  _atom_site_type_symbol
  _atom_site_label
  _atom_site_symmetry_multiplicity
  _atom_site_fract_x
  _atom_site_fract_y
  _atom_site_fract_z
  _atom_site_occupancy
  Cu  Cu1       1.0  0.00094  0.40000  0.24600  1.0000
  Cu  Cu2       1.0  0.99900  0.90000  0.25400  1.0000
  Cu  Cu3       1.0  0.49900  0.60000  0.74600  1.0000
  Cu  Cu4       1.0  0.50100  0.09960  0.75400  1.0000
  O   O1        1.0  0.92300  0.61600  0.01530  1.0000
  O   O2        1.0  0.91200  0.14500  0.03470  1.0000
  O   O3        1.0  0.39600  0.36300  0.15200  1.0000
  O   O4        1.0  0.39900  0.94000  0.16200  1.0000
  O   O5        1.0  0.92800  0.65500  0.18900  1.0000
  O   O6        1.0  0.07200  0.15500  0.31100  1.0000
  O   O7        1.0  0.60100  0.44000  0.33800  1.0000
  O   O8        1.0  0.60400  0.86300  0.34800  1.0000
  O   O9        1.0  0.08840  0.64500  0.46500  1.0000
  O   O10       1.0  0.07700  0.11600  0.48500  1.0000
  O   O11       1.0  0.57700  0.38400  0.51500  1.0000
  O   O12       1.0  0.58800  0.85500  0.53500  1.0000
  O   O13       1.0  0.10400  0.63700  0.65200  1.0000
  O   O14       1.0  0.10100  0.05950  0.66200  1.0000
  O   O15       1.0  0.57200  0.34500  0.68900  1.0000
  O   O16       1.0  0.42800  0.84500  0.81100  1.0000
  O   O17       1.0  0.89900  0.56000  0.83800  1.0000
  O   O18       1.0  0.89600  0.13700  0.84800  1.0000
  O   O19       1.0  0.41200  0.35500  0.96500  1.0000
  O   O20       1.0  0.42300  0.88400  0.98500  1.0000
  Ti  Ti1       1.0  0.41200  0.14300  0.07440  1.0000
  Ti  Ti2       1.0  0.58800  0.64300  0.42600  1.0000
  Ti  Ti3       1.0  0.08790  0.85700  0.57400  1.0000
  Ti  Ti4       1.0  0.91200  0.35700  0.92600  1.0000
  Zr  Zr1       1.0  0.42600  0.66100  0.09660  1.0000
  Zr  Zr2       1.0  0.57400  0.16100  0.40300  1.0000
  Zr  Zr3       1.0  0.07370  0.33900  0.59700  1.0000
  Zr  Zr4       1.0  0.92600  0.83900  0.90300  1.0000
