data_image0
_chemical_formula_structural       C12K4Mn4N12
_chemical_formula_sum              "C12 K4 Mn4 N12"
_cell_length_a       9.71611
_cell_length_b       7.19105
_cell_length_c       6.75851
_cell_angle_alpha    90
_cell_angle_beta     90.0979
_cell_angle_gamma    90

_space_group_name_H-M_alt    "P 1"
_space_group_IT_number       1

loop_
  _space_group_symop_operation_xyz
  'x, y, z'

loop_
  _atom_site_type_symbol
  _atom_site_label
  _atom_site_symmetry_multiplicity
  _atom_site_fract_x
  _atom_site_fract_y
  _atom_site_fract_z
  _atom_site_occupancy
  C   C1        1.0  0.18800  0.98600  0.06590  1.0000
  C   C2        1.0  0.96400  0.78200  0.14800  1.0000
  C   C3        1.0  0.96900  0.15100  0.22500  1.0000
  C   C4        1.0  0.53100  0.65100  0.27500  1.0000
  C   C5        1.0  0.53600  0.28200  0.35200  1.0000
  C   C6        1.0  0.31200  0.48600  0.43400  1.0000
  C   C7        1.0  0.68800  0.51400  0.56600  1.0000
  C   C8        1.0  0.46400  0.71800  0.64800  1.0000
  C   C9        1.0  0.46900  0.34900  0.72500  1.0000
  C   C10       1.0  0.03110  0.84900  0.77500  1.0000
  C   C11       1.0  0.03600  0.21800  0.85200  1.0000
  C   C12       1.0  0.81200  0.01440  0.93400  1.0000
  K   K1        1.0  0.74900  0.43100  0.02120  1.0000
  K   K2        1.0  0.75100  0.93100  0.47900  1.0000
  K   K3        1.0  0.24900  0.06920  0.52100  1.0000
  K   K4        1.0  0.25100  0.56900  0.97900  1.0000
  Mn  Mn1       1.0  0.00000  0.00000  0.00000  1.0000
  Mn  Mn2       1.0  0.50000  0.00000  0.00000  1.0000
  Mn  Mn3       1.0  0.50000  0.50000  0.50000  1.0000
  Mn  Mn4       1.0  0.00000  0.50000  0.50000  1.0000
  N   N1        1.0  0.30700  0.97400  0.10800  1.0000
  N   N2        1.0  0.55200  0.74600  0.13400  1.0000
  N   N3        1.0  0.93900  0.64500  0.24100  1.0000
  N   N4        1.0  0.56100  0.14500  0.25900  1.0000
  N   N5        1.0  0.94800  0.24600  0.36600  1.0000
  N   N6        1.0  0.19300  0.47400  0.39200  1.0000
  N   N7        1.0  0.80700  0.52600  0.60800  1.0000
  N   N8        1.0  0.05180  0.75400  0.63400  1.0000
  N   N9        1.0  0.43900  0.85500  0.74100  1.0000
  N   N10       1.0  0.06070  0.35500  0.75900  1.0000
  N   N11       1.0  0.44800  0.25400  0.86600  1.0000
  N   N12       1.0  0.69300  0.02610  0.89200  1.0000
