data_image0
_chemical_formula_structural       Co4Fe4O20P4
_chemical_formula_sum              "Co4 Fe4 O20 P4"
_cell_length_a       7.24891
_cell_length_b       6.4604
_cell_length_c       7.41584
_cell_angle_alpha    90
_cell_angle_beta     90
_cell_angle_gamma    90

_space_group_name_H-M_alt    "P 1"
_space_group_IT_number       1

loop_
  _space_group_symop_operation_xyz
  'x, y, z'

loop_
  _atom_site_type_symbol
  _atom_site_label
  _atom_site_symmetry_multiplicity
  _atom_site_fract_x
  _atom_site_fract_y
  _atom_site_fract_z
  _atom_site_occupancy
  Co  Co1       1.0  0.00000  0.00000  0.00000  1.0000
  Co  Co2       1.0  0.00000  0.50000  0.00000  1.0000
  Co  Co3       1.0  0.50000  0.00000  0.50000  1.0000
  Co  Co4       1.0  0.50000  0.50000  0.50000  1.0000
  Fe  Fe1       1.0  0.35300  0.75000  0.21600  1.0000
  Fe  Fe2       1.0  0.85300  0.75000  0.28400  1.0000
  Fe  Fe3       1.0  0.14700  0.25000  0.71600  1.0000
  Fe  Fe4       1.0  0.64700  0.25000  0.78400  1.0000
  O   O1        1.0  0.20200  0.25000  0.01370  1.0000
  O   O2        1.0  0.55300  0.25000  0.02490  1.0000
  O   O3        1.0  0.09940  0.75000  0.14500  1.0000
  O   O4        1.0  0.86800  0.05820  0.23900  1.0000
  O   O5        1.0  0.86800  0.44200  0.23900  1.0000
  O   O6        1.0  0.36800  0.05820  0.26100  1.0000
  O   O7        1.0  0.36800  0.44200  0.26100  1.0000
  O   O8        1.0  0.59900  0.75000  0.35500  1.0000
  O   O9        1.0  0.05260  0.25000  0.47500  1.0000
  O   O10       1.0  0.70200  0.25000  0.48600  1.0000
  O   O11       1.0  0.29800  0.75000  0.51400  1.0000
  O   O12       1.0  0.94700  0.75000  0.52500  1.0000
  O   O13       1.0  0.40100  0.25000  0.64500  1.0000
  O   O14       1.0  0.63200  0.55800  0.73900  1.0000
  O   O15       1.0  0.63200  0.94200  0.73900  1.0000
  O   O16       1.0  0.13200  0.55800  0.76100  1.0000
  O   O17       1.0  0.13200  0.94200  0.76100  1.0000
  O   O18       1.0  0.90100  0.25000  0.85500  1.0000
  O   O19       1.0  0.44700  0.75000  0.97500  1.0000
  O   O20       1.0  0.79800  0.75000  0.98600  1.0000
  P   P1        1.0  0.37600  0.25000  0.13600  1.0000
  P   P2        1.0  0.87600  0.25000  0.36400  1.0000
  P   P3        1.0  0.12400  0.75000  0.63600  1.0000
  P   P4        1.0  0.62400  0.75000  0.86400  1.0000
