data_image0
_chemical_formula_structural       Cs12Nb4Se16
_chemical_formula_sum              "Cs12 Nb4 Se16"
_cell_length_a       10.4022
_cell_length_b       12.0811
_cell_length_c       10.4315
_cell_angle_alpha    90
_cell_angle_beta     90
_cell_angle_gamma    90

_space_group_name_H-M_alt    "P 1"
_space_group_IT_number       1

loop_
  _space_group_symop_operation_xyz
  'x, y, z'

loop_
  _atom_site_type_symbol
  _atom_site_label
  _atom_site_symmetry_multiplicity
  _atom_site_fract_x
  _atom_site_fract_y
  _atom_site_fract_z
  _atom_site_occupancy
  Cs  Cs1       1.0  0.85400  0.75000  0.08990  1.0000
  Cs  Cs2       1.0  0.45300  0.04210  0.20800  1.0000
  Cs  Cs3       1.0  0.45300  0.45800  0.20800  1.0000
  Cs  Cs4       1.0  0.95300  0.04210  0.29200  1.0000
  Cs  Cs5       1.0  0.95300  0.45800  0.29200  1.0000
  Cs  Cs6       1.0  0.35400  0.75000  0.41000  1.0000
  Cs  Cs7       1.0  0.64600  0.25000  0.59000  1.0000
  Cs  Cs8       1.0  0.04680  0.54200  0.70800  1.0000
  Cs  Cs9       1.0  0.04680  0.95800  0.70800  1.0000
  Cs  Cs10      1.0  0.54700  0.54200  0.79200  1.0000
  Cs  Cs11      1.0  0.54700  0.95800  0.79200  1.0000
  Cs  Cs12      1.0  0.14600  0.25000  0.91000  1.0000
  Nb  Nb1       1.0  0.72100  0.25000  0.01790  1.0000
  Nb  Nb2       1.0  0.22100  0.25000  0.48200  1.0000
  Nb  Nb3       1.0  0.77900  0.75000  0.51800  1.0000
  Nb  Nb4       1.0  0.27900  0.75000  0.98200  1.0000
  Se  Se1       1.0  0.16700  0.58400  0.04860  1.0000
  Se  Se2       1.0  0.16700  0.91600  0.04860  1.0000
  Se  Se3       1.0  0.49400  0.75000  0.07160  1.0000
  Se  Se4       1.0  0.70700  0.25000  0.24900  1.0000
  Se  Se5       1.0  0.20700  0.25000  0.25100  1.0000
  Se  Se6       1.0  0.99400  0.75000  0.42800  1.0000
  Se  Se7       1.0  0.66700  0.58400  0.45100  1.0000
  Se  Se8       1.0  0.66700  0.91600  0.45100  1.0000
  Se  Se9       1.0  0.33300  0.08420  0.54900  1.0000
  Se  Se10      1.0  0.33300  0.41600  0.54900  1.0000
  Se  Se11      1.0  0.00569  0.25000  0.57200  1.0000
  Se  Se12      1.0  0.79300  0.75000  0.74900  1.0000
  Se  Se13      1.0  0.29300  0.75000  0.75100  1.0000
  Se  Se14      1.0  0.50600  0.25000  0.92800  1.0000
  Se  Se15      1.0  0.83300  0.08420  0.95100  1.0000
  Se  Se16      1.0  0.83300  0.41600  0.95100  1.0000
