data_image0
_chemical_formula_structural       C6F6Na4O12Sn4
_chemical_formula_sum              "C6 F6 Na4 O12 Sn4"
_cell_length_a       5.94363
_cell_length_b       8.4678
_cell_length_c       8.83936
_cell_angle_alpha    67.6595
_cell_angle_beta     79.5448
_cell_angle_gamma    81.9179

_space_group_name_H-M_alt    "P 1"
_space_group_IT_number       1

loop_
  _space_group_symop_operation_xyz
  'x, y, z'

loop_
  _atom_site_type_symbol
  _atom_site_label
  _atom_site_symmetry_multiplicity
  _atom_site_fract_x
  _atom_site_fract_y
  _atom_site_fract_z
  _atom_site_occupancy
  C   C1        1.0  0.58500  0.92000  0.01630  1.0000
  C   C2        1.0  0.60300  0.50000  0.26800  1.0000
  C   C3        1.0  0.40600  0.60400  0.33800  1.0000
  C   C4        1.0  0.59400  0.39600  0.66200  1.0000
  C   C5        1.0  0.39700  0.50000  0.73200  1.0000
  C   C6        1.0  0.41500  0.08030  0.98400  1.0000
  F   F1        1.0  0.07610  0.95600  0.24600  1.0000
  F   F2        1.0  0.63600  0.03910  0.34300  1.0000
  F   F3        1.0  0.11000  0.22000  0.38800  1.0000
  F   F4        1.0  0.89000  0.78000  0.61200  1.0000
  F   F5        1.0  0.36400  0.96100  0.65700  1.0000
  F   F6        1.0  0.92400  0.04420  0.75400  1.0000
  Na  Na1       1.0  0.85200  0.73800  0.37900  1.0000
  Na  Na2       1.0  0.28000  0.95000  0.42900  1.0000
  Na  Na3       1.0  0.72000  0.05000  0.57100  1.0000
  Na  Na4       1.0  0.14800  0.26200  0.62100  1.0000
  O   O1        1.0  0.45900  0.19800  0.02520  1.0000
  O   O2        1.0  0.75700  0.91600  0.08480  1.0000
  O   O3        1.0  0.55000  0.40200  0.20400  1.0000
  O   O4        1.0  0.80300  0.52300  0.28000  1.0000
  O   O5        1.0  0.20200  0.57900  0.32500  1.0000
  O   O6        1.0  0.45500  0.70100  0.40100  1.0000
  O   O7        1.0  0.54500  0.29900  0.59900  1.0000
  O   O8        1.0  0.79800  0.42100  0.67500  1.0000
  O   O9        1.0  0.19700  0.47700  0.72000  1.0000
  O   O10       1.0  0.45000  0.59800  0.79600  1.0000
  O   O11       1.0  0.24300  0.08450  0.91500  1.0000
  O   O12       1.0  0.54100  0.80200  0.97500  1.0000
  Sn  Sn1       1.0  0.83700  0.15300  0.11800  1.0000
  Sn  Sn2       1.0  0.16200  0.43200  0.16600  1.0000
  Sn  Sn3       1.0  0.83800  0.56800  0.83400  1.0000
  Sn  Sn4       1.0  0.16300  0.84700  0.88200  1.0000
