data_image0
_chemical_formula_structural       Ge8Ni16P8
_chemical_formula_sum              "Ge8 Ni16 P8"
_cell_length_a       6.07726
_cell_length_b       4.98364
_cell_length_c       14.0078
_cell_angle_alpha    90
_cell_angle_beta     90
_cell_angle_gamma    90

_space_group_name_H-M_alt    "P 1"
_space_group_IT_number       1

loop_
  _space_group_symop_operation_xyz
  'x, y, z'

loop_
  _atom_site_type_symbol
  _atom_site_label
  _atom_site_symmetry_multiplicity
  _atom_site_fract_x
  _atom_site_fract_y
  _atom_site_fract_z
  _atom_site_occupancy
  Ge  Ge1       1.0  0.09340  0.23100  0.05970  1.0000
  Ge  Ge2       1.0  0.40700  0.73100  0.05970  1.0000
  Ge  Ge3       1.0  0.59300  0.23100  0.44000  1.0000
  Ge  Ge4       1.0  0.90700  0.73100  0.44000  1.0000
  Ge  Ge5       1.0  0.09340  0.26900  0.56000  1.0000
  Ge  Ge6       1.0  0.40700  0.76900  0.56000  1.0000
  Ge  Ge7       1.0  0.59300  0.26900  0.94000  1.0000
  Ge  Ge8       1.0  0.90700  0.76900  0.94000  1.0000
  Ni  Ni1       1.0  0.73300  0.00313  0.07540  1.0000
  Ni  Ni2       1.0  0.76700  0.50300  0.07540  1.0000
  Ni  Ni3       1.0  0.26000  0.00323  0.19800  1.0000
  Ni  Ni4       1.0  0.24000  0.50300  0.19800  1.0000
  Ni  Ni5       1.0  0.76000  0.00323  0.30200  1.0000
  Ni  Ni6       1.0  0.74000  0.50300  0.30200  1.0000
  Ni  Ni7       1.0  0.23300  0.00313  0.42500  1.0000
  Ni  Ni8       1.0  0.26700  0.50300  0.42500  1.0000
  Ni  Ni9       1.0  0.73300  0.49700  0.57500  1.0000
  Ni  Ni10      1.0  0.76700  0.99700  0.57500  1.0000
  Ni  Ni11      1.0  0.26000  0.49700  0.69800  1.0000
  Ni  Ni12      1.0  0.24000  0.99700  0.69800  1.0000
  Ni  Ni13      1.0  0.76000  0.49700  0.80200  1.0000
  Ni  Ni14      1.0  0.74000  0.99700  0.80200  1.0000
  Ni  Ni15      1.0  0.23300  0.49700  0.92500  1.0000
  Ni  Ni16      1.0  0.26700  0.99700  0.92500  1.0000
  P   P1        1.0  0.57100  0.26400  0.18600  1.0000
  P   P2        1.0  0.92900  0.76400  0.18600  1.0000
  P   P3        1.0  0.07080  0.26400  0.31400  1.0000
  P   P4        1.0  0.42900  0.76400  0.31400  1.0000
  P   P5        1.0  0.57100  0.23600  0.68600  1.0000
  P   P6        1.0  0.92900  0.73600  0.68600  1.0000
  P   P7        1.0  0.07080  0.23600  0.81400  1.0000
  P   P8        1.0  0.42900  0.73600  0.81400  1.0000
