data_image0
_chemical_formula_structural       La8S20Zr4
_chemical_formula_sum              "La8 S20 Zr4"
_cell_length_a       11.5147
_cell_length_b       8.24246
_cell_length_c       7.41471
_cell_angle_alpha    90
_cell_angle_beta     90
_cell_angle_gamma    90

_space_group_name_H-M_alt    "P 1"
_space_group_IT_number       1

loop_
  _space_group_symop_operation_xyz
  'x, y, z'

loop_
  _atom_site_type_symbol
  _atom_site_label
  _atom_site_symmetry_multiplicity
  _atom_site_fract_x
  _atom_site_fract_y
  _atom_site_fract_z
  _atom_site_occupancy
  La  La1       1.0  0.82900  0.50200  0.05830  1.0000
  La  La2       1.0  0.82900  0.99800  0.05830  1.0000
  La  La3       1.0  0.32900  0.50200  0.44200  1.0000
  La  La4       1.0  0.32900  0.99800  0.44200  1.0000
  La  La5       1.0  0.67100  0.00154  0.55800  1.0000
  La  La6       1.0  0.67100  0.49800  0.55800  1.0000
  La  La7       1.0  0.17100  0.00154  0.94200  1.0000
  La  La8       1.0  0.17100  0.49800  0.94200  1.0000
  S   S1        1.0  0.00432  0.25000  0.05780  1.0000
  S   S2        1.0  0.30700  0.75000  0.14100  1.0000
  S   S3        1.0  0.29100  0.25000  0.16000  1.0000
  S   S4        1.0  0.57400  0.53500  0.17800  1.0000
  S   S5        1.0  0.57400  0.96500  0.17800  1.0000
  S   S6        1.0  0.07380  0.53500  0.32200  1.0000
  S   S7        1.0  0.07380  0.96500  0.32200  1.0000
  S   S8        1.0  0.79100  0.25000  0.34000  1.0000
  S   S9        1.0  0.80700  0.75000  0.35900  1.0000
  S   S10       1.0  0.50400  0.25000  0.44200  1.0000
  S   S11       1.0  0.49600  0.75000  0.55800  1.0000
  S   S12       1.0  0.19300  0.25000  0.64100  1.0000
  S   S13       1.0  0.20900  0.75000  0.66000  1.0000
  S   S14       1.0  0.92600  0.03480  0.67800  1.0000
  S   S15       1.0  0.92600  0.46500  0.67800  1.0000
  S   S16       1.0  0.42600  0.03480  0.82200  1.0000
  S   S17       1.0  0.42600  0.46500  0.82200  1.0000
  S   S18       1.0  0.70900  0.75000  0.84000  1.0000
  S   S19       1.0  0.69300  0.25000  0.85900  1.0000
  S   S20       1.0  0.99600  0.75000  0.94200  1.0000
  Zr  Zr1       1.0  0.51000  0.25000  0.07300  1.0000
  Zr  Zr2       1.0  0.01020  0.25000  0.42700  1.0000
  Zr  Zr3       1.0  0.99000  0.75000  0.57300  1.0000
  Zr  Zr4       1.0  0.49000  0.75000  0.92700  1.0000
