data_image0
_chemical_formula_structural       Co4Dy20Sb8
_chemical_formula_sum              "Co4 Dy20 Sb8"
_cell_length_a       12.1722
_cell_length_b       8.76232
_cell_length_c       7.86976
_cell_angle_alpha    90
_cell_angle_beta     90
_cell_angle_gamma    90

_space_group_name_H-M_alt    "P 1"
_space_group_IT_number       1

loop_
  _space_group_symop_operation_xyz
  'x, y, z'

loop_
  _atom_site_type_symbol
  _atom_site_label
  _atom_site_symmetry_multiplicity
  _atom_site_fract_x
  _atom_site_fract_y
  _atom_site_fract_z
  _atom_site_occupancy
  Co  Co1       1.0  0.01050  0.75000  0.07040  1.0000
  Co  Co2       1.0  0.51000  0.75000  0.43000  1.0000
  Co  Co3       1.0  0.49000  0.25000  0.57000  1.0000
  Co  Co4       1.0  0.99000  0.25000  0.93000  1.0000
  Dy  Dy1       1.0  0.50200  0.75000  0.04740  1.0000
  Dy  Dy2       1.0  0.80600  0.25000  0.12100  1.0000
  Dy  Dy3       1.0  0.79600  0.75000  0.15500  1.0000
  Dy  Dy4       1.0  0.06490  0.03780  0.17800  1.0000
  Dy  Dy5       1.0  0.06490  0.46200  0.17800  1.0000
  Dy  Dy6       1.0  0.56500  0.03780  0.32200  1.0000
  Dy  Dy7       1.0  0.56500  0.46200  0.32200  1.0000
  Dy  Dy8       1.0  0.29600  0.75000  0.34500  1.0000
  Dy  Dy9       1.0  0.30600  0.25000  0.37900  1.0000
  Dy  Dy10      1.0  0.00186  0.75000  0.45300  1.0000
  Dy  Dy11      1.0  0.99800  0.25000  0.54700  1.0000
  Dy  Dy12      1.0  0.69400  0.75000  0.62100  1.0000
  Dy  Dy13      1.0  0.70400  0.25000  0.65500  1.0000
  Dy  Dy14      1.0  0.43500  0.53800  0.67800  1.0000
  Dy  Dy15      1.0  0.43500  0.96200  0.67800  1.0000
  Dy  Dy16      1.0  0.93500  0.53800  0.82200  1.0000
  Dy  Dy17      1.0  0.93500  0.96200  0.82200  1.0000
  Dy  Dy18      1.0  0.20400  0.25000  0.84500  1.0000
  Dy  Dy19      1.0  0.19400  0.75000  0.87900  1.0000
  Dy  Dy20      1.0  0.49800  0.25000  0.95300  1.0000
  Sb  Sb1       1.0  0.32700  0.00881  0.07150  1.0000
  Sb  Sb2       1.0  0.32700  0.49100  0.07150  1.0000
  Sb  Sb3       1.0  0.82700  0.00881  0.42800  1.0000
  Sb  Sb4       1.0  0.82700  0.49100  0.42800  1.0000
  Sb  Sb5       1.0  0.17300  0.50900  0.57200  1.0000
  Sb  Sb6       1.0  0.17300  0.99100  0.57200  1.0000
  Sb  Sb7       1.0  0.67300  0.50900  0.92800  1.0000
  Sb  Sb8       1.0  0.67300  0.99100  0.92800  1.0000
