data_image0
_chemical_formula_structural       Au4Cs8P4S16
_chemical_formula_sum              "Au4 Cs8 P4 S16"
_cell_length_a       7.04237
_cell_length_b       20.4295
_cell_length_c       7.17033
_cell_angle_alpha    90
_cell_angle_beta     90
_cell_angle_gamma    90

_space_group_name_H-M_alt    "P 1"
_space_group_IT_number       1

loop_
  _space_group_symop_operation_xyz
  'x, y, z'

loop_
  _atom_site_type_symbol
  _atom_site_label
  _atom_site_symmetry_multiplicity
  _atom_site_fract_x
  _atom_site_fract_y
  _atom_site_fract_z
  _atom_site_occupancy
  Au  Au1       1.0  0.11400  0.25000  0.00000  1.0000
  Au  Au2       1.0  0.88600  0.75000  0.00000  1.0000
  Au  Au3       1.0  0.11400  0.25000  0.50000  1.0000
  Au  Au4       1.0  0.88600  0.75000  0.50000  1.0000
  Cs  Cs1       1.0  0.60000  0.16600  0.25000  1.0000
  Cs  Cs2       1.0  0.79100  0.48500  0.25000  1.0000
  Cs  Cs3       1.0  0.40000  0.66600  0.25000  1.0000
  Cs  Cs4       1.0  0.20900  0.98500  0.25000  1.0000
  Cs  Cs5       1.0  0.79100  0.01520  0.75000  1.0000
  Cs  Cs6       1.0  0.60000  0.33400  0.75000  1.0000
  Cs  Cs7       1.0  0.20900  0.51500  0.75000  1.0000
  Cs  Cs8       1.0  0.40000  0.83400  0.75000  1.0000
  P   P1        1.0  0.27700  0.38600  0.25000  1.0000
  P   P2        1.0  0.72300  0.88600  0.25000  1.0000
  P   P3        1.0  0.27700  0.11400  0.75000  1.0000
  P   P4        1.0  0.72300  0.61400  0.75000  1.0000
  S   S1        1.0  0.11800  0.36300  0.00888  1.0000
  S   S2        1.0  0.88200  0.86300  0.00888  1.0000
  S   S3        1.0  0.53000  0.34000  0.25000  1.0000
  S   S4        1.0  0.29300  0.48600  0.25000  1.0000
  S   S5        1.0  0.47000  0.84000  0.25000  1.0000
  S   S6        1.0  0.70700  0.98600  0.25000  1.0000
  S   S7        1.0  0.11800  0.36300  0.49100  1.0000
  S   S8        1.0  0.88200  0.86300  0.49100  1.0000
  S   S9        1.0  0.11800  0.13700  0.50900  1.0000
  S   S10       1.0  0.88200  0.63700  0.50900  1.0000
  S   S11       1.0  0.29300  0.01440  0.75000  1.0000
  S   S12       1.0  0.53000  0.16000  0.75000  1.0000
  S   S13       1.0  0.70700  0.51400  0.75000  1.0000
  S   S14       1.0  0.47000  0.66000  0.75000  1.0000
  S   S15       1.0  0.11800  0.13700  0.99100  1.0000
  S   S16       1.0  0.88200  0.63700  0.99100  1.0000
