data_image0
_chemical_formula_structural       F20K8Ti4
_chemical_formula_sum              "F20 K8 Ti4"
_cell_length_a       5.84839
_cell_length_b       7.39585
_cell_length_c       10.4879
_cell_angle_alpha    90
_cell_angle_beta     90
_cell_angle_gamma    90

_space_group_name_H-M_alt    "P 1"
_space_group_IT_number       1

loop_
  _space_group_symop_operation_xyz
  'x, y, z'

loop_
  _atom_site_type_symbol
  _atom_site_label
  _atom_site_symmetry_multiplicity
  _atom_site_fract_x
  _atom_site_fract_y
  _atom_site_fract_z
  _atom_site_occupancy
  F   F1        1.0  0.37100  0.75000  0.01410  1.0000
  F   F2        1.0  0.79300  0.56700  0.07220  1.0000
  F   F3        1.0  0.79300  0.93300  0.07220  1.0000
  F   F4        1.0  0.37800  0.03700  0.17300  1.0000
  F   F5        1.0  0.37800  0.46300  0.17300  1.0000
  F   F6        1.0  0.87800  0.03700  0.32700  1.0000
  F   F7        1.0  0.87800  0.46300  0.32700  1.0000
  F   F8        1.0  0.29300  0.56700  0.42800  1.0000
  F   F9        1.0  0.29300  0.93300  0.42800  1.0000
  F   F10       1.0  0.87100  0.75000  0.48600  1.0000
  F   F11       1.0  0.12900  0.25000  0.51400  1.0000
  F   F12       1.0  0.70700  0.06730  0.57200  1.0000
  F   F13       1.0  0.70700  0.43300  0.57200  1.0000
  F   F14       1.0  0.12200  0.53700  0.67300  1.0000
  F   F15       1.0  0.12200  0.96300  0.67300  1.0000
  F   F16       1.0  0.62200  0.53700  0.82700  1.0000
  F   F17       1.0  0.62200  0.96300  0.82700  1.0000
  F   F18       1.0  0.20700  0.06730  0.92800  1.0000
  F   F19       1.0  0.20700  0.43300  0.92800  1.0000
  F   F20       1.0  0.62900  0.25000  0.98600  1.0000
  K   K1        1.0  0.01150  0.25000  0.13600  1.0000
  K   K2        1.0  0.08910  0.75000  0.20900  1.0000
  K   K3        1.0  0.58900  0.75000  0.29100  1.0000
  K   K4        1.0  0.51100  0.25000  0.36400  1.0000
  K   K5        1.0  0.48900  0.75000  0.63600  1.0000
  K   K6        1.0  0.41100  0.25000  0.70900  1.0000
  K   K7        1.0  0.91100  0.25000  0.79100  1.0000
  K   K8        1.0  0.98900  0.75000  0.86400  1.0000
  Ti  Ti1       1.0  0.50000  0.00000  0.00000  1.0000
  Ti  Ti2       1.0  0.50000  0.50000  0.00000  1.0000
  Ti  Ti3       1.0  0.00000  0.00000  0.50000  1.0000
  Ti  Ti4       1.0  0.00000  0.50000  0.50000  1.0000
