data_image0
_chemical_formula_structural       C4F8Na4O12Yb4
_chemical_formula_sum              "C4 F8 Na4 O12 Yb4"
_cell_length_a       6.40247
_cell_length_b       6.65923
_cell_length_c       9.03015
_cell_angle_alpha    90
_cell_angle_beta     90
_cell_angle_gamma    90

_space_group_name_H-M_alt    "P 1"
_space_group_IT_number       1

loop_
  _space_group_symop_operation_xyz
  'x, y, z'

loop_
  _atom_site_type_symbol
  _atom_site_label
  _atom_site_symmetry_multiplicity
  _atom_site_fract_x
  _atom_site_fract_y
  _atom_site_fract_z
  _atom_site_occupancy
  C   C1        1.0  0.04480  0.75000  0.06180  1.0000
  C   C2        1.0  0.54500  0.75000  0.43800  1.0000
  C   C3        1.0  0.45500  0.25000  0.56200  1.0000
  C   C4        1.0  0.95500  0.25000  0.93800  1.0000
  F   F1        1.0  0.44800  0.05660  0.14000  1.0000
  F   F2        1.0  0.44800  0.44300  0.14000  1.0000
  F   F3        1.0  0.94800  0.05660  0.36000  1.0000
  F   F4        1.0  0.94800  0.44300  0.36000  1.0000
  F   F5        1.0  0.05190  0.55700  0.64000  1.0000
  F   F6        1.0  0.05190  0.94300  0.64000  1.0000
  F   F7        1.0  0.55200  0.55700  0.86000  1.0000
  F   F8        1.0  0.55200  0.94300  0.86000  1.0000
  Na  Na1       1.0  0.17500  0.25000  0.22300  1.0000
  Na  Na2       1.0  0.67500  0.25000  0.27700  1.0000
  Na  Na3       1.0  0.32500  0.75000  0.72300  1.0000
  Na  Na4       1.0  0.82500  0.75000  0.77700  1.0000
  O   O1        1.0  0.84700  0.75000  0.05080  1.0000
  O   O2        1.0  0.84500  0.25000  0.05620  1.0000
  O   O3        1.0  0.13300  0.75000  0.18800  1.0000
  O   O4        1.0  0.63300  0.75000  0.31200  1.0000
  O   O5        1.0  0.34500  0.25000  0.44400  1.0000
  O   O6        1.0  0.34700  0.75000  0.44900  1.0000
  O   O7        1.0  0.65300  0.25000  0.55100  1.0000
  O   O8        1.0  0.65500  0.75000  0.55600  1.0000
  O   O9        1.0  0.36700  0.25000  0.68800  1.0000
  O   O10       1.0  0.86700  0.25000  0.81200  1.0000
  O   O11       1.0  0.15500  0.75000  0.94400  1.0000
  O   O12       1.0  0.15300  0.25000  0.94900  1.0000
  Yb  Yb1       1.0  0.49600  0.75000  0.06410  1.0000
  Yb  Yb2       1.0  0.99600  0.75000  0.43600  1.0000
  Yb  Yb3       1.0  0.00393  0.25000  0.56400  1.0000
  Yb  Yb4       1.0  0.50400  0.25000  0.93600  1.0000
