data_image0
_chemical_formula_structural       Cl20Pu4Rb8
_chemical_formula_sum              "Cl20 Pu4 Rb8"
_cell_length_a       13.4177
_cell_length_b       8.8528
_cell_length_c       8.24437
_cell_angle_alpha    90
_cell_angle_beta     90
_cell_angle_gamma    90

_space_group_name_H-M_alt    "P 1"
_space_group_IT_number       1

loop_
  _space_group_symop_operation_xyz
  'x, y, z'

loop_
  _atom_site_type_symbol
  _atom_site_label
  _atom_site_symmetry_multiplicity
  _atom_site_fract_x
  _atom_site_fract_y
  _atom_site_fract_z
  _atom_site_occupancy
  Cl  Cl1       1.0  0.01260  0.25000  0.09700  1.0000
  Cl  Cl2       1.0  0.32900  0.75000  0.12700  1.0000
  Cl  Cl3       1.0  0.57900  0.53800  0.15400  1.0000
  Cl  Cl4       1.0  0.57900  0.96200  0.15400  1.0000
  Cl  Cl5       1.0  0.30500  0.25000  0.16100  1.0000
  Cl  Cl6       1.0  0.80500  0.25000  0.33900  1.0000
  Cl  Cl7       1.0  0.07890  0.53800  0.34600  1.0000
  Cl  Cl8       1.0  0.07890  0.96200  0.34600  1.0000
  Cl  Cl9       1.0  0.82900  0.75000  0.37300  1.0000
  Cl  Cl10      1.0  0.51300  0.25000  0.40300  1.0000
  Cl  Cl11      1.0  0.48700  0.75000  0.59700  1.0000
  Cl  Cl12      1.0  0.17100  0.25000  0.62700  1.0000
  Cl  Cl13      1.0  0.92100  0.03830  0.65400  1.0000
  Cl  Cl14      1.0  0.92100  0.46200  0.65400  1.0000
  Cl  Cl15      1.0  0.19500  0.75000  0.66100  1.0000
  Cl  Cl16      1.0  0.69500  0.75000  0.83900  1.0000
  Cl  Cl17      1.0  0.42100  0.03830  0.84600  1.0000
  Cl  Cl18      1.0  0.42100  0.46200  0.84600  1.0000
  Cl  Cl19      1.0  0.67100  0.25000  0.87300  1.0000
  Cl  Cl20      1.0  0.98700  0.75000  0.90300  1.0000
  Pu  Pu1       1.0  0.50200  0.25000  0.06220  1.0000
  Pu  Pu2       1.0  0.00167  0.25000  0.43800  1.0000
  Pu  Pu3       1.0  0.99800  0.75000  0.56200  1.0000
  Pu  Pu4       1.0  0.49800  0.75000  0.93800  1.0000
  Rb  Rb1       1.0  0.82900  0.50100  0.04430  1.0000
  Rb  Rb2       1.0  0.82900  0.99900  0.04430  1.0000
  Rb  Rb3       1.0  0.32900  0.50100  0.45600  1.0000
  Rb  Rb4       1.0  0.32900  0.99900  0.45600  1.0000
  Rb  Rb5       1.0  0.67100  0.00133  0.54400  1.0000
  Rb  Rb6       1.0  0.67100  0.49900  0.54400  1.0000
  Rb  Rb7       1.0  0.17100  0.00133  0.95600  1.0000
  Rb  Rb8       1.0  0.17100  0.49900  0.95600  1.0000
