data_image0
_chemical_formula_structural       Co4Sb8Tb20
_chemical_formula_sum              "Co4 Sb8 Tb20"
_cell_length_a       12.2258
_cell_length_b       8.79939
_cell_length_c       7.91953
_cell_angle_alpha    90
_cell_angle_beta     90
_cell_angle_gamma    90

_space_group_name_H-M_alt    "P 1"
_space_group_IT_number       1

loop_
  _space_group_symop_operation_xyz
  'x, y, z'

loop_
  _atom_site_type_symbol
  _atom_site_label
  _atom_site_symmetry_multiplicity
  _atom_site_fract_x
  _atom_site_fract_y
  _atom_site_fract_z
  _atom_site_occupancy
  Co  Co1       1.0  0.01020  0.75000  0.06750  1.0000
  Co  Co2       1.0  0.51000  0.75000  0.43200  1.0000
  Co  Co3       1.0  0.49000  0.25000  0.56800  1.0000
  Co  Co4       1.0  0.99000  0.25000  0.93200  1.0000
  Sb  Sb1       1.0  0.32700  0.00802  0.07250  1.0000
  Sb  Sb2       1.0  0.32700  0.49200  0.07250  1.0000
  Sb  Sb3       1.0  0.82700  0.00802  0.42800  1.0000
  Sb  Sb4       1.0  0.82700  0.49200  0.42800  1.0000
  Sb  Sb5       1.0  0.17300  0.50800  0.57200  1.0000
  Sb  Sb6       1.0  0.17300  0.99200  0.57200  1.0000
  Sb  Sb7       1.0  0.67300  0.50800  0.92800  1.0000
  Sb  Sb8       1.0  0.67300  0.99200  0.92800  1.0000
  Tb  Tb1       1.0  0.50200  0.75000  0.04460  1.0000
  Tb  Tb2       1.0  0.80600  0.25000  0.12200  1.0000
  Tb  Tb3       1.0  0.79700  0.75000  0.15300  1.0000
  Tb  Tb4       1.0  0.06470  0.03590  0.17900  1.0000
  Tb  Tb5       1.0  0.06470  0.46400  0.17900  1.0000
  Tb  Tb6       1.0  0.56500  0.03590  0.32100  1.0000
  Tb  Tb7       1.0  0.56500  0.46400  0.32100  1.0000
  Tb  Tb8       1.0  0.29700  0.75000  0.34700  1.0000
  Tb  Tb9       1.0  0.30600  0.25000  0.37800  1.0000
  Tb  Tb10      1.0  0.00208  0.75000  0.45500  1.0000
  Tb  Tb11      1.0  0.99800  0.25000  0.54500  1.0000
  Tb  Tb12      1.0  0.69400  0.75000  0.62200  1.0000
  Tb  Tb13      1.0  0.70300  0.25000  0.65300  1.0000
  Tb  Tb14      1.0  0.43500  0.53600  0.67900  1.0000
  Tb  Tb15      1.0  0.43500  0.96400  0.67900  1.0000
  Tb  Tb16      1.0  0.93500  0.53600  0.82100  1.0000
  Tb  Tb17      1.0  0.93500  0.96400  0.82100  1.0000
  Tb  Tb18      1.0  0.20300  0.25000  0.84700  1.0000
  Tb  Tb19      1.0  0.19400  0.75000  0.87800  1.0000
  Tb  Tb20      1.0  0.49800  0.25000  0.95500  1.0000
