data_image0
_chemical_formula_structural       C8Cs8O16
_chemical_formula_sum              "C8 Cs8 O16"
_cell_length_a       6.52503
_cell_length_b       10.862
_cell_length_c       8.53678
_cell_angle_alpha    90
_cell_angle_beta     97.1486
_cell_angle_gamma    90

_space_group_name_H-M_alt    "P 1"
_space_group_IT_number       1

loop_
  _space_group_symop_operation_xyz
  'x, y, z'

loop_
  _atom_site_type_symbol
  _atom_site_label
  _atom_site_symmetry_multiplicity
  _atom_site_fract_x
  _atom_site_fract_y
  _atom_site_fract_z
  _atom_site_occupancy
  C   C1        1.0  0.83400  0.39000  0.16600  1.0000
  C   C2        1.0  0.31100  0.94300  0.22500  1.0000
  C   C3        1.0  0.68900  0.44300  0.27500  1.0000
  C   C4        1.0  0.16600  0.89000  0.33400  1.0000
  C   C5        1.0  0.83400  0.11000  0.66600  1.0000
  C   C6        1.0  0.31100  0.55700  0.72500  1.0000
  C   C7        1.0  0.68900  0.05660  0.77500  1.0000
  C   C8        1.0  0.16600  0.61000  0.83400  1.0000
  Cs  Cs1       1.0  0.71400  0.70300  0.01740  1.0000
  Cs  Cs2       1.0  0.77100  0.08890  0.16700  1.0000
  Cs  Cs3       1.0  0.22900  0.58900  0.33300  1.0000
  Cs  Cs4       1.0  0.28600  0.20300  0.48300  1.0000
  Cs  Cs5       1.0  0.71400  0.79700  0.51700  1.0000
  Cs  Cs6       1.0  0.77100  0.41100  0.66700  1.0000
  Cs  Cs7       1.0  0.22900  0.91100  0.83300  1.0000
  Cs  Cs8       1.0  0.28600  0.29700  0.98300  1.0000
  O   O1        1.0  0.77600  0.39100  0.01820  1.0000
  O   O2        1.0  0.27300  0.05150  0.17000  1.0000
  O   O3        1.0  0.45700  0.87400  0.19300  1.0000
  O   O4        1.0  0.00291  0.34600  0.23500  1.0000
  O   O5        1.0  0.99700  0.84600  0.26500  1.0000
  O   O6        1.0  0.54300  0.37400  0.30700  1.0000
  O   O7        1.0  0.72700  0.55100  0.33000  1.0000
  O   O8        1.0  0.22400  0.89100  0.48200  1.0000
  O   O9        1.0  0.77600  0.10900  0.51800  1.0000
  O   O10       1.0  0.27300  0.44900  0.67000  1.0000
  O   O11       1.0  0.45700  0.62600  0.69300  1.0000
  O   O12       1.0  0.00291  0.15400  0.73500  1.0000
  O   O13       1.0  0.99700  0.65400  0.76500  1.0000
  O   O14       1.0  0.54300  0.12600  0.80700  1.0000
  O   O15       1.0  0.72700  0.94900  0.83000  1.0000
  O   O16       1.0  0.22400  0.60900  0.98200  1.0000
