data_image0
_chemical_formula_structural       Cl8O12Se4Zn8
_chemical_formula_sum              "Cl8 O12 Se4 Zn8"
_cell_length_a       7.54108
_cell_length_b       10.2954
_cell_length_c       7.65266
_cell_angle_alpha    90
_cell_angle_beta     99.9328
_cell_angle_gamma    90

_space_group_name_H-M_alt    "P 1"
_space_group_IT_number       1

loop_
  _space_group_symop_operation_xyz
  'x, y, z'

loop_
  _atom_site_type_symbol
  _atom_site_label
  _atom_site_symmetry_multiplicity
  _atom_site_fract_x
  _atom_site_fract_y
  _atom_site_fract_z
  _atom_site_occupancy
  Cl  Cl1       1.0  0.76800  0.22400  0.03370  1.0000
  Cl  Cl2       1.0  0.41000  0.40500  0.23700  1.0000
  Cl  Cl3       1.0  0.59000  0.90500  0.26300  1.0000
  Cl  Cl4       1.0  0.23200  0.72400  0.46600  1.0000
  Cl  Cl5       1.0  0.76800  0.27600  0.53400  1.0000
  Cl  Cl6       1.0  0.41000  0.09470  0.73700  1.0000
  Cl  Cl7       1.0  0.59000  0.59500  0.76300  1.0000
  Cl  Cl8       1.0  0.23200  0.77600  0.96600  1.0000
  O   O1        1.0  0.20400  0.08970  0.10600  1.0000
  O   O2        1.0  0.87000  0.68500  0.12100  1.0000
  O   O3        1.0  0.01470  0.45400  0.22000  1.0000
  O   O4        1.0  0.98500  0.95400  0.28000  1.0000
  O   O5        1.0  0.13000  0.18500  0.37900  1.0000
  O   O6        1.0  0.79600  0.59000  0.39400  1.0000
  O   O7        1.0  0.20400  0.41000  0.60600  1.0000
  O   O8        1.0  0.87000  0.81500  0.62100  1.0000
  O   O9        1.0  0.01470  0.04560  0.72000  1.0000
  O   O10       1.0  0.98500  0.54600  0.78000  1.0000
  O   O11       1.0  0.13000  0.31500  0.87900  1.0000
  O   O12       1.0  0.79600  0.91000  0.89400  1.0000
  Se  Se1       1.0  0.80500  0.53200  0.18300  1.0000
  Se  Se2       1.0  0.19500  0.03190  0.31700  1.0000
  Se  Se3       1.0  0.80500  0.96800  0.68300  1.0000
  Se  Se4       1.0  0.19500  0.46800  0.81700  1.0000
  Zn  Zn1       1.0  0.76300  0.01500  0.10700  1.0000
  Zn  Zn2       1.0  0.08440  0.27800  0.12600  1.0000
  Zn  Zn3       1.0  0.91600  0.77800  0.37400  1.0000
  Zn  Zn4       1.0  0.23700  0.51500  0.39300  1.0000
  Zn  Zn5       1.0  0.76300  0.48500  0.60700  1.0000
  Zn  Zn6       1.0  0.08440  0.22200  0.62600  1.0000
  Zn  Zn7       1.0  0.91600  0.72200  0.87400  1.0000
  Zn  Zn8       1.0  0.23700  0.98500  0.89300  1.0000
