data_image0
_chemical_formula_structural       Cr4H4La4O20
_chemical_formula_sum              "Cr4 H4 La4 O20"
_cell_length_a       4.68383
_cell_length_b       13.0788
_cell_length_c       6.97505
_cell_angle_alpha    90
_cell_angle_beta     107.265
_cell_angle_gamma    90

_space_group_name_H-M_alt    "P 1"
_space_group_IT_number       1

loop_
  _space_group_symop_operation_xyz
  'x, y, z'

loop_
  _atom_site_type_symbol
  _atom_site_label
  _atom_site_symmetry_multiplicity
  _atom_site_fract_x
  _atom_site_fract_y
  _atom_site_fract_z
  _atom_site_occupancy
  Cr  Cr1       1.0  0.02590  0.65000  0.12000  1.0000
  Cr  Cr2       1.0  0.47400  0.15000  0.38000  1.0000
  Cr  Cr3       1.0  0.52600  0.85000  0.62000  1.0000
  Cr  Cr4       1.0  0.97400  0.35000  0.88000  1.0000
  H   H1        1.0  0.29100  0.84600  0.00742  1.0000
  H   H2        1.0  0.20900  0.34600  0.49300  1.0000
  H   H3        1.0  0.79100  0.65400  0.50700  1.0000
  H   H4        1.0  0.70900  0.15400  0.99300  1.0000
  La  La1       1.0  0.86800  0.94400  0.20100  1.0000
  La  La2       1.0  0.63200  0.44400  0.29900  1.0000
  La  La3       1.0  0.36800  0.55600  0.70100  1.0000
  La  La4       1.0  0.13200  0.05580  0.79900  1.0000
  O   O1        1.0  0.73100  0.56900  0.05040  1.0000
  O   O2        1.0  0.32800  0.91700  0.05640  1.0000
  O   O3        1.0  0.84200  0.33400  0.06930  1.0000
  O   O4        1.0  0.92400  0.76100  0.18500  1.0000
  O   O5        1.0  0.21600  0.09720  0.18900  1.0000
  O   O6        1.0  0.28400  0.59700  0.31100  1.0000
  O   O7        1.0  0.57600  0.26100  0.31500  1.0000
  O   O8        1.0  0.65800  0.83400  0.43100  1.0000
  O   O9        1.0  0.17200  0.41700  0.44400  1.0000
  O   O10       1.0  0.76900  0.06870  0.45000  1.0000
  O   O11       1.0  0.23100  0.93100  0.55000  1.0000
  O   O12       1.0  0.82800  0.58300  0.55600  1.0000
  O   O13       1.0  0.34200  0.16600  0.56900  1.0000
  O   O14       1.0  0.42400  0.73900  0.68500  1.0000
  O   O15       1.0  0.71600  0.40300  0.68900  1.0000
  O   O16       1.0  0.78400  0.90300  0.81100  1.0000
  O   O17       1.0  0.07550  0.23900  0.81500  1.0000
  O   O18       1.0  0.15800  0.66600  0.93100  1.0000
  O   O19       1.0  0.67200  0.08350  0.94400  1.0000
  O   O20       1.0  0.26900  0.43100  0.95000  1.0000
