data_image0
_chemical_formula_structural       As12Ba12O4Ta4
_chemical_formula_sum              "As12 Ba12 O4 Ta4"
_cell_length_a       6.79556
_cell_length_b       11.2075
_cell_length_c       13.6076
_cell_angle_alpha    90
_cell_angle_beta     90
_cell_angle_gamma    90

_space_group_name_H-M_alt    "P 1"
_space_group_IT_number       1

loop_
  _space_group_symop_operation_xyz
  'x, y, z'

loop_
  _atom_site_type_symbol
  _atom_site_label
  _atom_site_symmetry_multiplicity
  _atom_site_fract_x
  _atom_site_fract_y
  _atom_site_fract_z
  _atom_site_occupancy
  As  As1       1.0  0.73400  0.05570  0.11700  1.0000
  As  As2       1.0  0.73400  0.44400  0.11700  1.0000
  As  As3       1.0  0.22400  0.75000  0.13500  1.0000
  As  As4       1.0  0.72400  0.75000  0.36500  1.0000
  As  As5       1.0  0.23400  0.05570  0.38300  1.0000
  As  As6       1.0  0.23400  0.44400  0.38300  1.0000
  As  As7       1.0  0.76600  0.55600  0.61700  1.0000
  As  As8       1.0  0.76600  0.94400  0.61700  1.0000
  As  As9       1.0  0.27600  0.25000  0.63500  1.0000
  As  As10      1.0  0.77600  0.25000  0.86500  1.0000
  As  As11      1.0  0.26600  0.55600  0.88300  1.0000
  As  As12      1.0  0.26600  0.94400  0.88300  1.0000
  Ba  Ba1       1.0  0.72200  0.75000  0.12700  1.0000
  Ba  Ba2       1.0  0.24200  0.04500  0.13200  1.0000
  Ba  Ba3       1.0  0.24200  0.45500  0.13200  1.0000
  Ba  Ba4       1.0  0.74200  0.04500  0.36800  1.0000
  Ba  Ba5       1.0  0.74200  0.45500  0.36800  1.0000
  Ba  Ba6       1.0  0.22200  0.75000  0.37300  1.0000
  Ba  Ba7       1.0  0.77800  0.25000  0.62700  1.0000
  Ba  Ba8       1.0  0.25800  0.54500  0.63200  1.0000
  Ba  Ba9       1.0  0.25800  0.95500  0.63200  1.0000
  Ba  Ba10      1.0  0.75800  0.54500  0.86800  1.0000
  Ba  Ba11      1.0  0.75800  0.95500  0.86800  1.0000
  Ba  Ba12      1.0  0.27800  0.25000  0.87300  1.0000
  O   O1        1.0  0.11400  0.25000  0.05420  1.0000
  O   O2        1.0  0.61400  0.25000  0.44600  1.0000
  O   O3        1.0  0.38600  0.75000  0.55400  1.0000
  O   O4        1.0  0.88600  0.75000  0.94600  1.0000
  Ta  Ta1       1.0  0.83800  0.25000  0.04470  1.0000
  Ta  Ta2       1.0  0.33800  0.25000  0.45500  1.0000
  Ta  Ta3       1.0  0.66200  0.75000  0.54500  1.0000
  Ta  Ta4       1.0  0.16200  0.75000  0.95500  1.0000
