data_image0
_chemical_formula_structural       Cl8O12Sb8Zn4
_chemical_formula_sum              "Cl8 O12 Sb8 Zn4"
_cell_length_a       17.2059
_cell_length_b       5.59602
_cell_length_c       6.37639
_cell_angle_alpha    90
_cell_angle_beta     90
_cell_angle_gamma    90

_space_group_name_H-M_alt    "P 1"
_space_group_IT_number       1

loop_
  _space_group_symop_operation_xyz
  'x, y, z'

loop_
  _atom_site_type_symbol
  _atom_site_label
  _atom_site_symmetry_multiplicity
  _atom_site_fract_x
  _atom_site_fract_y
  _atom_site_fract_z
  _atom_site_occupancy
  Cl  Cl1       1.0  0.02970  0.25000  0.13300  1.0000
  Cl  Cl2       1.0  0.61700  0.75000  0.13500  1.0000
  Cl  Cl3       1.0  0.11700  0.75000  0.36500  1.0000
  Cl  Cl4       1.0  0.53000  0.25000  0.36700  1.0000
  Cl  Cl5       1.0  0.47000  0.75000  0.63300  1.0000
  Cl  Cl6       1.0  0.88300  0.25000  0.63500  1.0000
  Cl  Cl7       1.0  0.38300  0.25000  0.86500  1.0000
  Cl  Cl8       1.0  0.97000  0.75000  0.86700  1.0000
  O   O1        1.0  0.28400  0.75000  0.02740  1.0000
  O   O2        1.0  0.84200  0.01580  0.14800  1.0000
  O   O3        1.0  0.84200  0.48400  0.14800  1.0000
  O   O4        1.0  0.34200  0.01580  0.35200  1.0000
  O   O5        1.0  0.34200  0.48400  0.35200  1.0000
  O   O6        1.0  0.78400  0.75000  0.47300  1.0000
  O   O7        1.0  0.21600  0.25000  0.52700  1.0000
  O   O8        1.0  0.65800  0.51600  0.64800  1.0000
  O   O9        1.0  0.65800  0.98400  0.64800  1.0000
  O   O10       1.0  0.15800  0.51600  0.85200  1.0000
  O   O11       1.0  0.15800  0.98400  0.85200  1.0000
  O   O12       1.0  0.71600  0.25000  0.97300  1.0000
  Sb  Sb1       1.0  0.38600  0.75000  0.17200  1.0000
  Sb  Sb2       1.0  0.26000  0.25000  0.24000  1.0000
  Sb  Sb3       1.0  0.76000  0.25000  0.26000  1.0000
  Sb  Sb4       1.0  0.88600  0.75000  0.32800  1.0000
  Sb  Sb5       1.0  0.11400  0.25000  0.67200  1.0000
  Sb  Sb6       1.0  0.24000  0.75000  0.74000  1.0000
  Sb  Sb7       1.0  0.74000  0.75000  0.76000  1.0000
  Sb  Sb8       1.0  0.61400  0.25000  0.82800  1.0000
  Zn  Zn1       1.0  0.08860  0.75000  0.01930  1.0000
  Zn  Zn2       1.0  0.58900  0.75000  0.48100  1.0000
  Zn  Zn3       1.0  0.41100  0.25000  0.51900  1.0000
  Zn  Zn4       1.0  0.91100  0.25000  0.98100  1.0000
