data_image0
_chemical_formula_structural       H4O20Pr4S4
_chemical_formula_sum              "H4 O20 Pr4 S4"
_cell_length_a       4.47406
_cell_length_b       12.4664
_cell_length_c       6.81455
_cell_angle_alpha    90
_cell_angle_beta     106.453
_cell_angle_gamma    90

_space_group_name_H-M_alt    "P 1"
_space_group_IT_number       1

loop_
  _space_group_symop_operation_xyz
  'x, y, z'

loop_
  _atom_site_type_symbol
  _atom_site_label
  _atom_site_symmetry_multiplicity
  _atom_site_fract_x
  _atom_site_fract_y
  _atom_site_fract_z
  _atom_site_occupancy
  H   H1        1.0  0.73700  0.65700  0.03340  1.0000
  H   H2        1.0  0.76300  0.15700  0.46700  1.0000
  H   H3        1.0  0.23700  0.84300  0.53300  1.0000
  H   H4        1.0  0.26300  0.34300  0.96700  1.0000
  O   O1        1.0  0.30700  0.41200  0.03790  1.0000
  O   O2        1.0  0.74800  0.06770  0.04980  1.0000
  O   O3        1.0  0.86500  0.83200  0.06170  1.0000
  O   O4        1.0  0.90600  0.24400  0.18600  1.0000
  O   O5        1.0  0.24200  0.59500  0.21500  1.0000
  O   O6        1.0  0.25800  0.09510  0.28500  1.0000
  O   O7        1.0  0.59400  0.74400  0.31400  1.0000
  O   O8        1.0  0.63500  0.33200  0.43800  1.0000
  O   O9        1.0  0.75200  0.56800  0.45000  1.0000
  O   O10       1.0  0.19300  0.91200  0.46200  1.0000
  O   O11       1.0  0.80700  0.08800  0.53800  1.0000
  O   O12       1.0  0.24800  0.43200  0.55000  1.0000
  O   O13       1.0  0.36500  0.66800  0.56200  1.0000
  O   O14       1.0  0.40600  0.25600  0.68600  1.0000
  O   O15       1.0  0.74200  0.90500  0.71500  1.0000
  O   O16       1.0  0.75800  0.40500  0.78500  1.0000
  O   O17       1.0  0.09390  0.75600  0.81400  1.0000
  O   O18       1.0  0.13500  0.16800  0.93800  1.0000
  O   O19       1.0  0.25200  0.93200  0.95000  1.0000
  O   O20       1.0  0.69300  0.58800  0.96200  1.0000
  Pr  Pr1       1.0  0.86400  0.43500  0.19700  1.0000
  Pr  Pr2       1.0  0.63600  0.93500  0.30300  1.0000
  Pr  Pr3       1.0  0.36400  0.06540  0.69700  1.0000
  Pr  Pr4       1.0  0.13600  0.56500  0.80300  1.0000
  S   S1        1.0  0.01730  0.14500  0.11300  1.0000
  S   S2        1.0  0.48300  0.64500  0.38700  1.0000
  S   S3        1.0  0.51700  0.35500  0.61300  1.0000
  S   S4        1.0  0.98300  0.85500  0.88700  1.0000
