data_image0
_chemical_formula_structural       F4Li4O16S4Zn4
_chemical_formula_sum              "F4 Li4 O16 S4 Zn4"
_cell_length_a       7.34582
_cell_length_b       6.29073
_cell_length_c       7.37086
_cell_angle_alpha    90
_cell_angle_beta     90
_cell_angle_gamma    90

_space_group_name_H-M_alt    "P 1"
_space_group_IT_number       1

loop_
  _space_group_symop_operation_xyz
  'x, y, z'

loop_
  _atom_site_type_symbol
  _atom_site_label
  _atom_site_symmetry_multiplicity
  _atom_site_fract_x
  _atom_site_fract_y
  _atom_site_fract_z
  _atom_site_occupancy
  F   F1        1.0  0.89900  0.25000  0.13500  1.0000
  F   F2        1.0  0.39900  0.25000  0.36500  1.0000
  F   F3        1.0  0.60100  0.75000  0.63500  1.0000
  F   F4        1.0  0.10100  0.75000  0.86500  1.0000
  Li  Li1       1.0  0.00000  0.00000  0.00000  1.0000
  Li  Li2       1.0  0.00000  0.50000  0.00000  1.0000
  Li  Li3       1.0  0.50000  0.00000  0.50000  1.0000
  Li  Li4       1.0  0.50000  0.50000  0.50000  1.0000
  O   O1        1.0  0.79600  0.75000  0.02790  1.0000
  O   O2        1.0  0.46400  0.75000  0.03940  1.0000
  O   O3        1.0  0.13700  0.56200  0.23200  1.0000
  O   O4        1.0  0.13700  0.93800  0.23200  1.0000
  O   O5        1.0  0.63700  0.56200  0.26800  1.0000
  O   O6        1.0  0.63700  0.93800  0.26800  1.0000
  O   O7        1.0  0.96400  0.75000  0.46100  1.0000
  O   O8        1.0  0.29600  0.75000  0.47200  1.0000
  O   O9        1.0  0.70400  0.25000  0.52800  1.0000
  O   O10       1.0  0.03630  0.25000  0.53900  1.0000
  O   O11       1.0  0.36300  0.06200  0.73200  1.0000
  O   O12       1.0  0.36300  0.43800  0.73200  1.0000
  O   O13       1.0  0.86300  0.06200  0.76800  1.0000
  O   O14       1.0  0.86300  0.43800  0.76800  1.0000
  O   O15       1.0  0.53600  0.25000  0.96100  1.0000
  O   O16       1.0  0.20400  0.25000  0.97200  1.0000
  S   S1        1.0  0.63300  0.75000  0.14500  1.0000
  S   S2        1.0  0.13300  0.75000  0.35500  1.0000
  S   S3        1.0  0.86700  0.25000  0.64500  1.0000
  S   S4        1.0  0.36700  0.25000  0.85500  1.0000
  Zn  Zn1       1.0  0.63900  0.25000  0.21000  1.0000
  Zn  Zn2       1.0  0.13900  0.25000  0.29000  1.0000
  Zn  Zn3       1.0  0.86100  0.75000  0.71000  1.0000
  Zn  Zn4       1.0  0.36100  0.75000  0.79000  1.0000
