data_image0
_chemical_formula_structural       As4Cd8F4O16
_chemical_formula_sum              "As4 Cd8 F4 O16"
_cell_length_a       6.86645
_cell_length_b       7.90295
_cell_length_c       10.0013
_cell_angle_alpha    90.023
_cell_angle_beta     110.077
_cell_angle_gamma    115.749

_space_group_name_H-M_alt    "P 1"
_space_group_IT_number       1

loop_
  _space_group_symop_operation_xyz
  'x, y, z'

loop_
  _atom_site_type_symbol
  _atom_site_label
  _atom_site_symmetry_multiplicity
  _atom_site_fract_x
  _atom_site_fract_y
  _atom_site_fract_z
  _atom_site_occupancy
  As  As1       1.0  0.77700  0.54600  0.19200  1.0000
  As  As2       1.0  0.53900  0.95400  0.30800  1.0000
  As  As3       1.0  0.46100  0.04600  0.69200  1.0000
  As  As4       1.0  0.22300  0.45400  0.80800  1.0000
  Cd  Cd1       1.0  0.32100  0.11300  0.01520  1.0000
  Cd  Cd2       1.0  0.19900  0.46000  0.15300  1.0000
  Cd  Cd3       1.0  0.08580  0.04000  0.34700  1.0000
  Cd  Cd4       1.0  0.69400  0.38700  0.48500  1.0000
  Cd  Cd5       1.0  0.30600  0.61300  0.51500  1.0000
  Cd  Cd6       1.0  0.91400  0.96000  0.65300  1.0000
  Cd  Cd7       1.0  0.80100  0.54000  0.84700  1.0000
  Cd  Cd8       1.0  0.67900  0.88700  0.98500  1.0000
  F   F1        1.0  0.03640  0.13500  0.10900  1.0000
  F   F2        1.0  0.29200  0.36500  0.39100  1.0000
  F   F3        1.0  0.70800  0.63500  0.60900  1.0000
  F   F4        1.0  0.96400  0.86500  0.89100  1.0000
  O   O1        1.0  0.84900  0.45200  0.07290  1.0000
  O   O2        1.0  0.52300  0.96900  0.13500  1.0000
  O   O3        1.0  0.48400  0.40300  0.14800  1.0000
  O   O4        1.0  0.83100  0.77700  0.18100  1.0000
  O   O5        1.0  0.37300  0.72300  0.31900  1.0000
  O   O6        1.0  0.43400  0.09750  0.35200  1.0000
  O   O7        1.0  0.92000  0.53100  0.36500  1.0000
  O   O8        1.0  0.82400  0.04770  0.42700  1.0000
  O   O9        1.0  0.17600  0.95200  0.57300  1.0000
  O   O10       1.0  0.08020  0.46900  0.63500  1.0000
  O   O11       1.0  0.56600  0.90300  0.64800  1.0000
  O   O12       1.0  0.62700  0.27700  0.68100  1.0000
  O   O13       1.0  0.16900  0.22300  0.81900  1.0000
  O   O14       1.0  0.51600  0.59700  0.85200  1.0000
  O   O15       1.0  0.47700  0.03120  0.86500  1.0000
  O   O16       1.0  0.15100  0.54800  0.92700  1.0000
