data_image0
_chemical_formula_structural       H4O20S4Sm4
_chemical_formula_sum              "H4 O20 S4 Sm4"
_cell_length_a       4.40634
_cell_length_b       12.2357
_cell_length_c       6.73605
_cell_angle_alpha    90
_cell_angle_beta     106.714
_cell_angle_gamma    90

_space_group_name_H-M_alt    "P 1"
_space_group_IT_number       1

loop_
  _space_group_symop_operation_xyz
  'x, y, z'

loop_
  _atom_site_type_symbol
  _atom_site_label
  _atom_site_symmetry_multiplicity
  _atom_site_fract_x
  _atom_site_fract_y
  _atom_site_fract_z
  _atom_site_occupancy
  H   H1        1.0  0.22700  0.84100  0.01810  1.0000
  H   H2        1.0  0.27300  0.34100  0.48200  1.0000
  H   H3        1.0  0.72700  0.65900  0.51800  1.0000
  H   H4        1.0  0.77300  0.15900  0.98200  1.0000
  O   O1        1.0  0.81300  0.08570  0.04480  1.0000
  O   O2        1.0  0.25000  0.43200  0.04940  1.0000
  O   O3        1.0  0.35800  0.66900  0.06550  1.0000
  O   O4        1.0  0.40600  0.25100  0.17900  1.0000
  O   O5        1.0  0.73300  0.90100  0.21200  1.0000
  O   O6        1.0  0.76700  0.40100  0.28800  1.0000
  O   O7        1.0  0.09400  0.75100  0.32100  1.0000
  O   O8        1.0  0.14200  0.16900  0.43500  1.0000
  O   O9        1.0  0.25000  0.93200  0.45100  1.0000
  O   O10       1.0  0.68700  0.58600  0.45500  1.0000
  O   O11       1.0  0.31300  0.41400  0.54500  1.0000
  O   O12       1.0  0.75000  0.06770  0.54900  1.0000
  O   O13       1.0  0.85800  0.83100  0.56500  1.0000
  O   O14       1.0  0.90600  0.24900  0.67900  1.0000
  O   O15       1.0  0.23300  0.59900  0.71200  1.0000
  O   O16       1.0  0.26700  0.09900  0.78800  1.0000
  O   O17       1.0  0.59400  0.74900  0.82100  1.0000
  O   O18       1.0  0.64200  0.33100  0.93500  1.0000
  O   O19       1.0  0.75000  0.56800  0.95100  1.0000
  O   O20       1.0  0.18700  0.91400  0.95500  1.0000
  S   S1        1.0  0.52200  0.35200  0.11200  1.0000
  S   S2        1.0  0.97800  0.85200  0.38800  1.0000
  S   S3        1.0  0.02160  0.14800  0.61200  1.0000
  S   S4        1.0  0.47800  0.64800  0.88800  1.0000
  Sm  Sm1       1.0  0.36600  0.06180  0.19900  1.0000
  Sm  Sm2       1.0  0.13400  0.56200  0.30100  1.0000
  Sm  Sm3       1.0  0.86600  0.43800  0.69900  1.0000
  Sm  Sm4       1.0  0.63400  0.93800  0.80100  1.0000
