data_image0
_chemical_formula_structural       C4F12H6O8Sb2
_chemical_formula_sum              "C4 F12 H6 O8 Sb2"
_cell_length_a       7.33931
_cell_length_b       7.33904
_cell_length_c       7.43158
_cell_angle_alpha    105.327
_cell_angle_beta     113.087
_cell_angle_gamma    109.593

_space_group_name_H-M_alt    "P 1"
_space_group_IT_number       1

loop_
  _space_group_symop_operation_xyz
  'x, y, z'

loop_
  _atom_site_type_symbol
  _atom_site_label
  _atom_site_symmetry_multiplicity
  _atom_site_fract_x
  _atom_site_fract_y
  _atom_site_fract_z
  _atom_site_occupancy
  C   C1        1.0  0.63600  0.84300  0.14500  1.0000
  C   C2        1.0  0.79900  0.08740  0.27200  1.0000
  C   C3        1.0  0.80200  0.50900  0.64500  1.0000
  C   C4        1.0  0.68500  0.47300  0.77200  1.0000
  F   F1        1.0  0.36900  0.36600  0.00073  1.0000
  F   F2        1.0  0.34000  0.03110  0.09150  1.0000
  F   F3        1.0  0.22400  0.65700  0.19100  1.0000
  F   F4        1.0  0.22800  0.31600  0.28600  1.0000
  F   F5        1.0  0.14900  0.95400  0.38500  1.0000
  F   F6        1.0  0.57600  0.07160  0.48200  1.0000
  F   F7        1.0  0.13400  0.63200  0.50100  1.0000
  F   F8        1.0  0.56000  0.75200  0.59100  1.0000
  F   F9        1.0  0.03350  0.96600  0.69100  1.0000
  F   F10       1.0  0.47000  0.05820  0.78600  1.0000
  F   F11       1.0  0.93100  0.23500  0.88500  1.0000
  F   F12       1.0  0.91000  0.90600  0.98200  1.0000
  H   H1        1.0  0.64300  0.11400  0.01610  1.0000
  H   H2        1.0  0.96100  0.56700  0.03610  1.0000
  H   H3        1.0  0.57800  0.59200  0.19300  1.0000
  H   H4        1.0  0.40200  0.37300  0.51600  1.0000
  H   H5        1.0  0.96900  0.07560  0.53600  1.0000
  H   H6        1.0  0.10000  0.61500  0.69300  1.0000
  O   O1        1.0  0.77700  0.20400  0.17500  1.0000
  O   O2        1.0  0.68600  0.75300  0.27500  1.0000
  O   O3        1.0  0.69200  0.46400  0.45300  1.0000
  O   O4        1.0  0.96100  0.18200  0.47300  1.0000
  O   O5        1.0  0.47100  0.39800  0.67500  1.0000
  O   O6        1.0  0.02180  0.58800  0.77500  1.0000
  O   O7        1.0  0.48900  0.76100  0.95300  1.0000
  O   O8        1.0  0.79200  0.51300  0.97300  1.0000
  Sb  Sb1       1.0  0.35600  0.85400  0.49300  1.0000
  Sb  Sb2       1.0  0.13900  0.13700  0.99300  1.0000
