data_image0
_chemical_formula_structural       La8S20Si4
_chemical_formula_sum              "La8 S20 Si4"
_cell_length_a       7.62901
_cell_length_b       12.6652
_cell_length_c       7.9128
_cell_angle_alpha    90
_cell_angle_beta     101.396
_cell_angle_gamma    90

_space_group_name_H-M_alt    "P 1"
_space_group_IT_number       1

loop_
  _space_group_symop_operation_xyz
  'x, y, z'

loop_
  _atom_site_type_symbol
  _atom_site_label
  _atom_site_symmetry_multiplicity
  _atom_site_fract_x
  _atom_site_fract_y
  _atom_site_fract_z
  _atom_site_occupancy
  La  La1       1.0  0.74000  0.09520  0.04500  1.0000
  La  La2       1.0  0.66400  0.66500  0.13300  1.0000
  La  La3       1.0  0.33600  0.16500  0.36700  1.0000
  La  La4       1.0  0.26000  0.59500  0.45500  1.0000
  La  La5       1.0  0.74000  0.40500  0.54500  1.0000
  La  La6       1.0  0.66400  0.83500  0.63300  1.0000
  La  La7       1.0  0.33600  0.33500  0.86700  1.0000
  La  La8       1.0  0.26000  0.90500  0.95500  1.0000
  S   S1        1.0  0.36100  0.12100  0.00333  1.0000
  S   S2        1.0  0.02410  0.27300  0.05080  1.0000
  S   S3        1.0  0.32500  0.52900  0.11200  1.0000
  S   S4        1.0  0.62700  0.29700  0.19500  1.0000
  S   S5        1.0  0.07920  0.00121  0.21800  1.0000
  S   S6        1.0  0.92100  0.50100  0.28200  1.0000
  S   S7        1.0  0.37300  0.79700  0.30500  1.0000
  S   S8        1.0  0.67500  0.02950  0.38800  1.0000
  S   S9        1.0  0.97600  0.77300  0.44900  1.0000
  S   S10       1.0  0.63900  0.62100  0.49700  1.0000
  S   S11       1.0  0.36100  0.37900  0.50300  1.0000
  S   S12       1.0  0.02410  0.22700  0.55100  1.0000
  S   S13       1.0  0.32500  0.97100  0.61200  1.0000
  S   S14       1.0  0.62700  0.20300  0.69500  1.0000
  S   S15       1.0  0.07920  0.49900  0.71800  1.0000
  S   S16       1.0  0.92100  0.99900  0.78200  1.0000
  S   S17       1.0  0.37300  0.70300  0.80500  1.0000
  S   S18       1.0  0.67500  0.47100  0.88800  1.0000
  S   S19       1.0  0.97600  0.72700  0.94900  1.0000
  S   S20       1.0  0.63900  0.87900  0.99700  1.0000
  Si  Si1       1.0  0.83000  0.38300  0.09610  1.0000
  Si  Si2       1.0  0.17000  0.88300  0.40400  1.0000
  Si  Si3       1.0  0.83000  0.11700  0.59600  1.0000
  Si  Si4       1.0  0.17000  0.61700  0.90400  1.0000
