data_image0
_chemical_formula_structural       Ag12Ge2O16S2
_chemical_formula_sum              "Ag12 Ge2 O16 S2"
_cell_length_a       10.3429
_cell_length_b       7.04581
_cell_length_c       7.04581
_cell_angle_alpha    90
_cell_angle_beta     109.914
_cell_angle_gamma    109.914

_space_group_name_H-M_alt    "P 1"
_space_group_IT_number       1

loop_
  _space_group_symop_operation_xyz
  'x, y, z'

loop_
  _atom_site_type_symbol
  _atom_site_label
  _atom_site_symmetry_multiplicity
  _atom_site_fract_x
  _atom_site_fract_y
  _atom_site_fract_z
  _atom_site_occupancy
  Ag  Ag1       1.0  0.00000  0.29100  0.00000  1.0000
  Ag  Ag2       1.0  0.00000  0.70900  0.00000  1.0000
  Ag  Ag3       1.0  0.78700  0.39300  0.14300  1.0000
  Ag  Ag4       1.0  0.50000  0.00000  0.29100  1.0000
  Ag  Ag5       1.0  0.50000  0.50000  0.29100  1.0000
  Ag  Ag6       1.0  0.28700  0.14300  0.39300  1.0000
  Ag  Ag7       1.0  0.00000  0.29100  0.50000  1.0000
  Ag  Ag8       1.0  0.00000  0.70900  0.50000  1.0000
  Ag  Ag9       1.0  0.71300  0.85700  0.60700  1.0000
  Ag  Ag10      1.0  0.50000  0.00000  0.70900  1.0000
  Ag  Ag11      1.0  0.50000  0.50000  0.70900  1.0000
  Ag  Ag12      1.0  0.21300  0.60700  0.85700  1.0000
  Ge  Ge1       1.0  0.25000  0.62500  0.37500  1.0000
  Ge  Ge2       1.0  0.75000  0.37500  0.62500  1.0000
  O   O1        1.0  0.15500  0.07770  0.00120  1.0000
  O   O2        1.0  0.65500  0.00120  0.07770  1.0000
  O   O3        1.0  0.65500  0.65400  0.07770  1.0000
  O   O4        1.0  0.35800  0.67900  0.21900  1.0000
  O   O5        1.0  0.14200  0.36000  0.32100  1.0000
  O   O6        1.0  0.14200  0.78100  0.32100  1.0000
  O   O7        1.0  0.84500  0.92200  0.34600  1.0000
  O   O8        1.0  0.64200  0.32100  0.36000  1.0000
  O   O9        1.0  0.35800  0.67900  0.64000  1.0000
  O   O10       1.0  0.15500  0.07770  0.65400  1.0000
  O   O11       1.0  0.85800  0.21900  0.67900  1.0000
  O   O12       1.0  0.85800  0.64000  0.67900  1.0000
  O   O13       1.0  0.64200  0.32100  0.78100  1.0000
  O   O14       1.0  0.34500  0.34600  0.92200  1.0000
  O   O15       1.0  0.34500  0.99900  0.92200  1.0000
  O   O16       1.0  0.84500  0.92200  0.99900  1.0000
  S   S1        1.0  0.75000  0.87500  0.12500  1.0000
  S   S2        1.0  0.25000  0.12500  0.87500  1.0000
