data_image0
_chemical_formula_structural       Bi8Ho20Pd4
_chemical_formula_sum              "Bi8 Ho20 Pd4"
_cell_length_a       12.2901
_cell_length_b       9.04791
_cell_length_c       8.02834
_cell_angle_alpha    90
_cell_angle_beta     90
_cell_angle_gamma    90

_space_group_name_H-M_alt    "P 1"
_space_group_IT_number       1

loop_
  _space_group_symop_operation_xyz
  'x, y, z'

loop_
  _atom_site_type_symbol
  _atom_site_label
  _atom_site_symmetry_multiplicity
  _atom_site_fract_x
  _atom_site_fract_y
  _atom_site_fract_z
  _atom_site_occupancy
  Bi  Bi1       1.0  0.32700  0.00873  0.06750  1.0000
  Bi  Bi2       1.0  0.32700  0.49100  0.06750  1.0000
  Bi  Bi3       1.0  0.82700  0.00873  0.43200  1.0000
  Bi  Bi4       1.0  0.82700  0.49100  0.43200  1.0000
  Bi  Bi5       1.0  0.17300  0.50900  0.56800  1.0000
  Bi  Bi6       1.0  0.17300  0.99100  0.56800  1.0000
  Bi  Bi7       1.0  0.67300  0.50900  0.93200  1.0000
  Bi  Bi8       1.0  0.67300  0.99100  0.93200  1.0000
  Ho  Ho1       1.0  0.50000  0.75000  0.04260  1.0000
  Ho  Ho2       1.0  0.80200  0.25000  0.13100  1.0000
  Ho  Ho3       1.0  0.78800  0.75000  0.16500  1.0000
  Ho  Ho4       1.0  0.06670  0.04970  0.17900  1.0000
  Ho  Ho5       1.0  0.06670  0.45000  0.17900  1.0000
  Ho  Ho6       1.0  0.56700  0.04970  0.32100  1.0000
  Ho  Ho7       1.0  0.56700  0.45000  0.32100  1.0000
  Ho  Ho8       1.0  0.28800  0.75000  0.33500  1.0000
  Ho  Ho9       1.0  0.30200  0.25000  0.36900  1.0000
  Ho  Ho10      1.0  0.00000  0.75000  0.45700  1.0000
  Ho  Ho11      1.0  0.00045  0.25000  0.54300  1.0000
  Ho  Ho12      1.0  0.69800  0.75000  0.63100  1.0000
  Ho  Ho13      1.0  0.71200  0.25000  0.66500  1.0000
  Ho  Ho14      1.0  0.43300  0.55000  0.67900  1.0000
  Ho  Ho15      1.0  0.43300  0.95000  0.67900  1.0000
  Ho  Ho16      1.0  0.93300  0.55000  0.82100  1.0000
  Ho  Ho17      1.0  0.93300  0.95000  0.82100  1.0000
  Ho  Ho18      1.0  0.21200  0.25000  0.83500  1.0000
  Ho  Ho19      1.0  0.19800  0.75000  0.86900  1.0000
  Ho  Ho20      1.0  0.50000  0.25000  0.95700  1.0000
  Pd  Pd1       1.0  0.01480  0.75000  0.08580  1.0000
  Pd  Pd2       1.0  0.51500  0.75000  0.41400  1.0000
  Pd  Pd3       1.0  0.48500  0.25000  0.58600  1.0000
  Pd  Pd4       1.0  0.98500  0.25000  0.91400  1.0000
