data_image0
_chemical_formula_structural       Co8Sn12Te12
_chemical_formula_sum              "Co8 Sn12 Te12"
_cell_length_a       9.17429
_cell_length_b       9.17429
_cell_length_c       9.17429
_cell_angle_alpha    90.0795
_cell_angle_beta     90.0795
_cell_angle_gamma    90.0795

_space_group_name_H-M_alt    "P 1"
_space_group_IT_number       1

loop_
  _space_group_symop_operation_xyz
  'x, y, z'

loop_
  _atom_site_type_symbol
  _atom_site_label
  _atom_site_symmetry_multiplicity
  _atom_site_fract_x
  _atom_site_fract_y
  _atom_site_fract_z
  _atom_site_occupancy
  Co  Co1       1.0  0.24800  0.74500  0.24500  1.0000
  Co  Co2       1.0  0.74500  0.24500  0.24800  1.0000
  Co  Co3       1.0  0.25300  0.25300  0.25300  1.0000
  Co  Co4       1.0  0.75500  0.75200  0.25500  1.0000
  Co  Co5       1.0  0.24500  0.24800  0.74500  1.0000
  Co  Co6       1.0  0.74700  0.74700  0.74700  1.0000
  Co  Co7       1.0  0.25500  0.75500  0.75200  1.0000
  Co  Co8       1.0  0.75200  0.25500  0.75500  1.0000
  Sn  Sn1       1.0  0.68000  0.83500  0.00233  1.0000
  Sn  Sn2       1.0  0.99800  0.32000  0.16500  1.0000
  Sn  Sn3       1.0  0.66600  0.50000  0.17900  1.0000
  Sn  Sn4       1.0  0.16500  0.99800  0.32000  1.0000
  Sn  Sn5       1.0  0.50000  0.82100  0.33400  1.0000
  Sn  Sn6       1.0  0.17900  0.66600  0.50000  1.0000
  Sn  Sn7       1.0  0.82100  0.33400  0.50000  1.0000
  Sn  Sn8       1.0  0.50000  0.17900  0.66600  1.0000
  Sn  Sn9       1.0  0.83500  0.00233  0.68000  1.0000
  Sn  Sn10      1.0  0.33400  0.50000  0.82100  1.0000
  Sn  Sn11      1.0  0.00233  0.68000  0.83500  1.0000
  Sn  Sn12      1.0  0.32000  0.16500  0.99800  1.0000
  Te  Te1       1.0  0.33900  0.84400  0.00094  1.0000
  Te  Te2       1.0  0.99900  0.66100  0.15600  1.0000
  Te  Te3       1.0  0.34400  0.49700  0.16100  1.0000
  Te  Te4       1.0  0.84400  0.00094  0.33900  1.0000
  Te  Te5       1.0  0.49700  0.16100  0.34400  1.0000
  Te  Te6       1.0  0.16100  0.34400  0.49700  1.0000
  Te  Te7       1.0  0.83900  0.65600  0.50300  1.0000
  Te  Te8       1.0  0.50300  0.83900  0.65600  1.0000
  Te  Te9       1.0  0.15600  0.99900  0.66100  1.0000
  Te  Te10      1.0  0.65600  0.50300  0.83900  1.0000
  Te  Te11      1.0  0.00094  0.33900  0.84400  1.0000
  Te  Te12      1.0  0.66100  0.15600  0.99900  1.0000
