data_image0
_chemical_formula_structural       Br20K4Pb8
_chemical_formula_sum              "Br20 K4 Pb8"
_cell_length_a       9.35565
_cell_length_b       8.6042
_cell_length_c       13.3021
_cell_angle_alpha    90
_cell_angle_beta     89.8651
_cell_angle_gamma    90

_space_group_name_H-M_alt    "P 1"
_space_group_IT_number       1

loop_
  _space_group_symop_operation_xyz
  'x, y, z'

loop_
  _atom_site_type_symbol
  _atom_site_label
  _atom_site_symmetry_multiplicity
  _atom_site_fract_x
  _atom_site_fract_y
  _atom_site_fract_z
  _atom_site_occupancy
  Br  Br1       1.0  0.78000  0.95800  0.00287  1.0000
  Br  Br2       1.0  0.46000  0.67900  0.07980  1.0000
  Br  Br3       1.0  0.04020  0.66200  0.10200  1.0000
  Br  Br4       1.0  0.76200  0.35200  0.18800  1.0000
  Br  Br5       1.0  0.23600  0.31400  0.21700  1.0000
  Br  Br6       1.0  0.76400  0.81400  0.28300  1.0000
  Br  Br7       1.0  0.23800  0.85200  0.31200  1.0000
  Br  Br8       1.0  0.96000  0.16200  0.39800  1.0000
  Br  Br9       1.0  0.54000  0.17900  0.42000  1.0000
  Br  Br10      1.0  0.22000  0.45800  0.49700  1.0000
  Br  Br11      1.0  0.78000  0.54200  0.50300  1.0000
  Br  Br12      1.0  0.46000  0.82100  0.58000  1.0000
  Br  Br13      1.0  0.04020  0.83800  0.60200  1.0000
  Br  Br14      1.0  0.76200  0.14800  0.68800  1.0000
  Br  Br15      1.0  0.23600  0.18600  0.71700  1.0000
  Br  Br16      1.0  0.76400  0.68600  0.78300  1.0000
  Br  Br17      1.0  0.23800  0.64800  0.81200  1.0000
  Br  Br18      1.0  0.96000  0.33800  0.89800  1.0000
  Br  Br19      1.0  0.54000  0.32100  0.92000  1.0000
  Br  Br20      1.0  0.22000  0.04220  0.99700  1.0000
  K   K1        1.0  0.50900  0.04890  0.17300  1.0000
  K   K2        1.0  0.49100  0.54900  0.32700  1.0000
  K   K3        1.0  0.50900  0.45100  0.67300  1.0000
  K   K4        1.0  0.49100  0.95100  0.82700  1.0000
  Pb  Pb1       1.0  0.74400  0.56700  0.00446  1.0000
  Pb  Pb2       1.0  0.01430  0.99300  0.17500  1.0000
  Pb  Pb3       1.0  0.98600  0.49300  0.32500  1.0000
  Pb  Pb4       1.0  0.25600  0.06670  0.49600  1.0000
  Pb  Pb5       1.0  0.74400  0.93300  0.50400  1.0000
  Pb  Pb6       1.0  0.01430  0.50700  0.67500  1.0000
  Pb  Pb7       1.0  0.98600  0.00684  0.82500  1.0000
  Pb  Pb8       1.0  0.25600  0.43300  0.99600  1.0000
