data_image0
_chemical_formula_structural       Cr4Eu4Ge4O20
_chemical_formula_sum              "Cr4 Eu4 Ge4 O20"
_cell_length_a       7.42812
_cell_length_b       8.38789
_cell_length_c       5.77193
_cell_angle_alpha    90
_cell_angle_beta     90
_cell_angle_gamma    90

_space_group_name_H-M_alt    "P 1"
_space_group_IT_number       1

loop_
  _space_group_symop_operation_xyz
  'x, y, z'

loop_
  _atom_site_type_symbol
  _atom_site_label
  _atom_site_symmetry_multiplicity
  _atom_site_fract_x
  _atom_site_fract_y
  _atom_site_fract_z
  _atom_site_occupancy
  Cr  Cr1       1.0  0.50000  0.00000  0.25000  1.0000
  Cr  Cr2       1.0  0.00000  0.50000  0.25000  1.0000
  Cr  Cr3       1.0  0.50000  0.00000  0.75000  1.0000
  Cr  Cr4       1.0  0.00000  0.50000  0.75000  1.0000
  Eu  Eu1       1.0  0.13600  0.16900  0.00000  1.0000
  Eu  Eu2       1.0  0.63600  0.33100  0.00000  1.0000
  Eu  Eu3       1.0  0.36400  0.66900  0.00000  1.0000
  Eu  Eu4       1.0  0.86400  0.83100  0.00000  1.0000
  Ge  Ge1       1.0  0.89200  0.14500  0.50000  1.0000
  Ge  Ge2       1.0  0.39200  0.35500  0.50000  1.0000
  Ge  Ge3       1.0  0.60800  0.64500  0.50000  1.0000
  Ge  Ge4       1.0  0.10800  0.85500  0.50000  1.0000
  O   O1        1.0  0.65800  0.05190  0.00000  1.0000
  O   O2        1.0  0.15800  0.44800  0.00000  1.0000
  O   O3        1.0  0.84200  0.55200  0.00000  1.0000
  O   O4        1.0  0.34200  0.94800  0.00000  1.0000
  O   O5        1.0  0.39800  0.20900  0.25800  1.0000
  O   O6        1.0  0.89800  0.29100  0.25800  1.0000
  O   O7        1.0  0.10200  0.70900  0.25800  1.0000
  O   O8        1.0  0.60200  0.79100  0.25800  1.0000
  O   O9        1.0  0.00000  0.00000  0.29200  1.0000
  O   O10       1.0  0.50000  0.50000  0.29200  1.0000
  O   O11       1.0  0.66100  0.07550  0.50000  1.0000
  O   O12       1.0  0.16100  0.42500  0.50000  1.0000
  O   O13       1.0  0.83900  0.57500  0.50000  1.0000
  O   O14       1.0  0.33900  0.92500  0.50000  1.0000
  O   O15       1.0  0.00000  0.00000  0.70800  1.0000
  O   O16       1.0  0.50000  0.50000  0.70800  1.0000
  O   O17       1.0  0.39800  0.20900  0.74200  1.0000
  O   O18       1.0  0.89800  0.29100  0.74200  1.0000
  O   O19       1.0  0.10200  0.70900  0.74200  1.0000
  O   O20       1.0  0.60200  0.79100  0.74200  1.0000
