data_image0
_chemical_formula_structural       Bi4Mn4O20P4
_chemical_formula_sum              "Bi4 Mn4 O20 P4"
_cell_length_a       7.43263
_cell_length_b       11.3276
_cell_length_c       5.33085
_cell_angle_alpha    90
_cell_angle_beta     109.022
_cell_angle_gamma    90

_space_group_name_H-M_alt    "P 1"
_space_group_IT_number       1

loop_
  _space_group_symop_operation_xyz
  'x, y, z'

loop_
  _atom_site_type_symbol
  _atom_site_label
  _atom_site_symmetry_multiplicity
  _atom_site_fract_x
  _atom_site_fract_y
  _atom_site_fract_z
  _atom_site_occupancy
  Bi  Bi1       1.0  0.18700  0.09990  0.11900  1.0000
  Bi  Bi2       1.0  0.31300  0.60000  0.38100  1.0000
  Bi  Bi3       1.0  0.68700  0.40000  0.61900  1.0000
  Bi  Bi4       1.0  0.81300  0.90000  0.88100  1.0000
  Mn  Mn1       1.0  0.68900  0.58900  0.13000  1.0000
  Mn  Mn2       1.0  0.81100  0.08910  0.37000  1.0000
  Mn  Mn3       1.0  0.18900  0.91100  0.63000  1.0000
  Mn  Mn4       1.0  0.31100  0.41100  0.87000  1.0000
  O   O1        1.0  0.90600  0.67500  0.02440  1.0000
  O   O2        1.0  0.33900  0.92300  0.06520  1.0000
  O   O3        1.0  0.82800  0.41800  0.10700  1.0000
  O   O4        1.0  0.50900  0.72700  0.18000  1.0000
  O   O5        1.0  0.48400  0.47500  0.25000  1.0000
  O   O6        1.0  0.01550  0.97500  0.25000  1.0000
  O   O7        1.0  0.99100  0.22700  0.32000  1.0000
  O   O8        1.0  0.67200  0.91800  0.39300  1.0000
  O   O9        1.0  0.16100  0.42300  0.43500  1.0000
  O   O10       1.0  0.59400  0.17500  0.47600  1.0000
  O   O11       1.0  0.40600  0.82500  0.52400  1.0000
  O   O12       1.0  0.83900  0.57700  0.56500  1.0000
  O   O13       1.0  0.32800  0.08230  0.60700  1.0000
  O   O14       1.0  0.00911  0.77300  0.68000  1.0000
  O   O15       1.0  0.98400  0.02510  0.75000  1.0000
  O   O16       1.0  0.51600  0.52500  0.75000  1.0000
  O   O17       1.0  0.49100  0.27300  0.82000  1.0000
  O   O18       1.0  0.17200  0.58200  0.89300  1.0000
  O   O19       1.0  0.66100  0.07740  0.93500  1.0000
  O   O20       1.0  0.09380  0.32500  0.97600  1.0000
  P   P1        1.0  0.01780  0.35000  0.21000  1.0000
  P   P2        1.0  0.48200  0.85000  0.29000  1.0000
  P   P3        1.0  0.51800  0.15000  0.71000  1.0000
  P   P4        1.0  0.98200  0.65000  0.79000  1.0000
