data_image0
_chemical_formula_structural       Bi12Br4O16
_chemical_formula_sum              "Bi12 Br4 O16"
_cell_length_a       5.71096
_cell_length_b       5.7124
_cell_length_c       18.8007
_cell_angle_alpha    90
_cell_angle_beta     90
_cell_angle_gamma    90

_space_group_name_H-M_alt    "P 1"
_space_group_IT_number       1

loop_
  _space_group_symop_operation_xyz
  'x, y, z'

loop_
  _atom_site_type_symbol
  _atom_site_label
  _atom_site_symmetry_multiplicity
  _atom_site_fract_x
  _atom_site_fract_y
  _atom_site_fract_z
  _atom_site_occupancy
  Bi  Bi1       1.0  0.75000  0.28500  0.00000  1.0000
  Bi  Bi2       1.0  0.25000  0.71500  0.00000  1.0000
  Bi  Bi3       1.0  0.21000  0.21300  0.14300  1.0000
  Bi  Bi4       1.0  0.71000  0.78700  0.14300  1.0000
  Bi  Bi5       1.0  0.21000  0.28700  0.35700  1.0000
  Bi  Bi6       1.0  0.71000  0.71300  0.35700  1.0000
  Bi  Bi7       1.0  0.75000  0.21500  0.50000  1.0000
  Bi  Bi8       1.0  0.25000  0.78500  0.50000  1.0000
  Bi  Bi9       1.0  0.29000  0.28700  0.64300  1.0000
  Bi  Bi10      1.0  0.79000  0.71300  0.64300  1.0000
  Bi  Bi11      1.0  0.29000  0.21300  0.85700  1.0000
  Bi  Bi12      1.0  0.79000  0.78700  0.85700  1.0000
  Br  Br1       1.0  0.72900  0.25000  0.25000  1.0000
  Br  Br2       1.0  0.22900  0.75000  0.25000  1.0000
  Br  Br3       1.0  0.77100  0.25000  0.75000  1.0000
  Br  Br4       1.0  0.27100  0.75000  0.75000  1.0000
  O   O1        1.0  0.06360  0.44400  0.06730  1.0000
  O   O2        1.0  0.56400  0.55600  0.06730  1.0000
  O   O3        1.0  0.48700  0.03600  0.08860  1.0000
  O   O4        1.0  0.98700  0.96400  0.08860  1.0000
  O   O5        1.0  0.48700  0.46400  0.41100  1.0000
  O   O6        1.0  0.98700  0.53600  0.41100  1.0000
  O   O7        1.0  0.06360  0.05630  0.43300  1.0000
  O   O8        1.0  0.56400  0.94400  0.43300  1.0000
  O   O9        1.0  0.43600  0.05630  0.56700  1.0000
  O   O10       1.0  0.93600  0.94400  0.56700  1.0000
  O   O11       1.0  0.01310  0.46400  0.58900  1.0000
  O   O12       1.0  0.51300  0.53600  0.58900  1.0000
  O   O13       1.0  0.01310  0.03600  0.91100  1.0000
  O   O14       1.0  0.51300  0.96400  0.91100  1.0000
  O   O15       1.0  0.43600  0.44400  0.93300  1.0000
  O   O16       1.0  0.93600  0.55600  0.93300  1.0000
