data_image0
_chemical_formula_structural       Au4C8Cs4N8S8
_chemical_formula_sum              "Au4 C8 Cs4 N8 S8"
_cell_length_a       6.46205
_cell_length_b       7.37422
_cell_length_c       17.4914
_cell_angle_alpha    98.5207
_cell_angle_beta     100.645
_cell_angle_gamma    64.014

_space_group_name_H-M_alt    "P 1"
_space_group_IT_number       1

loop_
  _space_group_symop_operation_xyz
  'x, y, z'

loop_
  _atom_site_type_symbol
  _atom_site_label
  _atom_site_symmetry_multiplicity
  _atom_site_fract_x
  _atom_site_fract_y
  _atom_site_fract_z
  _atom_site_occupancy
  Au  Au1       1.0  0.33300  0.25000  0.25000  1.0000
  Au  Au2       1.0  0.83500  0.25000  0.25000  1.0000
  Au  Au3       1.0  0.16500  0.75000  0.75000  1.0000
  Au  Au4       1.0  0.66700  0.75000  0.75000  1.0000
  C   C1        1.0  0.03070  0.13600  0.08830  1.0000
  C   C2        1.0  0.22000  0.60400  0.15200  1.0000
  C   C3        1.0  0.67100  0.89600  0.34800  1.0000
  C   C4        1.0  0.07850  0.36400  0.41200  1.0000
  C   C5        1.0  0.92200  0.63600  0.58800  1.0000
  C   C6        1.0  0.32900  0.10400  0.65200  1.0000
  C   C7        1.0  0.78000  0.39600  0.84800  1.0000
  C   C8        1.0  0.96900  0.86400  0.91200  1.0000
  Cs  Cs1       1.0  0.67200  0.70200  0.06360  1.0000
  Cs  Cs2       1.0  0.31000  0.79800  0.43600  1.0000
  Cs  Cs3       1.0  0.69000  0.20200  0.56400  1.0000
  Cs  Cs4       1.0  0.32800  0.29800  0.93600  1.0000
  N   N1        1.0  0.20200  0.11500  0.06570  1.0000
  N   N2        1.0  0.25900  0.61500  0.08980  1.0000
  N   N3        1.0  0.78400  0.88500  0.41000  1.0000
  N   N4        1.0  0.25100  0.38500  0.43400  1.0000
  N   N5        1.0  0.74900  0.61500  0.56600  1.0000
  N   N6        1.0  0.21600  0.11500  0.59000  1.0000
  N   N7        1.0  0.74100  0.38500  0.91000  1.0000
  N   N8        1.0  0.79800  0.88500  0.93400  1.0000
  S   S1        1.0  0.78400  0.16900  0.11600  1.0000
  S   S2        1.0  0.14300  0.59700  0.23600  1.0000
  S   S3        1.0  0.50300  0.90300  0.26400  1.0000
  S   S4        1.0  0.83700  0.33100  0.38400  1.0000
  S   S5        1.0  0.16300  0.66900  0.61600  1.0000
  S   S6        1.0  0.49700  0.09710  0.73600  1.0000
  S   S7        1.0  0.85700  0.40300  0.76400  1.0000
  S   S8        1.0  0.21600  0.83100  0.88400  1.0000
