data_image0
_chemical_formula_structural       Pb4Se12Tl16
_chemical_formula_sum              "Pb4 Se12 Tl16"
_cell_length_a       8.5536
_cell_length_b       8.5536
_cell_length_c       12.8267
_cell_angle_alpha    90
_cell_angle_beta     90
_cell_angle_gamma    90

_space_group_name_H-M_alt    "P 1"
_space_group_IT_number       1

loop_
  _space_group_symop_operation_xyz
  'x, y, z'

loop_
  _atom_site_type_symbol
  _atom_site_label
  _atom_site_symmetry_multiplicity
  _atom_site_fract_x
  _atom_site_fract_y
  _atom_site_fract_z
  _atom_site_occupancy
  Pb  Pb1       1.0  0.75000  0.75000  0.21400  1.0000
  Pb  Pb2       1.0  0.25000  0.25000  0.28600  1.0000
  Pb  Pb3       1.0  0.75000  0.75000  0.71400  1.0000
  Pb  Pb4       1.0  0.25000  0.25000  0.78600  1.0000
  Se  Se1       1.0  0.25000  0.25000  0.00970  1.0000
  Se  Se2       1.0  0.58200  0.08200  0.25000  1.0000
  Se  Se3       1.0  0.91800  0.41800  0.25000  1.0000
  Se  Se4       1.0  0.41800  0.58200  0.25000  1.0000
  Se  Se5       1.0  0.08200  0.91800  0.25000  1.0000
  Se  Se6       1.0  0.75000  0.75000  0.49000  1.0000
  Se  Se7       1.0  0.25000  0.25000  0.51000  1.0000
  Se  Se8       1.0  0.91800  0.08200  0.75000  1.0000
  Se  Se9       1.0  0.58200  0.41800  0.75000  1.0000
  Se  Se10      1.0  0.08200  0.58200  0.75000  1.0000
  Se  Se11      1.0  0.41800  0.91800  0.75000  1.0000
  Se  Se12      1.0  0.75000  0.75000  0.99000  1.0000
  Tl  Tl1       1.0  0.92000  0.13000  0.09480  1.0000
  Tl  Tl2       1.0  0.58000  0.37000  0.09480  1.0000
  Tl  Tl3       1.0  0.13000  0.58000  0.09480  1.0000
  Tl  Tl4       1.0  0.37000  0.92000  0.09480  1.0000
  Tl  Tl5       1.0  0.87000  0.07990  0.40500  1.0000
  Tl  Tl6       1.0  0.63000  0.42000  0.40500  1.0000
  Tl  Tl7       1.0  0.07990  0.63000  0.40500  1.0000
  Tl  Tl8       1.0  0.42000  0.87000  0.40500  1.0000
  Tl  Tl9       1.0  0.58000  0.13000  0.59500  1.0000
  Tl  Tl10      1.0  0.92000  0.37000  0.59500  1.0000
  Tl  Tl11      1.0  0.37000  0.58000  0.59500  1.0000
  Tl  Tl12      1.0  0.13000  0.92000  0.59500  1.0000
  Tl  Tl13      1.0  0.63000  0.07990  0.90500  1.0000
  Tl  Tl14      1.0  0.87000  0.42000  0.90500  1.0000
  Tl  Tl15      1.0  0.42000  0.63000  0.90500  1.0000
  Tl  Tl16      1.0  0.07990  0.87000  0.90500  1.0000
