data_image0
_chemical_formula_structural       C4Cl20N4Sb4
_chemical_formula_sum              "C4 Cl20 N4 Sb4"
_cell_length_a       11.0023
_cell_length_b       6.16669
_cell_length_c       12.5199
_cell_angle_alpha    90
_cell_angle_beta     91.9692
_cell_angle_gamma    90

_space_group_name_H-M_alt    "P 1"
_space_group_IT_number       1

loop_
  _space_group_symop_operation_xyz
  'x, y, z'

loop_
  _atom_site_type_symbol
  _atom_site_label
  _atom_site_symmetry_multiplicity
  _atom_site_fract_x
  _atom_site_fract_y
  _atom_site_fract_z
  _atom_site_occupancy
  C   C1        1.0  0.96200  0.08010  0.01800  1.0000
  C   C2        1.0  0.03750  0.58000  0.48200  1.0000
  C   C3        1.0  0.96200  0.42000  0.51800  1.0000
  C   C4        1.0  0.03750  0.92000  0.98200  1.0000
  Cl  Cl1       1.0  0.24600  0.33100  0.02940  1.0000
  Cl  Cl2       1.0  0.60200  0.23300  0.04220  1.0000
  Cl  Cl3       1.0  0.91100  0.65700  0.20100  1.0000
  Cl  Cl4       1.0  0.58800  0.69800  0.21100  1.0000
  Cl  Cl5       1.0  0.24100  0.72500  0.22600  1.0000
  Cl  Cl6       1.0  0.75900  0.22500  0.27400  1.0000
  Cl  Cl7       1.0  0.41200  0.19800  0.28900  1.0000
  Cl  Cl8       1.0  0.08850  0.15700  0.29900  1.0000
  Cl  Cl9       1.0  0.39800  0.73300  0.45800  1.0000
  Cl  Cl10      1.0  0.75400  0.83100  0.47100  1.0000
  Cl  Cl11      1.0  0.24600  0.16900  0.52900  1.0000
  Cl  Cl12      1.0  0.60200  0.26700  0.54200  1.0000
  Cl  Cl13      1.0  0.91100  0.84300  0.70100  1.0000
  Cl  Cl14      1.0  0.58800  0.80200  0.71100  1.0000
  Cl  Cl15      1.0  0.24100  0.77500  0.72600  1.0000
  Cl  Cl16      1.0  0.75900  0.27500  0.77400  1.0000
  Cl  Cl17      1.0  0.41200  0.30200  0.78900  1.0000
  Cl  Cl18      1.0  0.08850  0.34300  0.79900  1.0000
  Cl  Cl19      1.0  0.39800  0.76700  0.95800  1.0000
  Cl  Cl20      1.0  0.75400  0.66900  0.97100  1.0000
  N   N1        1.0  0.89900  0.21600  0.04850  1.0000
  N   N2        1.0  0.10100  0.71600  0.45100  1.0000
  N   N3        1.0  0.89900  0.28400  0.54900  1.0000
  N   N4        1.0  0.10100  0.78400  0.95100  1.0000
  Sb  Sb1       1.0  0.73200  0.47900  0.13400  1.0000
  Sb  Sb2       1.0  0.26800  0.97900  0.36600  1.0000
  Sb  Sb3       1.0  0.73200  0.02130  0.63400  1.0000
  Sb  Sb4       1.0  0.26800  0.52100  0.86600  1.0000
