data_image0
_chemical_formula_structural       Ba8F8Se12Sn4
_chemical_formula_sum              "Ba8 F8 Se12 Sn4"
_cell_length_a       6.40388
_cell_length_b       19.8451
_cell_length_c       6.44957
_cell_angle_alpha    90
_cell_angle_beta     90
_cell_angle_gamma    90

_space_group_name_H-M_alt    "P 1"
_space_group_IT_number       1

loop_
  _space_group_symop_operation_xyz
  'x, y, z'

loop_
  _atom_site_type_symbol
  _atom_site_label
  _atom_site_symmetry_multiplicity
  _atom_site_fract_x
  _atom_site_fract_y
  _atom_site_fract_z
  _atom_site_occupancy
  Ba  Ba1       1.0  0.74400  0.57400  0.00522  1.0000
  Ba  Ba2       1.0  0.74400  0.92600  0.00522  1.0000
  Ba  Ba3       1.0  0.24400  0.57400  0.49500  1.0000
  Ba  Ba4       1.0  0.24400  0.92600  0.49500  1.0000
  Ba  Ba5       1.0  0.75600  0.07360  0.50500  1.0000
  Ba  Ba6       1.0  0.75600  0.42600  0.50500  1.0000
  Ba  Ba7       1.0  0.25600  0.07360  0.99500  1.0000
  Ba  Ba8       1.0  0.25600  0.42600  0.99500  1.0000
  F   F1        1.0  0.99800  0.00128  0.24500  1.0000
  F   F2        1.0  0.99800  0.49900  0.24500  1.0000
  F   F3        1.0  0.49800  0.00128  0.25500  1.0000
  F   F4        1.0  0.49800  0.49900  0.25500  1.0000
  F   F5        1.0  0.50200  0.50100  0.74500  1.0000
  F   F6        1.0  0.50200  0.99900  0.74500  1.0000
  F   F7        1.0  0.00163  0.50100  0.75500  1.0000
  F   F8        1.0  0.00163  0.99900  0.75500  1.0000
  Se  Se1       1.0  0.76100  0.13500  0.01410  1.0000
  Se  Se2       1.0  0.76100  0.36500  0.01410  1.0000
  Se  Se3       1.0  0.75800  0.75000  0.01610  1.0000
  Se  Se4       1.0  0.25800  0.75000  0.48400  1.0000
  Se  Se5       1.0  0.26100  0.13500  0.48600  1.0000
  Se  Se6       1.0  0.26100  0.36500  0.48600  1.0000
  Se  Se7       1.0  0.73900  0.63500  0.51400  1.0000
  Se  Se8       1.0  0.73900  0.86500  0.51400  1.0000
  Se  Se9       1.0  0.74200  0.25000  0.51600  1.0000
  Se  Se10      1.0  0.24200  0.25000  0.98400  1.0000
  Se  Se11      1.0  0.23900  0.63500  0.98600  1.0000
  Se  Se12      1.0  0.23900  0.86500  0.98600  1.0000
  Sn  Sn1       1.0  0.35700  0.75000  0.09020  1.0000
  Sn  Sn2       1.0  0.85700  0.75000  0.41000  1.0000
  Sn  Sn3       1.0  0.14300  0.25000  0.59000  1.0000
  Sn  Sn4       1.0  0.64300  0.25000  0.91000  1.0000
