data_image0
_chemical_formula_structural       C6O18Rb4Sr4
_chemical_formula_sum              "C6 O18 Rb4 Sr4"
_cell_length_a       8.46086
_cell_length_b       8.46086
_cell_length_c       8.46086
_cell_angle_alpha    109.471
_cell_angle_beta     109.471
_cell_angle_gamma    109.471

_space_group_name_H-M_alt    "P 1"
_space_group_IT_number       1

loop_
  _space_group_symop_operation_xyz
  'x, y, z'

loop_
  _atom_site_type_symbol
  _atom_site_label
  _atom_site_symmetry_multiplicity
  _atom_site_fract_x
  _atom_site_fract_y
  _atom_site_fract_z
  _atom_site_occupancy
  C   C1        1.0  0.40900  0.75000  0.15900  1.0000
  C   C2        1.0  0.65900  0.40900  0.25000  1.0000
  C   C3        1.0  0.09130  0.25000  0.34100  1.0000
  C   C4        1.0  0.25000  0.84100  0.59100  1.0000
  C   C5        1.0  0.84100  0.09130  0.75000  1.0000
  C   C6        1.0  0.75000  0.65900  0.90900  1.0000
  O   O1        1.0  0.27500  0.75000  0.02480  1.0000
  O   O2        1.0  0.88600  0.74700  0.08680  1.0000
  O   O3        1.0  0.70100  0.36100  0.11400  1.0000
  O   O4        1.0  0.36100  0.61400  0.20100  1.0000
  O   O5        1.0  0.58700  0.88600  0.24700  1.0000
  O   O6        1.0  0.52500  0.27500  0.25000  1.0000
  O   O7        1.0  0.13900  0.34000  0.25300  1.0000
  O   O8        1.0  0.91300  0.16000  0.29900  1.0000
  O   O9        1.0  0.74700  0.58700  0.38600  1.0000
  O   O10       1.0  0.16000  0.79900  0.41300  1.0000
  O   O11       1.0  0.22500  0.25000  0.47500  1.0000
  O   O12       1.0  0.34000  0.75300  0.63900  1.0000
  O   O13       1.0  0.79900  0.91300  0.66000  1.0000
  O   O14       1.0  0.25000  0.97500  0.72500  1.0000
  O   O15       1.0  0.97500  0.22500  0.75000  1.0000
  O   O16       1.0  0.75000  0.52500  0.77500  1.0000
  O   O17       1.0  0.75300  0.13900  0.84000  1.0000
  O   O18       1.0  0.61400  0.70100  0.86100  1.0000
  Rb  Rb1       1.0  0.12200  0.00000  0.00000  1.0000
  Rb  Rb2       1.0  0.50000  0.12200  0.50000  1.0000
  Rb  Rb3       1.0  0.00000  0.50000  0.62200  1.0000
  Rb  Rb4       1.0  0.37800  0.37800  0.87800  1.0000
  Sr  Sr1       1.0  0.57900  0.00000  0.00000  1.0000
  Sr  Sr2       1.0  0.00000  0.50000  0.07920  1.0000
  Sr  Sr3       1.0  0.92100  0.92100  0.42100  1.0000
  Sr  Sr4       1.0  0.50000  0.57900  0.50000  1.0000
