data_image0
_chemical_formula_structural       F16H4O4Rb4Te4
_chemical_formula_sum              "F16 H4 O4 Rb4 Te4"
_cell_length_a       4.67144
_cell_length_b       7.917
_cell_length_c       13.2644
_cell_angle_alpha    93.8307
_cell_angle_beta     90
_cell_angle_gamma    107.159

_space_group_name_H-M_alt    "P 1"
_space_group_IT_number       1

loop_
  _space_group_symop_operation_xyz
  'x, y, z'

loop_
  _atom_site_type_symbol
  _atom_site_label
  _atom_site_symmetry_multiplicity
  _atom_site_fract_x
  _atom_site_fract_y
  _atom_site_fract_z
  _atom_site_occupancy
  F   F1        1.0  0.58500  0.87200  0.01970  1.0000
  F   F2        1.0  0.93300  0.62500  0.10100  1.0000
  F   F3        1.0  0.12300  0.00504  0.15100  1.0000
  F   F4        1.0  0.53000  0.76900  0.22600  1.0000
  F   F5        1.0  0.05480  0.46500  0.29300  1.0000
  F   F6        1.0  0.12200  0.01630  0.35800  1.0000
  F   F7        1.0  0.69300  0.63500  0.39400  1.0000
  F   F8        1.0  0.75900  0.17800  0.46100  1.0000
  F   F9        1.0  0.28700  0.87200  0.52000  1.0000
  F   F10       1.0  0.69300  0.62500  0.60100  1.0000
  F   F11       1.0  0.88200  0.00504  0.65100  1.0000
  F   F12       1.0  0.23900  0.76900  0.72600  1.0000
  F   F13       1.0  0.41000  0.46500  0.79300  1.0000
  F   F14       1.0  0.89400  0.01630  0.85800  1.0000
  F   F15       1.0  0.94100  0.63500  0.89400  1.0000
  F   F16       1.0  0.41900  0.17800  0.96100  1.0000
  H   H1        1.0  0.72600  0.19200  0.00696  1.0000
  H   H2        1.0  0.34800  0.45100  0.24800  1.0000
  H   H3        1.0  0.46600  0.19200  0.50700  1.0000
  H   H4        1.0  0.10200  0.45100  0.74800  1.0000
  O   O1        1.0  0.92300  0.20000  0.04060  1.0000
  O   O2        1.0  0.53600  0.44000  0.21500  1.0000
  O   O3        1.0  0.27700  0.20000  0.54100  1.0000
  O   O4        1.0  0.90400  0.44000  0.71500  1.0000
  Rb  Rb1       1.0  0.36500  0.51500  0.00422  1.0000
  Rb  Rb2       1.0  0.66900  0.12700  0.24800  1.0000
  Rb  Rb3       1.0  0.14900  0.51500  0.50400  1.0000
  Rb  Rb4       1.0  0.45800  0.12700  0.74800  1.0000
  Te  Te1       1.0  0.02310  0.98700  0.00083  1.0000
  Te  Te2       1.0  0.85200  0.65500  0.25100  1.0000
  Te  Te3       1.0  0.96400  0.98700  0.50100  1.0000
  Te  Te4       1.0  0.80300  0.65500  0.75100  1.0000
