data_image0
_chemical_formula_structural       C4N24O4
_chemical_formula_sum              "C4 N24 O4"
_cell_length_a       5.24413
_cell_length_b       5.36375
_cell_length_c       13.4571
_cell_angle_alpha    90
_cell_angle_beta     90
_cell_angle_gamma    90

_space_group_name_H-M_alt    "P 1"
_space_group_IT_number       1

loop_
  _space_group_symop_operation_xyz
  'x, y, z'

loop_
  _atom_site_type_symbol
  _atom_site_label
  _atom_site_symmetry_multiplicity
  _atom_site_fract_x
  _atom_site_fract_y
  _atom_site_fract_z
  _atom_site_occupancy
  C   C1        1.0  0.27000  0.75000  0.00453  1.0000
  C   C2        1.0  0.77000  0.75000  0.49500  1.0000
  C   C3        1.0  0.23000  0.25000  0.50500  1.0000
  C   C4        1.0  0.73000  0.25000  0.99500  1.0000
  N   N1        1.0  0.01390  0.75000  0.03400  1.0000
  N   N2        1.0  0.72500  0.25000  0.09990  1.0000
  N   N3        1.0  0.98000  0.75000  0.12500  1.0000
  N   N4        1.0  0.50700  0.25000  0.13600  1.0000
  N   N5        1.0  0.31700  0.25000  0.17800  1.0000
  N   N6        1.0  0.92400  0.75000  0.20700  1.0000
  N   N7        1.0  0.42400  0.75000  0.29300  1.0000
  N   N8        1.0  0.81700  0.25000  0.32200  1.0000
  N   N9        1.0  0.00707  0.25000  0.36400  1.0000
  N   N10       1.0  0.48000  0.75000  0.37500  1.0000
  N   N11       1.0  0.22500  0.25000  0.40000  1.0000
  N   N12       1.0  0.51400  0.75000  0.46600  1.0000
  N   N13       1.0  0.48600  0.25000  0.53400  1.0000
  N   N14       1.0  0.77500  0.75000  0.60000  1.0000
  N   N15       1.0  0.52000  0.25000  0.62500  1.0000
  N   N16       1.0  0.99300  0.75000  0.63600  1.0000
  N   N17       1.0  0.18300  0.75000  0.67800  1.0000
  N   N18       1.0  0.57600  0.25000  0.70700  1.0000
  N   N19       1.0  0.07580  0.25000  0.79300  1.0000
  N   N20       1.0  0.68300  0.75000  0.82200  1.0000
  N   N21       1.0  0.49300  0.75000  0.86400  1.0000
  N   N22       1.0  0.02020  0.25000  0.87500  1.0000
  N   N23       1.0  0.27500  0.75000  0.90000  1.0000
  N   N24       1.0  0.98600  0.25000  0.96600  1.0000
  O   O1        1.0  0.45500  0.75000  0.05970  1.0000
  O   O2        1.0  0.95500  0.75000  0.44000  1.0000
  O   O3        1.0  0.04500  0.25000  0.56000  1.0000
  O   O4        1.0  0.54500  0.25000  0.94000  1.0000
