data_image0
_chemical_formula_structural       Bi12Yb20
_chemical_formula_sum              "Bi12 Yb20"
_cell_length_a       12.6588
_cell_length_b       9.71929
_cell_length_c       8.35797
_cell_angle_alpha    90
_cell_angle_beta     90
_cell_angle_gamma    90

_space_group_name_H-M_alt    "P 1"
_space_group_IT_number       1

loop_
  _space_group_symop_operation_xyz
  'x, y, z'

loop_
  _atom_site_type_symbol
  _atom_site_label
  _atom_site_symmetry_multiplicity
  _atom_site_fract_x
  _atom_site_fract_y
  _atom_site_fract_z
  _atom_site_occupancy
  Bi  Bi1       1.0  0.32800  0.01070  0.06310  1.0000
  Bi  Bi2       1.0  0.32800  0.48900  0.06310  1.0000
  Bi  Bi3       1.0  0.01560  0.75000  0.07670  1.0000
  Bi  Bi4       1.0  0.51600  0.75000  0.42300  1.0000
  Bi  Bi5       1.0  0.82800  0.01070  0.43700  1.0000
  Bi  Bi6       1.0  0.82800  0.48900  0.43700  1.0000
  Bi  Bi7       1.0  0.17200  0.51100  0.56300  1.0000
  Bi  Bi8       1.0  0.17200  0.98900  0.56300  1.0000
  Bi  Bi9       1.0  0.48400  0.25000  0.57700  1.0000
  Bi  Bi10      1.0  0.98400  0.25000  0.92300  1.0000
  Bi  Bi11      1.0  0.67200  0.51100  0.93700  1.0000
  Bi  Bi12      1.0  0.67200  0.98900  0.93700  1.0000
  Yb  Yb1       1.0  0.49700  0.75000  0.03600  1.0000
  Yb  Yb2       1.0  0.79100  0.25000  0.15400  1.0000
  Yb  Yb3       1.0  0.77000  0.75000  0.18200  1.0000
  Yb  Yb4       1.0  0.07480  0.04170  0.19600  1.0000
  Yb  Yb5       1.0  0.07480  0.45800  0.19600  1.0000
  Yb  Yb6       1.0  0.57500  0.04170  0.30400  1.0000
  Yb  Yb7       1.0  0.57500  0.45800  0.30400  1.0000
  Yb  Yb8       1.0  0.27000  0.75000  0.31800  1.0000
  Yb  Yb9       1.0  0.29100  0.25000  0.34600  1.0000
  Yb  Yb10      1.0  0.99700  0.75000  0.46400  1.0000
  Yb  Yb11      1.0  0.00334  0.25000  0.53600  1.0000
  Yb  Yb12      1.0  0.70900  0.75000  0.65400  1.0000
  Yb  Yb13      1.0  0.73000  0.25000  0.68200  1.0000
  Yb  Yb14      1.0  0.42500  0.54200  0.69600  1.0000
  Yb  Yb15      1.0  0.42500  0.95800  0.69600  1.0000
  Yb  Yb16      1.0  0.92500  0.54200  0.80400  1.0000
  Yb  Yb17      1.0  0.92500  0.95800  0.80400  1.0000
  Yb  Yb18      1.0  0.23000  0.25000  0.81800  1.0000
  Yb  Yb19      1.0  0.20900  0.75000  0.84600  1.0000
  Yb  Yb20      1.0  0.50300  0.25000  0.96400  1.0000
