data_image0
_chemical_formula_structural       Cs12O16P4
_chemical_formula_sum              "Cs12 O16 P4"
_cell_length_a       12.2346
_cell_length_b       8.85021
_cell_length_c       6.39974
_cell_angle_alpha    90
_cell_angle_beta     90
_cell_angle_gamma    90

_space_group_name_H-M_alt    "P 1"
_space_group_IT_number       1

loop_
  _space_group_symop_operation_xyz
  'x, y, z'

loop_
  _atom_site_type_symbol
  _atom_site_label
  _atom_site_symmetry_multiplicity
  _atom_site_fract_x
  _atom_site_fract_y
  _atom_site_fract_z
  _atom_site_occupancy
  Cs  Cs1       1.0  0.92100  0.25000  0.14600  1.0000
  Cs  Cs2       1.0  0.64500  0.50700  0.18400  1.0000
  Cs  Cs3       1.0  0.64500  0.99300  0.18400  1.0000
  Cs  Cs4       1.0  0.14500  0.50700  0.31600  1.0000
  Cs  Cs5       1.0  0.14500  0.99300  0.31600  1.0000
  Cs  Cs6       1.0  0.42100  0.25000  0.35400  1.0000
  Cs  Cs7       1.0  0.57900  0.75000  0.64600  1.0000
  Cs  Cs8       1.0  0.85500  0.00681  0.68400  1.0000
  Cs  Cs9       1.0  0.85500  0.49300  0.68400  1.0000
  Cs  Cs10      1.0  0.35500  0.00681  0.81600  1.0000
  Cs  Cs11      1.0  0.35500  0.49300  0.81600  1.0000
  Cs  Cs12      1.0  0.07860  0.75000  0.85400  1.0000
  O   O1        1.0  0.48400  0.75000  0.07280  1.0000
  O   O2        1.0  0.27600  0.75000  0.10500  1.0000
  O   O3        1.0  0.89200  0.60500  0.13000  1.0000
  O   O4        1.0  0.89200  0.89500  0.13000  1.0000
  O   O5        1.0  0.39200  0.60500  0.37000  1.0000
  O   O6        1.0  0.39200  0.89500  0.37000  1.0000
  O   O7        1.0  0.77600  0.75000  0.39500  1.0000
  O   O8        1.0  0.98400  0.75000  0.42700  1.0000
  O   O9        1.0  0.01650  0.25000  0.57300  1.0000
  O   O10       1.0  0.22400  0.25000  0.60500  1.0000
  O   O11       1.0  0.60800  0.10500  0.63000  1.0000
  O   O12       1.0  0.60800  0.39500  0.63000  1.0000
  O   O13       1.0  0.10800  0.10500  0.87000  1.0000
  O   O14       1.0  0.10800  0.39500  0.87000  1.0000
  O   O15       1.0  0.72400  0.25000  0.89500  1.0000
  O   O16       1.0  0.51600  0.25000  0.92700  1.0000
  P   P1        1.0  0.38600  0.75000  0.23200  1.0000
  P   P2        1.0  0.88600  0.75000  0.26800  1.0000
  P   P3        1.0  0.11400  0.25000  0.73200  1.0000
  P   P4        1.0  0.61400  0.25000  0.76800  1.0000
