data_image0
_chemical_formula_structural       F16H4N4P8
_chemical_formula_sum              "F16 H4 N4 P8"
_cell_length_a       7.78471
_cell_length_b       4.29756
_cell_length_c       11.1474
_cell_angle_alpha    90.0001
_cell_angle_beta     95.0552
_cell_angle_gamma    89.9996

_space_group_name_H-M_alt    "P 1"
_space_group_IT_number       1

loop_
  _space_group_symop_operation_xyz
  'x, y, z'

loop_
  _atom_site_type_symbol
  _atom_site_label
  _atom_site_symmetry_multiplicity
  _atom_site_fract_x
  _atom_site_fract_y
  _atom_site_fract_z
  _atom_site_occupancy
  F   F1        1.0  0.90900  0.72700  0.04350  1.0000
  F   F2        1.0  0.72900  0.16000  0.07040  1.0000
  F   F3        1.0  0.24400  0.58200  0.14300  1.0000
  F   F4        1.0  0.41400  0.03430  0.15000  1.0000
  F   F5        1.0  0.08570  0.53400  0.35000  1.0000
  F   F6        1.0  0.25600  0.08150  0.35700  1.0000
  F   F7        1.0  0.77100  0.66000  0.43000  1.0000
  F   F8        1.0  0.59100  0.22700  0.45700  1.0000
  F   F9        1.0  0.40900  0.77300  0.54300  1.0000
  F   F10       1.0  0.22900  0.34000  0.57000  1.0000
  F   F11       1.0  0.74400  0.91800  0.64300  1.0000
  F   F12       1.0  0.91400  0.46600  0.65000  1.0000
  F   F13       1.0  0.58600  0.96600  0.85000  1.0000
  F   F14       1.0  0.75600  0.41800  0.85700  1.0000
  F   F15       1.0  0.27100  0.84000  0.93000  1.0000
  F   F16       1.0  0.09090  0.27300  0.95700  1.0000
  H   H1        1.0  0.08490  0.20500  0.14200  1.0000
  H   H2        1.0  0.41500  0.70500  0.35800  1.0000
  H   H3        1.0  0.58500  0.29500  0.64200  1.0000
  H   H4        1.0  0.91500  0.79500  0.85800  1.0000
  N   N1        1.0  0.00793  0.10900  0.20200  1.0000
  N   N2        1.0  0.49200  0.60900  0.29800  1.0000
  N   N3        1.0  0.50800  0.39100  0.70200  1.0000
  N   N4        1.0  0.99200  0.89100  0.79800  1.0000
  P   P1        1.0  0.44700  0.66200  0.14900  1.0000
  P   P2        1.0  0.83400  0.90500  0.15400  1.0000
  P   P3        1.0  0.66600  0.40500  0.34600  1.0000
  P   P4        1.0  0.05280  0.16200  0.35100  1.0000
  P   P5        1.0  0.94700  0.83800  0.64900  1.0000
  P   P6        1.0  0.33400  0.59500  0.65400  1.0000
  P   P7        1.0  0.16600  0.09520  0.84600  1.0000
  P   P8        1.0  0.55300  0.33800  0.85100  1.0000
