data_image0
_chemical_formula_structural       Cl2H18O10Sr2
_chemical_formula_sum              "Cl2 H18 O10 Sr2"
_cell_length_a       5.85898
_cell_length_b       7.09965
_cell_length_c       7.56249
_cell_angle_alpha    89.6183
_cell_angle_beta     107.932
_cell_angle_gamma    92.1531

_space_group_name_H-M_alt    "P 1"
_space_group_IT_number       1

loop_
  _space_group_symop_operation_xyz
  'x, y, z'

loop_
  _atom_site_type_symbol
  _atom_site_label
  _atom_site_symmetry_multiplicity
  _atom_site_fract_x
  _atom_site_fract_y
  _atom_site_fract_z
  _atom_site_occupancy
  Cl  Cl1       1.0  0.15900  0.48900  0.28100  1.0000
  Cl  Cl2       1.0  0.84100  0.51100  0.71900  1.0000
  H   H1        1.0  0.13900  0.70000  0.03450  1.0000
  H   H2        1.0  0.68800  0.79900  0.05270  1.0000
  H   H3        1.0  0.68600  0.18600  0.05280  1.0000
  H   H4        1.0  0.45500  0.33700  0.17300  1.0000
  H   H5        1.0  0.88600  0.67800  0.20700  1.0000
  H   H6        1.0  0.63900  0.80500  0.31900  1.0000
  H   H7        1.0  0.70200  0.17700  0.32100  1.0000
  H   H8        1.0  0.44800  0.69600  0.39600  1.0000
  H   H9        1.0  0.90600  0.30000  0.46500  1.0000
  H   H10       1.0  0.09380  0.70000  0.53500  1.0000
  H   H11       1.0  0.55200  0.30400  0.60400  1.0000
  H   H12       1.0  0.29800  0.82300  0.67900  1.0000
  H   H13       1.0  0.36100  0.19500  0.68100  1.0000
  H   H14       1.0  0.11400  0.32200  0.79300  1.0000
  H   H15       1.0  0.54500  0.66300  0.82700  1.0000
  H   H16       1.0  0.31400  0.81400  0.94700  1.0000
  H   H17       1.0  0.31200  0.20100  0.94700  1.0000
  H   H18       1.0  0.86100  0.30000  0.96600  1.0000
  O   O1        1.0  0.82700  0.17200  0.00180  1.0000
  O   O2        1.0  0.48000  0.20600  0.14600  1.0000
  O   O3        1.0  0.80100  0.79900  0.18800  1.0000
  O   O4        1.0  0.54000  0.81800  0.40700  1.0000
  O   O5        1.0  0.85700  0.16800  0.43100  1.0000
  O   O6        1.0  0.14300  0.83200  0.56900  1.0000
  O   O7        1.0  0.46000  0.18200  0.59300  1.0000
  O   O8        1.0  0.19900  0.20100  0.81200  1.0000
  O   O9        1.0  0.52000  0.79400  0.85400  1.0000
  O   O10       1.0  0.17300  0.82800  0.99800  1.0000
  Sr  Sr1       1.0  0.17500  0.04280  0.28500  1.0000
  Sr  Sr2       1.0  0.82500  0.95700  0.71500  1.0000
