data_image0
_chemical_formula_structural       In8O20Ti4
_chemical_formula_sum              "In8 O20 Ti4"
_cell_length_a       7.26861
_cell_length_b       3.52895
_cell_length_c       14.9697
_cell_angle_alpha    90
_cell_angle_beta     90
_cell_angle_gamma    90

_space_group_name_H-M_alt    "P 1"
_space_group_IT_number       1

loop_
  _space_group_symop_operation_xyz
  'x, y, z'

loop_
  _atom_site_type_symbol
  _atom_site_label
  _atom_site_symmetry_multiplicity
  _atom_site_fract_x
  _atom_site_fract_y
  _atom_site_fract_z
  _atom_site_occupancy
  In  In1       1.0  0.09820  0.25000  0.08390  1.0000
  In  In2       1.0  0.32700  0.75000  0.23900  1.0000
  In  In3       1.0  0.82700  0.75000  0.26100  1.0000
  In  In4       1.0  0.59800  0.25000  0.41600  1.0000
  In  In5       1.0  0.40200  0.75000  0.58400  1.0000
  In  In6       1.0  0.17300  0.25000  0.73900  1.0000
  In  In7       1.0  0.67300  0.25000  0.76100  1.0000
  In  In8       1.0  0.90200  0.75000  0.91600  1.0000
  O   O1        1.0  0.84600  0.25000  0.00405  1.0000
  O   O2        1.0  0.57100  0.75000  0.04480  1.0000
  O   O3        1.0  0.37100  0.25000  0.14900  1.0000
  O   O4        1.0  0.05960  0.75000  0.17500  1.0000
  O   O5        1.0  0.74200  0.25000  0.18100  1.0000
  O   O6        1.0  0.24200  0.25000  0.31900  1.0000
  O   O7        1.0  0.56000  0.75000  0.32500  1.0000
  O   O8        1.0  0.87100  0.25000  0.35100  1.0000
  O   O9        1.0  0.07070  0.75000  0.45500  1.0000
  O   O10       1.0  0.34600  0.25000  0.49600  1.0000
  O   O11       1.0  0.65400  0.75000  0.50400  1.0000
  O   O12       1.0  0.92900  0.25000  0.54500  1.0000
  O   O13       1.0  0.12900  0.75000  0.64900  1.0000
  O   O14       1.0  0.44000  0.25000  0.67500  1.0000
  O   O15       1.0  0.75800  0.75000  0.68100  1.0000
  O   O16       1.0  0.25800  0.75000  0.81900  1.0000
  O   O17       1.0  0.94000  0.25000  0.82500  1.0000
  O   O18       1.0  0.62900  0.75000  0.85100  1.0000
  O   O19       1.0  0.42900  0.25000  0.95500  1.0000
  O   O20       1.0  0.15400  0.75000  0.99600  1.0000
  Ti  Ti1       1.0  0.60800  0.25000  0.07710  1.0000
  Ti  Ti2       1.0  0.10800  0.25000  0.42300  1.0000
  Ti  Ti3       1.0  0.89200  0.75000  0.57700  1.0000
  Ti  Ti4       1.0  0.39200  0.75000  0.92300  1.0000
