data_image0
_chemical_formula_structural       As8Na8Se16
_chemical_formula_sum              "As8 Na8 Se16"
_cell_length_a       11.7739
_cell_length_b       5.96873
_cell_length_c       11.9652
_cell_angle_alpha    90
_cell_angle_beta     90.2679
_cell_angle_gamma    90

_space_group_name_H-M_alt    "P 1"
_space_group_IT_number       1

loop_
  _space_group_symop_operation_xyz
  'x, y, z'

loop_
  _atom_site_type_symbol
  _atom_site_label
  _atom_site_symmetry_multiplicity
  _atom_site_fract_x
  _atom_site_fract_y
  _atom_site_fract_z
  _atom_site_occupancy
  As  As1       1.0  0.74600  0.06970  0.27400  1.0000
  As  As2       1.0  0.49900  0.01430  0.45000  1.0000
  As  As3       1.0  0.24600  0.45500  0.46300  1.0000
  As  As4       1.0  0.00115  0.08830  0.49800  1.0000
  As  As5       1.0  0.74600  0.93000  0.77400  1.0000
  As  As6       1.0  0.49900  0.98600  0.95000  1.0000
  As  As7       1.0  0.24600  0.54500  0.96300  1.0000
  As  As8       1.0  0.00115  0.91200  0.99800  1.0000
  Na  Na1       1.0  0.74100  0.47400  0.00156  1.0000
  Na  Na2       1.0  0.48000  0.49400  0.23700  1.0000
  Na  Na3       1.0  0.23900  0.98200  0.24600  1.0000
  Na  Na4       1.0  0.98000  0.52300  0.26600  1.0000
  Na  Na5       1.0  0.74100  0.52600  0.50200  1.0000
  Na  Na6       1.0  0.48000  0.50600  0.73700  1.0000
  Na  Na7       1.0  0.23900  0.01750  0.74600  1.0000
  Na  Na8       1.0  0.98000  0.47700  0.76600  1.0000
  Se  Se1       1.0  0.99400  0.51800  0.01620  1.0000
  Se  Se2       1.0  0.73000  0.46300  0.25100  1.0000
  Se  Se3       1.0  0.49400  0.99200  0.25200  1.0000
  Se  Se4       1.0  0.22900  0.48200  0.26600  1.0000
  Se  Se5       1.0  0.96300  0.02340  0.29700  1.0000
  Se  Se6       1.0  0.71100  0.02420  0.47900  1.0000
  Se  Se7       1.0  0.46300  0.41400  0.48900  1.0000
  Se  Se8       1.0  0.21400  0.04600  0.49600  1.0000
  Se  Se9       1.0  0.99400  0.48200  0.51600  1.0000
  Se  Se10      1.0  0.73000  0.53700  0.75100  1.0000
  Se  Se11      1.0  0.49400  0.00782  0.75200  1.0000
  Se  Se12      1.0  0.22900  0.51800  0.76600  1.0000
  Se  Se13      1.0  0.96300  0.97700  0.79700  1.0000
  Se  Se14      1.0  0.71100  0.97600  0.97900  1.0000
  Se  Se15      1.0  0.46300  0.58600  0.98900  1.0000
  Se  Se16      1.0  0.21400  0.95400  0.99600  1.0000
