data_image0
_chemical_formula_structural       Br6Cr2H18N6
_chemical_formula_sum              "Br6 Cr2 H18 N6"
_cell_length_a       5.90154
_cell_length_b       6.73904
_cell_length_c       9.84278
_cell_angle_alpha    86.232
_cell_angle_beta     87.1308
_cell_angle_gamma    84.9432

_space_group_name_H-M_alt    "P 1"
_space_group_IT_number       1

loop_
  _space_group_symop_operation_xyz
  'x, y, z'

loop_
  _atom_site_type_symbol
  _atom_site_label
  _atom_site_symmetry_multiplicity
  _atom_site_fract_x
  _atom_site_fract_y
  _atom_site_fract_z
  _atom_site_occupancy
  Br  Br1       1.0  0.74600  0.69100  0.07230  1.0000
  Br  Br2       1.0  0.29200  0.99200  0.22900  1.0000
  Br  Br3       1.0  0.73200  0.27700  0.41300  1.0000
  Br  Br4       1.0  0.26800  0.72300  0.58700  1.0000
  Br  Br5       1.0  0.70800  0.00790  0.77100  1.0000
  Br  Br6       1.0  0.25400  0.30900  0.92800  1.0000
  Cr  Cr1       1.0  0.50000  0.00000  0.00000  1.0000
  Cr  Cr2       1.0  0.00000  0.50000  0.50000  1.0000
  H   H1        1.0  0.89200  0.16200  0.02800  1.0000
  H   H2        1.0  0.67800  0.32700  0.05660  1.0000
  H   H3        1.0  0.74800  0.15500  0.17600  1.0000
  H   H4        1.0  0.08480  0.47200  0.23500  1.0000
  H   H5        1.0  0.25400  0.63100  0.28900  1.0000
  H   H6        1.0  0.31700  0.38600  0.31300  1.0000
  H   H7        1.0  0.74600  0.72700  0.32600  1.0000
  H   H8        1.0  0.89900  0.87400  0.40500  1.0000
  H   H9        1.0  0.66500  0.79200  0.48000  1.0000
  H   H10       1.0  0.33500  0.20800  0.52000  1.0000
  H   H11       1.0  0.10100  0.12600  0.59500  1.0000
  H   H12       1.0  0.25400  0.27300  0.67400  1.0000
  H   H13       1.0  0.68300  0.61400  0.68700  1.0000
  H   H14       1.0  0.74600  0.36900  0.71100  1.0000
  H   H15       1.0  0.91500  0.52800  0.76500  1.0000
  H   H16       1.0  0.25200  0.84500  0.82400  1.0000
  H   H17       1.0  0.32200  0.67300  0.94300  1.0000
  H   H18       1.0  0.10800  0.83800  0.97200  1.0000
  N   N1        1.0  0.73100  0.17800  0.07300  1.0000
  N   N2        1.0  0.18500  0.49700  0.31300  1.0000
  N   N3        1.0  0.80600  0.75100  0.41900  1.0000
  N   N4        1.0  0.19400  0.24900  0.58100  1.0000
  N   N5        1.0  0.81500  0.50300  0.68700  1.0000
  N   N6        1.0  0.26900  0.82200  0.92700  1.0000
