data_image0
_chemical_formula_structural       Er4F20K8
_chemical_formula_sum              "Er4 F20 K8"
_cell_length_a       6.3743
_cell_length_b       7.09438
_cell_length_c       10.3955
_cell_angle_alpha    90
_cell_angle_beta     90
_cell_angle_gamma    90

_space_group_name_H-M_alt    "P 1"
_space_group_IT_number       1

loop_
  _space_group_symop_operation_xyz
  'x, y, z'

loop_
  _atom_site_type_symbol
  _atom_site_label
  _atom_site_symmetry_multiplicity
  _atom_site_fract_x
  _atom_site_fract_y
  _atom_site_fract_z
  _atom_site_occupancy
  Er  Er1       1.0  0.06590  0.99500  0.00523  1.0000
  Er  Er2       1.0  0.56600  0.49500  0.49500  1.0000
  Er  Er3       1.0  0.43400  0.99500  0.50500  1.0000
  Er  Er4       1.0  0.93400  0.49500  0.99500  1.0000
  F   F1        1.0  0.40500  0.99500  0.01070  1.0000
  F   F2        1.0  0.15500  0.28300  0.07490  1.0000
  F   F3        1.0  0.15500  0.70600  0.07520  1.0000
  F   F4        1.0  0.87100  0.99500  0.17300  1.0000
  F   F5        1.0  0.83900  0.49500  0.19700  1.0000
  F   F6        1.0  0.33900  0.99500  0.30300  1.0000
  F   F7        1.0  0.37100  0.49500  0.32700  1.0000
  F   F8        1.0  0.65500  0.20600  0.42500  1.0000
  F   F9        1.0  0.65500  0.78300  0.42500  1.0000
  F   F10       1.0  0.90500  0.49500  0.48900  1.0000
  F   F11       1.0  0.09520  0.99500  0.51100  1.0000
  F   F12       1.0  0.34500  0.28300  0.57500  1.0000
  F   F13       1.0  0.34500  0.70600  0.57500  1.0000
  F   F14       1.0  0.62900  0.99500  0.67300  1.0000
  F   F15       1.0  0.66100  0.49500  0.69700  1.0000
  F   F16       1.0  0.16100  0.99500  0.80300  1.0000
  F   F17       1.0  0.12900  0.49500  0.82700  1.0000
  F   F18       1.0  0.84500  0.20600  0.92500  1.0000
  F   F19       1.0  0.84500  0.78300  0.92500  1.0000
  F   F20       1.0  0.59500  0.49500  0.98900  1.0000
  K   K1        1.0  0.54300  0.24000  0.17000  1.0000
  K   K2        1.0  0.54300  0.75000  0.17000  1.0000
  K   K3        1.0  0.04310  0.25000  0.33000  1.0000
  K   K4        1.0  0.04260  0.74000  0.33000  1.0000
  K   K5        1.0  0.95700  0.24000  0.67000  1.0000
  K   K6        1.0  0.95700  0.75000  0.67000  1.0000
  K   K7        1.0  0.45700  0.25000  0.83000  1.0000
  K   K8        1.0  0.45700  0.74000  0.83000  1.0000
