data_image0
_chemical_formula_structural       Au20Ba4Ge8
_chemical_formula_sum              "Au20 Ba4 Ge8"
_cell_length_a       9.20389
_cell_length_b       7.23441
_cell_length_c       10.619
_cell_angle_alpha    90
_cell_angle_beta     90
_cell_angle_gamma    90

_space_group_name_H-M_alt    "P 1"
_space_group_IT_number       1

loop_
  _space_group_symop_operation_xyz
  'x, y, z'

loop_
  _atom_site_type_symbol
  _atom_site_label
  _atom_site_symmetry_multiplicity
  _atom_site_fract_x
  _atom_site_fract_y
  _atom_site_fract_z
  _atom_site_occupancy
  Au  Au1       1.0  0.40100  0.55400  0.11100  1.0000
  Au  Au2       1.0  0.40100  0.94600  0.11100  1.0000
  Au  Au3       1.0  0.07510  0.04310  0.14900  1.0000
  Au  Au4       1.0  0.07510  0.45700  0.14900  1.0000
  Au  Au5       1.0  0.81000  0.25000  0.20000  1.0000
  Au  Au6       1.0  0.31000  0.25000  0.30000  1.0000
  Au  Au7       1.0  0.57500  0.04310  0.35100  1.0000
  Au  Au8       1.0  0.57500  0.45700  0.35100  1.0000
  Au  Au9       1.0  0.90100  0.55400  0.38900  1.0000
  Au  Au10      1.0  0.90100  0.94600  0.38900  1.0000
  Au  Au11      1.0  0.09940  0.05380  0.61100  1.0000
  Au  Au12      1.0  0.09940  0.44600  0.61100  1.0000
  Au  Au13      1.0  0.42500  0.54300  0.64900  1.0000
  Au  Au14      1.0  0.42500  0.95700  0.64900  1.0000
  Au  Au15      1.0  0.69000  0.75000  0.70000  1.0000
  Au  Au16      1.0  0.19000  0.75000  0.80000  1.0000
  Au  Au17      1.0  0.92500  0.54300  0.85100  1.0000
  Au  Au18      1.0  0.92500  0.95700  0.85100  1.0000
  Au  Au19      1.0  0.59900  0.05380  0.88900  1.0000
  Au  Au20      1.0  0.59900  0.44600  0.88900  1.0000
  Ba  Ba1       1.0  0.75500  0.75000  0.11800  1.0000
  Ba  Ba2       1.0  0.25500  0.75000  0.38200  1.0000
  Ba  Ba3       1.0  0.74500  0.25000  0.61800  1.0000
  Ba  Ba4       1.0  0.24500  0.25000  0.88200  1.0000
  Ge  Ge1       1.0  0.15600  0.75000  0.04060  1.0000
  Ge  Ge2       1.0  0.54400  0.25000  0.12400  1.0000
  Ge  Ge3       1.0  0.04450  0.25000  0.37600  1.0000
  Ge  Ge4       1.0  0.65600  0.75000  0.45900  1.0000
  Ge  Ge5       1.0  0.34400  0.25000  0.54100  1.0000
  Ge  Ge6       1.0  0.95600  0.75000  0.62400  1.0000
  Ge  Ge7       1.0  0.45600  0.75000  0.87600  1.0000
  Ge  Ge8       1.0  0.84400  0.25000  0.95900  1.0000
