data_image0
_chemical_formula_structural       H8O16P4Tl4
_chemical_formula_sum              "H8 O16 P4 Tl4"
_cell_length_a       4.30454
_cell_length_b       13.4616
_cell_length_c       6.36482
_cell_angle_alpha    90
_cell_angle_beta     90
_cell_angle_gamma    90

_space_group_name_H-M_alt    "P 1"
_space_group_IT_number       1

loop_
  _space_group_symop_operation_xyz
  'x, y, z'

loop_
  _atom_site_type_symbol
  _atom_site_label
  _atom_site_symmetry_multiplicity
  _atom_site_fract_x
  _atom_site_fract_y
  _atom_site_fract_z
  _atom_site_occupancy
  H   H1        1.0  0.00000  0.80400  0.25000  1.0000
  H   H2        1.0  0.50000  0.69600  0.75000  1.0000
  H   H3        1.0  0.00000  0.19600  0.75000  1.0000
  H   H4        1.0  0.50000  0.30400  0.25000  1.0000
  H   H5        1.0  0.00000  0.50000  0.00000  1.0000
  H   H6        1.0  0.50000  0.00000  0.50000  1.0000
  H   H7        1.0  0.50000  0.00000  0.00000  1.0000
  H   H8        1.0  0.00000  0.50000  0.50000  1.0000
  O   O1        1.0  0.74100  0.30400  0.15500  1.0000
  O   O2        1.0  0.75900  0.19600  0.65500  1.0000
  O   O3        1.0  0.24100  0.19600  0.84500  1.0000
  O   O4        1.0  0.25900  0.30400  0.34500  1.0000
  O   O5        1.0  0.25900  0.69600  0.84500  1.0000
  O   O6        1.0  0.24100  0.80400  0.34500  1.0000
  O   O7        1.0  0.75900  0.80400  0.15500  1.0000
  O   O8        1.0  0.74100  0.69600  0.65500  1.0000
  O   O9        1.0  0.15300  0.43700  0.08100  1.0000
  O   O10       1.0  0.34700  0.06300  0.58100  1.0000
  O   O11       1.0  0.65300  0.06300  0.91900  1.0000
  O   O12       1.0  0.84700  0.43700  0.41900  1.0000
  O   O13       1.0  0.84700  0.56300  0.91900  1.0000
  O   O14       1.0  0.65300  0.93700  0.41900  1.0000
  O   O15       1.0  0.34700  0.93700  0.08100  1.0000
  O   O16       1.0  0.15300  0.56300  0.58100  1.0000
  P   P1        1.0  0.00000  0.37000  0.25000  1.0000
  P   P2        1.0  0.50000  0.13000  0.75000  1.0000
  P   P3        1.0  0.00000  0.63000  0.75000  1.0000
  P   P4        1.0  0.50000  0.87000  0.25000  1.0000
  Tl  Tl1       1.0  0.00000  0.11600  0.25000  1.0000
  Tl  Tl2       1.0  0.50000  0.38400  0.75000  1.0000
  Tl  Tl3       1.0  0.00000  0.88400  0.75000  1.0000
  Tl  Tl4       1.0  0.50000  0.61600  0.25000  1.0000
