data_image0
_chemical_formula_structural       H8O16Sr4Te4
_chemical_formula_sum              "H8 O16 Sr4 Te4"
_cell_length_a       7.66465
_cell_length_b       7.085
_cell_length_c       8.23595
_cell_angle_alpha    90
_cell_angle_beta     107.139
_cell_angle_gamma    90

_space_group_name_H-M_alt    "P 1"
_space_group_IT_number       1

loop_
  _space_group_symop_operation_xyz
  'x, y, z'

loop_
  _atom_site_type_symbol
  _atom_site_label
  _atom_site_symmetry_multiplicity
  _atom_site_fract_x
  _atom_site_fract_y
  _atom_site_fract_z
  _atom_site_occupancy
  H   H1        1.0  0.99400  0.92000  0.16800  1.0000
  H   H2        1.0  0.80400  0.94800  0.20900  1.0000
  H   H3        1.0  0.19600  0.44800  0.29100  1.0000
  H   H4        1.0  0.00566  0.42000  0.33200  1.0000
  H   H5        1.0  0.99400  0.58000  0.66800  1.0000
  H   H6        1.0  0.80400  0.55200  0.70900  1.0000
  H   H7        1.0  0.19600  0.05210  0.79100  1.0000
  H   H8        1.0  0.00566  0.08020  0.83200  1.0000
  O   O1        1.0  0.43400  0.80500  0.05100  1.0000
  O   O2        1.0  0.85800  0.92200  0.11300  1.0000
  O   O3        1.0  0.29200  0.47800  0.14300  1.0000
  O   O4        1.0  0.78800  0.41800  0.21800  1.0000
  O   O5        1.0  0.21200  0.91800  0.28200  1.0000
  O   O6        1.0  0.70800  0.97800  0.35700  1.0000
  O   O7        1.0  0.14200  0.42200  0.38700  1.0000
  O   O8        1.0  0.56600  0.30500  0.44900  1.0000
  O   O9        1.0  0.43400  0.69500  0.55100  1.0000
  O   O10       1.0  0.85800  0.57800  0.61300  1.0000
  O   O11       1.0  0.29200  0.02180  0.64300  1.0000
  O   O12       1.0  0.78800  0.08170  0.71800  1.0000
  O   O13       1.0  0.21200  0.58200  0.78200  1.0000
  O   O14       1.0  0.70800  0.52200  0.85700  1.0000
  O   O15       1.0  0.14200  0.07820  0.88700  1.0000
  O   O16       1.0  0.56600  0.19500  0.94900  1.0000
  Sr  Sr1       1.0  0.39700  0.14200  0.16500  1.0000
  Sr  Sr2       1.0  0.60300  0.64200  0.33500  1.0000
  Sr  Sr3       1.0  0.39700  0.35800  0.66500  1.0000
  Sr  Sr4       1.0  0.60300  0.85800  0.83500  1.0000
  Te  Te1       1.0  0.79600  0.31600  0.00689  1.0000
  Te  Te2       1.0  0.20400  0.81600  0.49300  1.0000
  Te  Te3       1.0  0.79600  0.18400  0.50700  1.0000
  Te  Te4       1.0  0.20400  0.68400  0.99300  1.0000
