data_image0
_chemical_formula_structural       As4Na4O20V4
_chemical_formula_sum              "As4 Na4 O20 V4"
_cell_length_a       6.62046
_cell_length_b       8.7478
_cell_length_c       7.08033
_cell_angle_alpha    90
_cell_angle_beta     114.126
_cell_angle_gamma    90

_space_group_name_H-M_alt    "P 1"
_space_group_IT_number       1

loop_
  _space_group_symop_operation_xyz
  'x, y, z'

loop_
  _atom_site_type_symbol
  _atom_site_label
  _atom_site_symmetry_multiplicity
  _atom_site_fract_x
  _atom_site_fract_y
  _atom_site_fract_z
  _atom_site_occupancy
  As  As1       1.0  0.24900  0.06430  0.24700  1.0000
  As  As2       1.0  0.75100  0.56400  0.25300  1.0000
  As  As3       1.0  0.24900  0.43600  0.74700  1.0000
  As  As4       1.0  0.75100  0.93600  0.75300  1.0000
  Na  Na1       1.0  0.24200  0.41800  0.22500  1.0000
  Na  Na2       1.0  0.75800  0.91800  0.27500  1.0000
  Na  Na3       1.0  0.24200  0.08170  0.72500  1.0000
  Na  Na4       1.0  0.75800  0.58200  0.77500  1.0000
  O   O1        1.0  0.05370  0.17800  0.06680  1.0000
  O   O2        1.0  0.57200  0.69100  0.08150  1.0000
  O   O3        1.0  0.85900  0.45400  0.11500  1.0000
  O   O4        1.0  0.37500  0.95800  0.12200  1.0000
  O   O5        1.0  0.24900  0.68700  0.24700  1.0000
  O   O6        1.0  0.75100  0.18700  0.25300  1.0000
  O   O7        1.0  0.62500  0.45800  0.37800  1.0000
  O   O8        1.0  0.14100  0.95400  0.38500  1.0000
  O   O9        1.0  0.42800  0.19100  0.41800  1.0000
  O   O10       1.0  0.94600  0.67800  0.43300  1.0000
  O   O11       1.0  0.05370  0.32200  0.56700  1.0000
  O   O12       1.0  0.57200  0.80900  0.58200  1.0000
  O   O13       1.0  0.85900  0.04560  0.61500  1.0000
  O   O14       1.0  0.37500  0.54200  0.62200  1.0000
  O   O15       1.0  0.24900  0.81300  0.74700  1.0000
  O   O16       1.0  0.75100  0.31300  0.75300  1.0000
  O   O17       1.0  0.62500  0.04210  0.87800  1.0000
  O   O18       1.0  0.14100  0.54600  0.88500  1.0000
  O   O19       1.0  0.42800  0.30900  0.91800  1.0000
  O   O20       1.0  0.94600  0.82200  0.93300  1.0000
  V   V1        1.0  0.74400  0.24100  0.01620  1.0000
  V   V2        1.0  0.25600  0.74100  0.48400  1.0000
  V   V3        1.0  0.74400  0.25900  0.51600  1.0000
  V   V4        1.0  0.25600  0.75900  0.98400  1.0000
