data_image0
_chemical_formula_structural       H8N2O16V6
_chemical_formula_sum              "H8 N2 O16 V6"
_cell_length_a       4.96306
_cell_length_b       8.27778
_cell_length_c       7.64482
_cell_angle_alpha    90
_cell_angle_beta     95.3303
_cell_angle_gamma    90

_space_group_name_H-M_alt    "P 1"
_space_group_IT_number       1

loop_
  _space_group_symop_operation_xyz
  'x, y, z'

loop_
  _atom_site_type_symbol
  _atom_site_label
  _atom_site_symmetry_multiplicity
  _atom_site_fract_x
  _atom_site_fract_y
  _atom_site_fract_z
  _atom_site_occupancy
  H   H1        1.0  0.46800  0.14900  0.35600  1.0000
  H   H2        1.0  0.46800  0.35100  0.35600  1.0000
  H   H3        1.0  0.75600  0.25000  0.42800  1.0000
  H   H4        1.0  0.51500  0.75000  0.45400  1.0000
  H   H5        1.0  0.48500  0.25000  0.54600  1.0000
  H   H6        1.0  0.24400  0.75000  0.57200  1.0000
  H   H7        1.0  0.53200  0.64900  0.64400  1.0000
  H   H8        1.0  0.53200  0.85100  0.64400  1.0000
  N   N1        1.0  0.54700  0.25000  0.42100  1.0000
  N   N2        1.0  0.45300  0.75000  0.57900  1.0000
  O   O1        1.0  0.19100  0.58600  0.00669  1.0000
  O   O2        1.0  0.19100  0.91400  0.00669  1.0000
  O   O3        1.0  0.34600  0.25000  0.05350  1.0000
  O   O4        1.0  0.60300  0.59400  0.25000  1.0000
  O   O5        1.0  0.60300  0.90600  0.25000  1.0000
  O   O6        1.0  0.08300  0.75000  0.26900  1.0000
  O   O7        1.0  0.06580  0.07430  0.33400  1.0000
  O   O8        1.0  0.06580  0.42600  0.33400  1.0000
  O   O9        1.0  0.93400  0.57400  0.66600  1.0000
  O   O10       1.0  0.93400  0.92600  0.66600  1.0000
  O   O11       1.0  0.91700  0.25000  0.73100  1.0000
  O   O12       1.0  0.39700  0.09380  0.75000  1.0000
  O   O13       1.0  0.39700  0.40600  0.75000  1.0000
  O   O14       1.0  0.65400  0.75000  0.94700  1.0000
  O   O15       1.0  0.80900  0.08600  0.99300  1.0000
  O   O16       1.0  0.80900  0.41400  0.99300  1.0000
  V   V1        1.0  0.43100  0.75000  0.09100  1.0000
  V   V2        1.0  0.93500  0.55200  0.18800  1.0000
  V   V3        1.0  0.93500  0.94800  0.18800  1.0000
  V   V4        1.0  0.06480  0.05210  0.81200  1.0000
  V   V5        1.0  0.06480  0.44800  0.81200  1.0000
  V   V6        1.0  0.56900  0.25000  0.90900  1.0000
