data_image0
_chemical_formula_structural       Br22Nb8Rb2
_chemical_formula_sum              "Br22 Nb8 Rb2"
_cell_length_a       16.9976
_cell_length_b       7.33932
_cell_length_c       7.05771
_cell_angle_alpha    90
_cell_angle_beta     90
_cell_angle_gamma    90

_space_group_name_H-M_alt    "P 1"
_space_group_IT_number       1

loop_
  _space_group_symop_operation_xyz
  'x, y, z'

loop_
  _atom_site_type_symbol
  _atom_site_label
  _atom_site_symmetry_multiplicity
  _atom_site_fract_x
  _atom_site_fract_y
  _atom_site_fract_z
  _atom_site_occupancy
  Br  Br1       1.0  0.25000  0.00000  0.08670  1.0000
  Br  Br2       1.0  0.07930  0.25600  0.17900  1.0000
  Br  Br3       1.0  0.42100  0.25600  0.17900  1.0000
  Br  Br4       1.0  0.07930  0.74400  0.17900  1.0000
  Br  Br5       1.0  0.42100  0.74400  0.17900  1.0000
  Br  Br6       1.0  0.58600  0.00000  0.27800  1.0000
  Br  Br7       1.0  0.91400  0.00000  0.27800  1.0000
  Br  Br8       1.0  0.58500  0.50000  0.35900  1.0000
  Br  Br9       1.0  0.91500  0.50000  0.35900  1.0000
  Br  Br10      1.0  0.75000  0.23700  0.48200  1.0000
  Br  Br11      1.0  0.75000  0.76300  0.48200  1.0000
  Br  Br12      1.0  0.25000  0.23700  0.51800  1.0000
  Br  Br13      1.0  0.25000  0.76300  0.51800  1.0000
  Br  Br14      1.0  0.08470  0.50000  0.64100  1.0000
  Br  Br15      1.0  0.41500  0.50000  0.64100  1.0000
  Br  Br16      1.0  0.08580  0.00000  0.72200  1.0000
  Br  Br17      1.0  0.41400  0.00000  0.72200  1.0000
  Br  Br18      1.0  0.57900  0.25600  0.82100  1.0000
  Br  Br19      1.0  0.92100  0.25600  0.82100  1.0000
  Br  Br20      1.0  0.57900  0.74400  0.82100  1.0000
  Br  Br21      1.0  0.92100  0.74400  0.82100  1.0000
  Br  Br22      1.0  0.75000  0.00000  0.91300  1.0000
  Nb  Nb1       1.0  0.13900  0.00000  0.38100  1.0000
  Nb  Nb2       1.0  0.36100  0.00000  0.38100  1.0000
  Nb  Nb3       1.0  0.00000  0.20900  0.50000  1.0000
  Nb  Nb4       1.0  0.50000  0.20900  0.50000  1.0000
  Nb  Nb5       1.0  0.00000  0.79100  0.50000  1.0000
  Nb  Nb6       1.0  0.50000  0.79100  0.50000  1.0000
  Nb  Nb7       1.0  0.63900  0.00000  0.61900  1.0000
  Nb  Nb8       1.0  0.86100  0.00000  0.61900  1.0000
  Rb  Rb1       1.0  0.25000  0.50000  0.00197  1.0000
  Rb  Rb2       1.0  0.75000  0.50000  0.99800  1.0000
