data_image0
_chemical_formula_structural       In8K8S16
_chemical_formula_sum              "In8 K8 S16"
_cell_length_a       7.87993
_cell_length_b       7.87993
_cell_length_c       15.1946
_cell_angle_alpha    97.477
_cell_angle_beta     82.523
_cell_angle_gamma    90.0204

_space_group_name_H-M_alt    "P 1"
_space_group_IT_number       1

loop_
  _space_group_symop_operation_xyz
  'x, y, z'

loop_
  _atom_site_type_symbol
  _atom_site_label
  _atom_site_symmetry_multiplicity
  _atom_site_fract_x
  _atom_site_fract_y
  _atom_site_fract_z
  _atom_site_occupancy
  In  In1       1.0  0.58400  0.28900  0.15500  1.0000
  In  In2       1.0  0.08790  0.28900  0.15500  1.0000
  In  In3       1.0  0.28900  0.08790  0.34500  1.0000
  In  In4       1.0  0.28900  0.58400  0.34500  1.0000
  In  In5       1.0  0.71100  0.41600  0.65500  1.0000
  In  In6       1.0  0.71100  0.91200  0.65500  1.0000
  In  In7       1.0  0.91200  0.71100  0.84500  1.0000
  In  In8       1.0  0.41600  0.71100  0.84500  1.0000
  K   K1        1.0  0.84600  0.77800  0.11600  1.0000
  K   K2        1.0  0.34500  0.77900  0.11800  1.0000
  K   K3        1.0  0.77900  0.34500  0.38200  1.0000
  K   K4        1.0  0.77800  0.84600  0.38400  1.0000
  K   K5        1.0  0.22200  0.15400  0.61600  1.0000
  K   K6        1.0  0.22100  0.65500  0.61800  1.0000
  K   K7        1.0  0.65500  0.22100  0.88200  1.0000
  K   K8        1.0  0.15400  0.22200  0.88400  1.0000
  S   S1        1.0  0.36100  0.26400  0.05340  1.0000
  S   S2        1.0  0.86200  0.26500  0.05490  1.0000
  S   S3        1.0  0.57200  0.05210  0.24900  1.0000
  S   S4        1.0  0.05230  0.05230  0.25000  1.0000
  S   S5        1.0  0.57200  0.57200  0.25000  1.0000
  S   S6        1.0  0.05210  0.57200  0.25100  1.0000
  S   S7        1.0  0.26500  0.86200  0.44500  1.0000
  S   S8        1.0  0.26400  0.36100  0.44700  1.0000
  S   S9        1.0  0.73600  0.63900  0.55300  1.0000
  S   S10       1.0  0.73500  0.13800  0.55500  1.0000
  S   S11       1.0  0.94800  0.42800  0.74900  1.0000
  S   S12       1.0  0.42800  0.42800  0.75000  1.0000
  S   S13       1.0  0.94800  0.94800  0.75000  1.0000
  S   S14       1.0  0.42800  0.94800  0.75100  1.0000
  S   S15       1.0  0.13800  0.73500  0.94500  1.0000
  S   S16       1.0  0.63900  0.73600  0.94700  1.0000
