data_image0
_chemical_formula_structural       Rb12S16Sb4
_chemical_formula_sum              "Rb12 S16 Sb4"
_cell_length_a       9.68928
_cell_length_b       11.2491
_cell_length_c       9.96472
_cell_angle_alpha    90
_cell_angle_beta     90
_cell_angle_gamma    90

_space_group_name_H-M_alt    "P 1"
_space_group_IT_number       1

loop_
  _space_group_symop_operation_xyz
  'x, y, z'

loop_
  _atom_site_type_symbol
  _atom_site_label
  _atom_site_symmetry_multiplicity
  _atom_site_fract_x
  _atom_site_fract_y
  _atom_site_fract_z
  _atom_site_occupancy
  Rb  Rb1       1.0  0.13800  0.75000  0.07800  1.0000
  Rb  Rb2       1.0  0.55800  0.04440  0.20500  1.0000
  Rb  Rb3       1.0  0.55800  0.45600  0.20500  1.0000
  Rb  Rb4       1.0  0.05760  0.04440  0.29500  1.0000
  Rb  Rb5       1.0  0.05760  0.45600  0.29500  1.0000
  Rb  Rb6       1.0  0.63800  0.75000  0.42200  1.0000
  Rb  Rb7       1.0  0.36200  0.25000  0.57800  1.0000
  Rb  Rb8       1.0  0.94200  0.54400  0.70500  1.0000
  Rb  Rb9       1.0  0.94200  0.95600  0.70500  1.0000
  Rb  Rb10      1.0  0.44200  0.54400  0.79500  1.0000
  Rb  Rb11      1.0  0.44200  0.95600  0.79500  1.0000
  Rb  Rb12      1.0  0.86200  0.25000  0.92200  1.0000
  S   S1        1.0  0.84300  0.57600  0.04040  1.0000
  S   S2        1.0  0.84300  0.92400  0.04040  1.0000
  S   S3        1.0  0.50400  0.75000  0.09110  1.0000
  S   S4        1.0  0.81000  0.25000  0.24800  1.0000
  S   S5        1.0  0.31000  0.25000  0.25200  1.0000
  S   S6        1.0  0.00385  0.75000  0.40900  1.0000
  S   S7        1.0  0.34300  0.57600  0.46000  1.0000
  S   S8        1.0  0.34300  0.92400  0.46000  1.0000
  S   S9        1.0  0.65700  0.07550  0.54000  1.0000
  S   S10       1.0  0.65700  0.42400  0.54000  1.0000
  S   S11       1.0  0.99600  0.25000  0.59100  1.0000
  S   S12       1.0  0.69000  0.75000  0.74800  1.0000
  S   S13       1.0  0.19000  0.75000  0.75200  1.0000
  S   S14       1.0  0.49600  0.25000  0.90900  1.0000
  S   S15       1.0  0.15700  0.07550  0.96000  1.0000
  S   S16       1.0  0.15700  0.42400  0.96000  1.0000
  Sb  Sb1       1.0  0.27800  0.25000  0.01700  1.0000
  Sb  Sb2       1.0  0.77800  0.25000  0.48300  1.0000
  Sb  Sb3       1.0  0.22200  0.75000  0.51700  1.0000
  Sb  Sb4       1.0  0.72200  0.75000  0.98300  1.0000
