data_image0
_chemical_formula_structural       O20Tb11
_chemical_formula_sum              "O20 Tb11"
_cell_length_a       6.54878
_cell_length_b       10.1056
_cell_length_c       6.56862
_cell_angle_alpha    91.4048
_cell_angle_beta     99.4193
_cell_angle_gamma    95.7011

_space_group_name_H-M_alt    "P 1"
_space_group_IT_number       1

loop_
  _space_group_symop_operation_xyz
  'x, y, z'

loop_
  _atom_site_type_symbol
  _atom_site_label
  _atom_site_symmetry_multiplicity
  _atom_site_fract_x
  _atom_site_fract_y
  _atom_site_fract_z
  _atom_site_occupancy
  O   O1        1.0  0.90600  0.20700  0.01460  1.0000
  O   O2        1.0  0.68100  0.96200  0.07150  1.0000
  O   O3        1.0  0.41200  0.37900  0.09410  1.0000
  O   O4        1.0  0.94400  0.57400  0.16200  1.0000
  O   O5        1.0  0.47500  0.75400  0.24000  1.0000
  O   O6        1.0  0.77700  0.35100  0.32500  1.0000
  O   O7        1.0  0.06330  0.95500  0.33400  1.0000
  O   O8        1.0  0.56400  0.11400  0.40800  1.0000
  O   O9        1.0  0.31400  0.53700  0.41400  1.0000
  O   O10       1.0  0.15000  0.27700  0.49900  1.0000
  O   O11       1.0  0.85000  0.72300  0.50100  1.0000
  O   O12       1.0  0.68600  0.46300  0.58600  1.0000
  O   O13       1.0  0.43600  0.88600  0.59200  1.0000
  O   O14       1.0  0.93700  0.04510  0.66600  1.0000
  O   O15       1.0  0.22300  0.64900  0.67500  1.0000
  O   O16       1.0  0.52500  0.24600  0.76000  1.0000
  O   O17       1.0  0.05630  0.42600  0.83800  1.0000
  O   O18       1.0  0.58800  0.62100  0.90600  1.0000
  O   O19       1.0  0.31900  0.03780  0.92900  1.0000
  O   O20       1.0  0.09380  0.79300  0.98500  1.0000
  Tb  Tb1       1.0  0.00000  0.00000  0.00000  1.0000
  Tb  Tb2       1.0  0.58100  0.18600  0.09060  1.0000
  Tb  Tb3       1.0  0.09330  0.38400  0.19100  1.0000
  Tb  Tb4       1.0  0.63100  0.56200  0.26800  1.0000
  Tb  Tb5       1.0  0.16300  0.74200  0.35100  1.0000
  Tb  Tb6       1.0  0.71500  0.91600  0.41600  1.0000
  Tb  Tb7       1.0  0.28500  0.08370  0.58400  1.0000
  Tb  Tb8       1.0  0.83700  0.25800  0.64900  1.0000
  Tb  Tb9       1.0  0.36900  0.43800  0.73200  1.0000
  Tb  Tb10      1.0  0.90700  0.61600  0.80900  1.0000
  Tb  Tb11      1.0  0.41900  0.81400  0.90900  1.0000
