data_image0
_chemical_formula_structural       Cs12Sb4Se16
_chemical_formula_sum              "Cs12 Sb4 Se16"
_cell_length_a       10.3738
_cell_length_b       12.1427
_cell_length_c       10.8072
_cell_angle_alpha    90
_cell_angle_beta     90
_cell_angle_gamma    90

_space_group_name_H-M_alt    "P 1"
_space_group_IT_number       1

loop_
  _space_group_symop_operation_xyz
  'x, y, z'

loop_
  _atom_site_type_symbol
  _atom_site_label
  _atom_site_symmetry_multiplicity
  _atom_site_fract_x
  _atom_site_fract_y
  _atom_site_fract_z
  _atom_site_occupancy
  Cs  Cs1       1.0  0.64400  0.75000  0.08100  1.0000
  Cs  Cs2       1.0  0.05390  0.04340  0.19800  1.0000
  Cs  Cs3       1.0  0.05390  0.45700  0.19800  1.0000
  Cs  Cs4       1.0  0.55400  0.04340  0.30200  1.0000
  Cs  Cs5       1.0  0.55400  0.45700  0.30200  1.0000
  Cs  Cs6       1.0  0.14400  0.75000  0.41900  1.0000
  Cs  Cs7       1.0  0.85600  0.25000  0.58100  1.0000
  Cs  Cs8       1.0  0.44600  0.54300  0.69800  1.0000
  Cs  Cs9       1.0  0.44600  0.95700  0.69800  1.0000
  Cs  Cs10      1.0  0.94600  0.54300  0.80200  1.0000
  Cs  Cs11      1.0  0.94600  0.95700  0.80200  1.0000
  Cs  Cs12      1.0  0.35600  0.25000  0.91900  1.0000
  Sb  Sb1       1.0  0.77000  0.25000  0.02260  1.0000
  Sb  Sb2       1.0  0.27000  0.25000  0.47700  1.0000
  Sb  Sb3       1.0  0.73000  0.75000  0.52300  1.0000
  Sb  Sb4       1.0  0.23000  0.75000  0.97700  1.0000
  Se  Se1       1.0  0.35100  0.57700  0.03370  1.0000
  Se  Se2       1.0  0.35100  0.92300  0.03370  1.0000
  Se  Se3       1.0  0.01380  0.75000  0.08530  1.0000
  Se  Se4       1.0  0.30500  0.25000  0.24700  1.0000
  Se  Se5       1.0  0.80500  0.25000  0.25300  1.0000
  Se  Se6       1.0  0.51400  0.75000  0.41500  1.0000
  Se  Se7       1.0  0.85100  0.57700  0.46600  1.0000
  Se  Se8       1.0  0.85100  0.92300  0.46600  1.0000
  Se  Se9       1.0  0.14900  0.07710  0.53400  1.0000
  Se  Se10      1.0  0.14900  0.42300  0.53400  1.0000
  Se  Se11      1.0  0.48600  0.25000  0.58500  1.0000
  Se  Se12      1.0  0.19500  0.75000  0.74700  1.0000
  Se  Se13      1.0  0.69500  0.75000  0.75300  1.0000
  Se  Se14      1.0  0.98600  0.25000  0.91500  1.0000
  Se  Se15      1.0  0.64900  0.07710  0.96600  1.0000
  Se  Se16      1.0  0.64900  0.42300  0.96600  1.0000
