data_image0
_chemical_formula_structural       As4Li4O20Ti4
_chemical_formula_sum              "As4 Li4 O20 Ti4"
_cell_length_a       7.46322
_cell_length_b       6.60356
_cell_length_c       7.46389
_cell_angle_alpha    90
_cell_angle_beta     90
_cell_angle_gamma    90

_space_group_name_H-M_alt    "P 1"
_space_group_IT_number       1

loop_
  _space_group_symop_operation_xyz
  'x, y, z'

loop_
  _atom_site_type_symbol
  _atom_site_label
  _atom_site_symmetry_multiplicity
  _atom_site_fract_x
  _atom_site_fract_y
  _atom_site_fract_z
  _atom_site_occupancy
  As  As1       1.0  0.37400  0.25000  0.13200  1.0000
  As  As2       1.0  0.87400  0.25000  0.36800  1.0000
  As  As3       1.0  0.12600  0.75000  0.63200  1.0000
  As  As4       1.0  0.62600  0.75000  0.86800  1.0000
  Li  Li1       1.0  0.00000  0.00000  0.00000  1.0000
  Li  Li2       1.0  0.00000  0.50000  0.00000  1.0000
  Li  Li3       1.0  0.50000  0.00000  0.50000  1.0000
  Li  Li4       1.0  0.50000  0.50000  0.50000  1.0000
  O   O1        1.0  0.18400  0.25000  0.00254  1.0000
  O   O2        1.0  0.57000  0.25000  0.01460  1.0000
  O   O3        1.0  0.11000  0.75000  0.16900  1.0000
  O   O4        1.0  0.87300  0.04510  0.23000  1.0000
  O   O5        1.0  0.87300  0.45500  0.23000  1.0000
  O   O6        1.0  0.37300  0.04510  0.27000  1.0000
  O   O7        1.0  0.37300  0.45500  0.27000  1.0000
  O   O8        1.0  0.61000  0.75000  0.33100  1.0000
  O   O9        1.0  0.07030  0.25000  0.48500  1.0000
  O   O10       1.0  0.68400  0.25000  0.49700  1.0000
  O   O11       1.0  0.31600  0.75000  0.50300  1.0000
  O   O12       1.0  0.93000  0.75000  0.51500  1.0000
  O   O13       1.0  0.39000  0.25000  0.66900  1.0000
  O   O14       1.0  0.62700  0.54500  0.73000  1.0000
  O   O15       1.0  0.62700  0.95500  0.73000  1.0000
  O   O16       1.0  0.12700  0.54500  0.77000  1.0000
  O   O17       1.0  0.12700  0.95500  0.77000  1.0000
  O   O18       1.0  0.89000  0.25000  0.83100  1.0000
  O   O19       1.0  0.43000  0.75000  0.98500  1.0000
  O   O20       1.0  0.81600  0.75000  0.99700  1.0000
  Ti  Ti1       1.0  0.33900  0.75000  0.22500  1.0000
  Ti  Ti2       1.0  0.83900  0.75000  0.27500  1.0000
  Ti  Ti3       1.0  0.16100  0.25000  0.72500  1.0000
  Ti  Ti4       1.0  0.66100  0.25000  0.77500  1.0000
