data_image0
_chemical_formula_structural       K4Mo4O20Sb4
_chemical_formula_sum              "K4 Mo4 O20 Sb4"
_cell_length_a       9.15743
_cell_length_b       11.2492
_cell_length_c       5.60769
_cell_angle_alpha    90
_cell_angle_beta     107.872
_cell_angle_gamma    90

_space_group_name_H-M_alt    "P 1"
_space_group_IT_number       1

loop_
  _space_group_symop_operation_xyz
  'x, y, z'

loop_
  _atom_site_type_symbol
  _atom_site_label
  _atom_site_symmetry_multiplicity
  _atom_site_fract_x
  _atom_site_fract_y
  _atom_site_fract_z
  _atom_site_occupancy
  K   K1        1.0  0.11500  0.64500  0.04590  1.0000
  K   K2        1.0  0.88500  0.14500  0.45400  1.0000
  K   K3        1.0  0.11500  0.85500  0.54600  1.0000
  K   K4        1.0  0.88500  0.35500  0.95400  1.0000
  Mo  Mo1       1.0  0.21000  0.09140  0.06810  1.0000
  Mo  Mo2       1.0  0.79000  0.59100  0.43200  1.0000
  Mo  Mo3       1.0  0.21000  0.40900  0.56800  1.0000
  Mo  Mo4       1.0  0.79000  0.90900  0.93200  1.0000
  O   O1        1.0  0.64300  0.23100  0.04430  1.0000
  O   O2        1.0  0.04590  0.15100  0.12400  1.0000
  O   O3        1.0  0.37600  0.18600  0.19200  1.0000
  O   O4        1.0  0.26000  0.94900  0.22800  1.0000
  O   O5        1.0  0.17400  0.42800  0.24400  1.0000
  O   O6        1.0  0.82600  0.92800  0.25600  1.0000
  O   O7        1.0  0.74000  0.44900  0.27200  1.0000
  O   O8        1.0  0.62400  0.68600  0.30800  1.0000
  O   O9        1.0  0.95400  0.65100  0.37600  1.0000
  O   O10       1.0  0.35700  0.73100  0.45600  1.0000
  O   O11       1.0  0.64300  0.26900  0.54400  1.0000
  O   O12       1.0  0.04590  0.34900  0.62400  1.0000
  O   O13       1.0  0.37600  0.31400  0.69200  1.0000
  O   O14       1.0  0.26000  0.55100  0.72800  1.0000
  O   O15       1.0  0.17400  0.07230  0.74400  1.0000
  O   O16       1.0  0.82600  0.57200  0.75600  1.0000
  O   O17       1.0  0.74000  0.05110  0.77200  1.0000
  O   O18       1.0  0.62400  0.81400  0.80800  1.0000
  O   O19       1.0  0.95400  0.84900  0.87600  1.0000
  O   O20       1.0  0.35700  0.76900  0.95600  1.0000
  Sb  Sb1       1.0  0.53200  0.33900  0.21000  1.0000
  Sb  Sb2       1.0  0.46800  0.83900  0.29000  1.0000
  Sb  Sb3       1.0  0.53200  0.16100  0.71000  1.0000
  Sb  Sb4       1.0  0.46800  0.66100  0.79000  1.0000
