data_image0
_chemical_formula_structural       Gd4H4O20S4
_chemical_formula_sum              "Gd4 H4 O20 S4"
_cell_length_a       4.36435
_cell_length_b       12.1302
_cell_length_c       6.67269
_cell_angle_alpha    90
_cell_angle_beta     106.691
_cell_angle_gamma    90

_space_group_name_H-M_alt    "P 1"
_space_group_IT_number       1

loop_
  _space_group_symop_operation_xyz
  'x, y, z'

loop_
  _atom_site_type_symbol
  _atom_site_label
  _atom_site_symmetry_multiplicity
  _atom_site_fract_x
  _atom_site_fract_y
  _atom_site_fract_z
  _atom_site_occupancy
  Gd  Gd1       1.0  0.36600  0.06070  0.19800  1.0000
  Gd  Gd2       1.0  0.13400  0.56100  0.30200  1.0000
  Gd  Gd3       1.0  0.86600  0.43900  0.69800  1.0000
  Gd  Gd4       1.0  0.63400  0.93900  0.80200  1.0000
  H   H1        1.0  0.22700  0.84200  0.01550  1.0000
  H   H2        1.0  0.27300  0.34200  0.48400  1.0000
  H   H3        1.0  0.72700  0.65800  0.51600  1.0000
  H   H4        1.0  0.77300  0.15800  0.98400  1.0000
  O   O1        1.0  0.81300  0.08440  0.04630  1.0000
  O   O2        1.0  0.24800  0.43300  0.04890  1.0000
  O   O3        1.0  0.35600  0.66900  0.06830  1.0000
  O   O4        1.0  0.40400  0.24800  0.17600  1.0000
  O   O5        1.0  0.73100  0.90000  0.21100  1.0000
  O   O6        1.0  0.76900  0.40000  0.28900  1.0000
  O   O7        1.0  0.09620  0.74800  0.32400  1.0000
  O   O8        1.0  0.14400  0.16900  0.43200  1.0000
  O   O9        1.0  0.25200  0.93300  0.45100  1.0000
  O   O10       1.0  0.68700  0.58400  0.45400  1.0000
  O   O11       1.0  0.31300  0.41600  0.54600  1.0000
  O   O12       1.0  0.74800  0.06740  0.54900  1.0000
  O   O13       1.0  0.85600  0.83100  0.56800  1.0000
  O   O14       1.0  0.90400  0.25200  0.67600  1.0000
  O   O15       1.0  0.23100  0.60000  0.71100  1.0000
  O   O16       1.0  0.26900  0.10000  0.78900  1.0000
  O   O17       1.0  0.59600  0.75200  0.82400  1.0000
  O   O18       1.0  0.64400  0.33100  0.93200  1.0000
  O   O19       1.0  0.75200  0.56700  0.95100  1.0000
  O   O20       1.0  0.18700  0.91600  0.95400  1.0000
  S   S1        1.0  0.52200  0.35100  0.11000  1.0000
  S   S2        1.0  0.97800  0.85100  0.39000  1.0000
  S   S3        1.0  0.02170  0.14900  0.61000  1.0000
  S   S4        1.0  0.47800  0.64900  0.89000  1.0000
