data_image0
_chemical_formula_structural       Ge4O20Y8
_chemical_formula_sum              "Ge4 O20 Y8"
_cell_length_a       6.81735
_cell_length_b       8.18738
_cell_length_c       9.67336
_cell_angle_alpha    70.7413
_cell_angle_beta     110.633
_cell_angle_gamma    114.603

_space_group_name_H-M_alt    "P 1"
_space_group_IT_number       1

loop_
  _space_group_symop_operation_xyz
  'x, y, z'

loop_
  _atom_site_type_symbol
  _atom_site_label
  _atom_site_symmetry_multiplicity
  _atom_site_fract_x
  _atom_site_fract_y
  _atom_site_fract_z
  _atom_site_occupancy
  Ge  Ge1       1.0  0.40900  0.44000  0.19000  1.0000
  Ge  Ge2       1.0  0.77900  0.06040  0.31000  1.0000
  Ge  Ge3       1.0  0.22100  0.94000  0.69000  1.0000
  Ge  Ge4       1.0  0.59100  0.56000  0.81000  1.0000
  O   O1        1.0  0.22600  0.54500  0.04930  1.0000
  O   O2        1.0  0.08080  0.86300  0.10100  1.0000
  O   O3        1.0  0.58300  0.03160  0.13500  1.0000
  O   O4        1.0  0.35000  0.21800  0.17400  1.0000
  O   O5        1.0  0.68500  0.59000  0.18000  1.0000
  O   O6        1.0  0.91500  0.91000  0.32000  1.0000
  O   O7        1.0  0.95800  0.28200  0.32600  1.0000
  O   O8        1.0  0.41600  0.46800  0.36500  1.0000
  O   O9        1.0  0.11600  0.63700  0.39900  1.0000
  O   O10       1.0  0.63100  0.95500  0.45100  1.0000
  O   O11       1.0  0.36900  0.04530  0.54900  1.0000
  O   O12       1.0  0.88400  0.36300  0.60100  1.0000
  O   O13       1.0  0.58400  0.53200  0.63500  1.0000
  O   O14       1.0  0.04160  0.71800  0.67400  1.0000
  O   O15       1.0  0.08530  0.08980  0.68000  1.0000
  O   O16       1.0  0.31500  0.41000  0.82000  1.0000
  O   O17       1.0  0.65000  0.78200  0.82600  1.0000
  O   O18       1.0  0.41700  0.96800  0.86500  1.0000
  O   O19       1.0  0.91900  0.13700  0.89900  1.0000
  O   O20       1.0  0.77400  0.45500  0.95100  1.0000
  Y   Y1        1.0  0.72200  0.89300  0.03810  1.0000
  Y   Y2        1.0  0.99400  0.56200  0.16400  1.0000
  Y   Y3        1.0  0.26900  0.93800  0.33600  1.0000
  Y   Y4        1.0  0.79100  0.60700  0.46200  1.0000
  Y   Y5        1.0  0.20900  0.39300  0.53800  1.0000
  Y   Y6        1.0  0.73100  0.06150  0.66400  1.0000
  Y   Y7        1.0  0.00578  0.43800  0.83600  1.0000
  Y   Y8        1.0  0.27800  0.10700  0.96200  1.0000
