data_image0
_chemical_formula_structural       Hg8O20Te4
_chemical_formula_sum              "Hg8 O20 Te4"
_cell_length_a       7.37049
_cell_length_b       5.88448
_cell_length_c       10.033
_cell_angle_alpha    90
_cell_angle_beta     89.9998
_cell_angle_gamma    90

_space_group_name_H-M_alt    "P 1"
_space_group_IT_number       1

loop_
  _space_group_symop_operation_xyz
  'x, y, z'

loop_
  _atom_site_type_symbol
  _atom_site_label
  _atom_site_symmetry_multiplicity
  _atom_site_fract_x
  _atom_site_fract_y
  _atom_site_fract_z
  _atom_site_occupancy
  Hg  Hg1       1.0  0.26500  0.77400  0.17300  1.0000
  Hg  Hg2       1.0  0.76500  0.72600  0.17300  1.0000
  Hg  Hg3       1.0  0.01770  0.27000  0.33600  1.0000
  Hg  Hg4       1.0  0.51800  0.23000  0.33600  1.0000
  Hg  Hg5       1.0  0.23500  0.27400  0.67300  1.0000
  Hg  Hg6       1.0  0.73500  0.22600  0.67300  1.0000
  Hg  Hg7       1.0  0.48200  0.77000  0.83600  1.0000
  Hg  Hg8       1.0  0.98200  0.73000  0.83600  1.0000
  O   O1        1.0  0.61900  0.38300  0.00227  1.0000
  O   O2        1.0  0.11900  0.11700  0.00227  1.0000
  O   O3        1.0  0.45100  0.95900  0.05640  1.0000
  O   O4        1.0  0.95100  0.54100  0.05640  1.0000
  O   O5        1.0  0.33100  0.35500  0.18500  1.0000
  O   O6        1.0  0.83100  0.14500  0.18500  1.0000
  O   O7        1.0  0.58300  0.84000  0.31900  1.0000
  O   O8        1.0  0.08270  0.66000  0.31900  1.0000
  O   O9        1.0  0.71800  0.45300  0.43800  1.0000
  O   O10       1.0  0.21800  0.04740  0.43800  1.0000
  O   O11       1.0  0.38100  0.61700  0.50200  1.0000
  O   O12       1.0  0.88100  0.88300  0.50200  1.0000
  O   O13       1.0  0.04940  0.45900  0.55600  1.0000
  O   O14       1.0  0.54900  0.04140  0.55600  1.0000
  O   O15       1.0  0.66900  0.64500  0.68500  1.0000
  O   O16       1.0  0.16900  0.85500  0.68500  1.0000
  O   O17       1.0  0.41700  0.16000  0.81900  1.0000
  O   O18       1.0  0.91700  0.34000  0.81900  1.0000
  O   O19       1.0  0.28200  0.54700  0.93800  1.0000
  O   O20       1.0  0.78200  0.95300  0.93800  1.0000
  Te  Te1       1.0  0.86700  0.24000  0.00224  1.0000
  Te  Te2       1.0  0.36700  0.26000  0.00224  1.0000
  Te  Te3       1.0  0.63300  0.74000  0.50200  1.0000
  Te  Te4       1.0  0.13300  0.76000  0.50200  1.0000
