data_image0
_chemical_formula_structural       As5Mg
_chemical_formula_sum              "As5 Mg1"
_cell_length_a       3.01775
_cell_length_b       3.01775
_cell_length_c       15.2143
_cell_angle_alpha    90
_cell_angle_beta     90
_cell_angle_gamma    120

_space_group_name_H-M_alt    "P 1"
_space_group_IT_number       1

loop_
  _space_group_symop_operation_xyz
  'x, y, z'

loop_
  _atom_site_type_symbol
  _atom_site_label
  _atom_site_symmetry_multiplicity
  _atom_site_fract_x
  _atom_site_fract_y
  _atom_site_fract_z
  _atom_site_occupancy
  As  As1       1.0  0.66700  0.33300  0.18000  1.0000
  As  As2       1.0  0.00000  0.00000  0.33300  1.0000
  As  As3       1.0  0.66700  0.33300  0.48700  1.0000
  As  As4       1.0  0.00000  0.00000  0.68600  1.0000
  As  As5       1.0  0.00000  0.00000  0.98100  1.0000
  Mg  Mg1       1.0  0.66700  0.33300  0.83300  1.0000
