data_image0
_chemical_formula_structural       As2F22H2N2S2Xe2
_chemical_formula_sum              "As2 F22 H2 N2 S2 Xe2"
_cell_length_a       4.98705
_cell_length_b       6.59703
_cell_length_c       11.1083
_cell_angle_alpha    87.4561
_cell_angle_beta     82.3689
_cell_angle_gamma    86.0638

_space_group_name_H-M_alt    "P 1"
_space_group_IT_number       1

loop_
  _space_group_symop_operation_xyz
  'x, y, z'

loop_
  _atom_site_type_symbol
  _atom_site_label
  _atom_site_symmetry_multiplicity
  _atom_site_fract_x
  _atom_site_fract_y
  _atom_site_fract_z
  _atom_site_occupancy
  As  As1       1.0  0.88500  0.27200  0.17100  1.0000
  As  As2       1.0  0.11500  0.72800  0.82900  1.0000
  F   F1        1.0  0.10600  0.31800  0.03700  1.0000
  F   F2        1.0  0.60500  0.34700  0.08760  1.0000
  F   F3        1.0  0.85800  0.02360  0.12100  1.0000
  F   F4        1.0  0.88800  0.52200  0.21300  1.0000
  F   F5        1.0  0.15400  0.19100  0.25000  1.0000
  F   F6        1.0  0.64700  0.22200  0.29800  1.0000
  F   F7        1.0  0.00428  0.81500  0.35200  1.0000
  F   F8        1.0  0.29300  0.53400  0.35500  1.0000
  F   F9        1.0  0.26000  0.97200  0.47000  1.0000
  F   F10       1.0  0.90800  0.33000  0.47100  1.0000
  F   F11       1.0  0.53800  0.69000  0.47700  1.0000
  F   F12       1.0  0.46200  0.31000  0.52300  1.0000
  F   F13       1.0  0.09160  0.67000  0.52900  1.0000
  F   F14       1.0  0.74000  0.02790  0.53000  1.0000
  F   F15       1.0  0.70700  0.46600  0.64500  1.0000
  F   F16       1.0  0.99600  0.18500  0.64800  1.0000
  F   F17       1.0  0.35300  0.77800  0.70200  1.0000
  F   F18       1.0  0.84600  0.80900  0.75000  1.0000
  F   F19       1.0  0.11200  0.47800  0.78700  1.0000
  F   F20       1.0  0.14200  0.97600  0.87900  1.0000
  F   F21       1.0  0.39500  0.65300  0.91200  1.0000
  F   F22       1.0  0.89400  0.68200  0.96300  1.0000
  H   H1        1.0  0.47200  0.99800  0.29000  1.0000
  H   H2        1.0  0.52800  0.00161  0.71000  1.0000
  N   N1        1.0  0.49500  0.84100  0.29000  1.0000
  N   N2        1.0  0.50500  0.15900  0.71000  1.0000
  S   S1        1.0  0.27600  0.75200  0.41200  1.0000
  S   S2        1.0  0.72400  0.24800  0.58800  1.0000
  Xe  Xe1       1.0  0.38700  0.77500  0.12200  1.0000
  Xe  Xe2       1.0  0.61300  0.22500  0.87800  1.0000
