data_image0
_chemical_formula_structural       Cl6H18In2N6
_chemical_formula_sum              "Cl6 H18 In2 N6"
_cell_length_a       5.81786
_cell_length_b       6.74034
_cell_length_c       9.67198
_cell_angle_alpha    86.3034
_cell_angle_beta     86.642
_cell_angle_gamma    85.7856

_space_group_name_H-M_alt    "P 1"
_space_group_IT_number       1

loop_
  _space_group_symop_operation_xyz
  'x, y, z'

loop_
  _atom_site_type_symbol
  _atom_site_label
  _atom_site_symmetry_multiplicity
  _atom_site_fract_x
  _atom_site_fract_y
  _atom_site_fract_z
  _atom_site_occupancy
  Cl  Cl1       1.0  0.29200  0.71400  0.08790  1.0000
  Cl  Cl2       1.0  0.72800  0.00000  0.26800  1.0000
  Cl  Cl3       1.0  0.26100  0.31400  0.41600  1.0000
  Cl  Cl4       1.0  0.73900  0.68600  0.58400  1.0000
  Cl  Cl5       1.0  0.27200  0.00000  0.73200  1.0000
  Cl  Cl6       1.0  0.70800  0.28600  0.91200  1.0000
  H   H1        1.0  0.32300  0.16300  0.00609  1.0000
  H   H2        1.0  0.09550  0.10600  0.10900  1.0000
  H   H3        1.0  0.29100  0.24400  0.16500  1.0000
  H   H4        1.0  0.68200  0.40100  0.22200  1.0000
  H   H5        1.0  0.72800  0.64200  0.23100  1.0000
  H   H6        1.0  0.91900  0.46500  0.28900  1.0000
  H   H7        1.0  0.25300  0.81300  0.31000  1.0000
  H   H8        1.0  0.29100  0.65600  0.44500  1.0000
  H   H9        1.0  0.07990  0.83300  0.45200  1.0000
  H   H10       1.0  0.92000  0.16700  0.54800  1.0000
  H   H11       1.0  0.70900  0.34400  0.55500  1.0000
  H   H12       1.0  0.74700  0.18700  0.69000  1.0000
  H   H13       1.0  0.08130  0.53500  0.71100  1.0000
  H   H14       1.0  0.27200  0.35800  0.76900  1.0000
  H   H15       1.0  0.31800  0.59900  0.77800  1.0000
  H   H16       1.0  0.70900  0.75600  0.83500  1.0000
  H   H17       1.0  0.90400  0.89400  0.89100  1.0000
  H   H18       1.0  0.67700  0.83700  0.99400  1.0000
  In  In1       1.0  0.00000  0.50000  0.00000  1.0000
  In  In2       1.0  0.50000  0.00000  0.50000  1.0000
  N   N1        1.0  0.20300  0.21700  0.07930  1.0000
  N   N2        1.0  0.80500  0.50300  0.21300  1.0000
  N   N3        1.0  0.24900  0.80400  0.41700  1.0000
  N   N4        1.0  0.75100  0.19600  0.58300  1.0000
  N   N5        1.0  0.19500  0.49700  0.78700  1.0000
  N   N6        1.0  0.79700  0.78300  0.92100  1.0000
