data_image0
_chemical_formula_structural       Hg8O20Re4
_chemical_formula_sum              "Hg8 O20 Re4"
_cell_length_a       7.92148
_cell_length_b       8.94921
_cell_length_c       9.02687
_cell_angle_alpha    113.452
_cell_angle_beta     102.454
_cell_angle_gamma    90.9528

_space_group_name_H-M_alt    "P 1"
_space_group_IT_number       1

loop_
  _space_group_symop_operation_xyz
  'x, y, z'

loop_
  _atom_site_type_symbol
  _atom_site_label
  _atom_site_symmetry_multiplicity
  _atom_site_fract_x
  _atom_site_fract_y
  _atom_site_fract_z
  _atom_site_occupancy
  Hg  Hg1       1.0  0.00000  0.00000  0.00000  1.0000
  Hg  Hg2       1.0  0.30700  0.32400  0.19000  1.0000
  Hg  Hg3       1.0  0.65700  0.03180  0.19300  1.0000
  Hg  Hg4       1.0  0.37100  0.60800  0.43400  1.0000
  Hg  Hg5       1.0  0.50000  0.00000  0.50000  1.0000
  Hg  Hg6       1.0  0.62900  0.39200  0.56600  1.0000
  Hg  Hg7       1.0  0.34300  0.96800  0.80700  1.0000
  Hg  Hg8       1.0  0.69300  0.67600  0.81000  1.0000
  O   O1        1.0  0.25600  0.06670  0.02120  1.0000
  O   O2        1.0  0.71100  0.56100  0.05340  1.0000
  O   O3        1.0  0.94400  0.32000  0.05590  1.0000
  O   O4        1.0  0.60000  0.27400  0.09600  1.0000
  O   O5        1.0  0.35300  0.75500  0.21700  1.0000
  O   O6        1.0  0.01370  0.16600  0.32400  1.0000
  O   O7        1.0  0.07090  0.70200  0.36000  1.0000
  O   O8        1.0  0.52700  0.14800  0.37500  1.0000
  O   O9        1.0  0.78100  0.89000  0.40200  1.0000
  O   O10       1.0  0.76500  0.56700  0.40400  1.0000
  O   O11       1.0  0.23500  0.43300  0.59600  1.0000
  O   O12       1.0  0.21900  0.11000  0.59800  1.0000
  O   O13       1.0  0.47300  0.85200  0.62500  1.0000
  O   O14       1.0  0.92900  0.29800  0.64000  1.0000
  O   O15       1.0  0.98600  0.83400  0.67600  1.0000
  O   O16       1.0  0.64700  0.24500  0.78300  1.0000
  O   O17       1.0  0.40000  0.72600  0.90400  1.0000
  O   O18       1.0  0.05620  0.68000  0.94400  1.0000
  O   O19       1.0  0.28900  0.43900  0.94700  1.0000
  O   O20       1.0  0.74400  0.93300  0.97900  1.0000
  Re  Re1       1.0  0.27400  0.64800  0.00105  1.0000
  Re  Re2       1.0  0.90000  0.74700  0.45800  1.0000
  Re  Re3       1.0  0.10000  0.25300  0.54200  1.0000
  Re  Re4       1.0  0.72600  0.35200  0.99900  1.0000
