data_image0
_chemical_formula_structural       C12N18Pr2
_chemical_formula_sum              "C12 N18 Pr2"
_cell_length_a       6.91182
_cell_length_b       6.91182
_cell_length_c       9.97241
_cell_angle_alpha    90
_cell_angle_beta     90
_cell_angle_gamma    109.299

_space_group_name_H-M_alt    "P 1"
_space_group_IT_number       1

loop_
  _space_group_symop_operation_xyz
  'x, y, z'

loop_
  _atom_site_type_symbol
  _atom_site_label
  _atom_site_symmetry_multiplicity
  _atom_site_fract_x
  _atom_site_fract_y
  _atom_site_fract_z
  _atom_site_occupancy
  C   C1        1.0  0.71600  0.00034  0.04900  1.0000
  C   C2        1.0  0.00000  0.28400  0.04900  1.0000
  C   C3        1.0  0.44400  0.27400  0.25000  1.0000
  C   C4        1.0  0.72600  0.55600  0.25000  1.0000
  C   C5        1.0  0.71600  0.00034  0.45100  1.0000
  C   C6        1.0  0.00000  0.28400  0.45100  1.0000
  C   C7        1.0  0.00034  0.71600  0.54900  1.0000
  C   C8        1.0  0.28400  0.00000  0.54900  1.0000
  C   C9        1.0  0.27400  0.44400  0.75000  1.0000
  C   C10       1.0  0.55600  0.72600  0.75000  1.0000
  C   C11       1.0  0.00034  0.71600  0.95100  1.0000
  C   C12       1.0  0.28400  0.00000  0.95100  1.0000
  N   N1        1.0  0.15800  0.84200  0.01220  1.0000
  N   N2        1.0  0.14400  0.40800  0.09590  1.0000
  N   N3        1.0  0.59200  0.85600  0.09590  1.0000
  N   N4        1.0  0.36000  0.09620  0.25000  1.0000
  N   N5        1.0  0.52700  0.47300  0.25000  1.0000
  N   N6        1.0  0.90400  0.64000  0.25000  1.0000
  N   N7        1.0  0.14400  0.40800  0.40400  1.0000
  N   N8        1.0  0.59200  0.85600  0.40400  1.0000
  N   N9        1.0  0.15800  0.84200  0.48800  1.0000
  N   N10       1.0  0.84200  0.15800  0.51200  1.0000
  N   N11       1.0  0.40800  0.14400  0.59600  1.0000
  N   N12       1.0  0.85600  0.59200  0.59600  1.0000
  N   N13       1.0  0.09620  0.36000  0.75000  1.0000
  N   N14       1.0  0.47300  0.52700  0.75000  1.0000
  N   N15       1.0  0.64000  0.90400  0.75000  1.0000
  N   N16       1.0  0.40800  0.14400  0.90400  1.0000
  N   N17       1.0  0.85600  0.59200  0.90400  1.0000
  N   N18       1.0  0.84200  0.15800  0.98800  1.0000
  Pr  Pr1       1.0  0.28700  0.71300  0.25000  1.0000
  Pr  Pr2       1.0  0.71300  0.28700  0.75000  1.0000
