data_image0
_chemical_formula_structural       Ba2H18I2O10
_chemical_formula_sum              "Ba2 H18 I2 O10"
_cell_length_a       6.18172
_cell_length_b       7.93771
_cell_length_c       7.9704
_cell_angle_alpha    90.6613
_cell_angle_beta     107.153
_cell_angle_gamma    90.6145

_space_group_name_H-M_alt    "P 1"
_space_group_IT_number       1

loop_
  _space_group_symop_operation_xyz
  'x, y, z'

loop_
  _atom_site_type_symbol
  _atom_site_label
  _atom_site_symmetry_multiplicity
  _atom_site_fract_x
  _atom_site_fract_y
  _atom_site_fract_z
  _atom_site_occupancy
  Ba  Ba1       1.0  0.17500  0.03610  0.28200  1.0000
  Ba  Ba2       1.0  0.82500  0.96400  0.71800  1.0000
  H   H1        1.0  0.15400  0.71600  0.02680  1.0000
  H   H2        1.0  0.67300  0.81500  0.04020  1.0000
  H   H3        1.0  0.68400  0.18200  0.05980  1.0000
  H   H4        1.0  0.46300  0.31200  0.17300  1.0000
  H   H5        1.0  0.85700  0.70300  0.17900  1.0000
  H   H6        1.0  0.64400  0.82000  0.30700  1.0000
  H   H7        1.0  0.70100  0.17100  0.32100  1.0000
  H   H8        1.0  0.49100  0.71500  0.39700  1.0000
  H   H9        1.0  0.87500  0.28000  0.47100  1.0000
  H   H10       1.0  0.12500  0.72000  0.52900  1.0000
  H   H11       1.0  0.50900  0.28500  0.60300  1.0000
  H   H12       1.0  0.29900  0.82900  0.67900  1.0000
  H   H13       1.0  0.35600  0.18000  0.69300  1.0000
  H   H14       1.0  0.14300  0.29700  0.82100  1.0000
  H   H15       1.0  0.53700  0.68800  0.82700  1.0000
  H   H16       1.0  0.31600  0.81800  0.94000  1.0000
  H   H17       1.0  0.32700  0.18500  0.96000  1.0000
  H   H18       1.0  0.84600  0.28400  0.97300  1.0000
  I   I1        1.0  0.16900  0.49800  0.28400  1.0000
  I   I2        1.0  0.83100  0.50200  0.71600  1.0000
  O   O1        1.0  0.81700  0.17000  0.00762  1.0000
  O   O2        1.0  0.49100  0.19400  0.15000  1.0000
  O   O3        1.0  0.78500  0.81400  0.16600  1.0000
  O   O4        1.0  0.56100  0.82800  0.39900  1.0000
  O   O5        1.0  0.84200  0.16300  0.42800  1.0000
  O   O6        1.0  0.15800  0.83700  0.57200  1.0000
  O   O7        1.0  0.43900  0.17200  0.60100  1.0000
  O   O8        1.0  0.21500  0.18600  0.83400  1.0000
  O   O9        1.0  0.50900  0.80600  0.85000  1.0000
  O   O10       1.0  0.18300  0.83000  0.99200  1.0000
