data_image0
_chemical_formula_structural       Cd6O20Se6
_chemical_formula_sum              "Cd6 O20 Se6"
_cell_length_a       8.23215
_cell_length_b       5.33196
_cell_length_c       10.8257
_cell_angle_alpha    90
_cell_angle_beta     108.831
_cell_angle_gamma    90

_space_group_name_H-M_alt    "P 1"
_space_group_IT_number       1

loop_
  _space_group_symop_operation_xyz
  'x, y, z'

loop_
  _atom_site_type_symbol
  _atom_site_label
  _atom_site_symmetry_multiplicity
  _atom_site_fract_x
  _atom_site_fract_y
  _atom_site_fract_z
  _atom_site_occupancy
  Cd  Cd1       1.0  0.00531  0.24900  0.12900  1.0000
  Cd  Cd2       1.0  0.36900  0.72600  0.19700  1.0000
  Cd  Cd3       1.0  0.02610  0.76100  0.38500  1.0000
  Cd  Cd4       1.0  0.97400  0.26100  0.61500  1.0000
  Cd  Cd5       1.0  0.63100  0.22600  0.80300  1.0000
  Cd  Cd6       1.0  0.99500  0.74900  0.87100  1.0000
  O   O1        1.0  0.16400  0.47100  0.01920  1.0000
  O   O2        1.0  0.22500  0.00000  0.05560  1.0000
  O   O3        1.0  0.53800  0.42500  0.15800  1.0000
  O   O4        1.0  0.91500  0.62900  0.17700  1.0000
  O   O5        1.0  0.79100  0.08030  0.22600  1.0000
  O   O6        1.0  0.16800  0.06970  0.31600  1.0000
  O   O7        1.0  0.52600  0.04080  0.32500  1.0000
  O   O8        1.0  0.27500  0.54200  0.33900  1.0000
  O   O9        1.0  0.75400  0.42500  0.40800  1.0000
  O   O10       1.0  0.12300  0.39700  0.49100  1.0000
  O   O11       1.0  0.87700  0.89700  0.50900  1.0000
  O   O12       1.0  0.24600  0.92500  0.59200  1.0000
  O   O13       1.0  0.72500  0.04170  0.66100  1.0000
  O   O14       1.0  0.47400  0.54100  0.67500  1.0000
  O   O15       1.0  0.83200  0.57000  0.68400  1.0000
  O   O16       1.0  0.20900  0.58000  0.77400  1.0000
  O   O17       1.0  0.08490  0.12900  0.82300  1.0000
  O   O18       1.0  0.46200  0.92500  0.84200  1.0000
  O   O19       1.0  0.77500  0.50000  0.94400  1.0000
  O   O20       1.0  0.83600  0.97100  0.98100  1.0000
  Se  Se1       1.0  0.74200  0.72900  0.04700  1.0000
  Se  Se2       1.0  0.65600  0.24100  0.28300  1.0000
  Se  Se3       1.0  0.28500  0.28200  0.43500  1.0000
  Se  Se4       1.0  0.71500  0.78200  0.56500  1.0000
  Se  Se5       1.0  0.34400  0.74100  0.71700  1.0000
  Se  Se6       1.0  0.25800  0.22900  0.95300  1.0000
