data_image0
_chemical_formula_structural       C12N18Sm2
_chemical_formula_sum              "C12 N18 Sm2"
_cell_length_a       6.83786
_cell_length_b       6.83786
_cell_length_c       9.92898
_cell_angle_alpha    90
_cell_angle_beta     90
_cell_angle_gamma    110.005

_space_group_name_H-M_alt    "P 1"
_space_group_IT_number       1

loop_
  _space_group_symop_operation_xyz
  'x, y, z'

loop_
  _atom_site_type_symbol
  _atom_site_label
  _atom_site_symmetry_multiplicity
  _atom_site_fract_x
  _atom_site_fract_y
  _atom_site_fract_z
  _atom_site_occupancy
  C   C1        1.0  0.00260  0.28700  0.04920  1.0000
  C   C2        1.0  0.71300  0.99700  0.04920  1.0000
  C   C3        1.0  0.44200  0.27000  0.25000  1.0000
  C   C4        1.0  0.73000  0.55800  0.25000  1.0000
  C   C5        1.0  0.00260  0.28700  0.45100  1.0000
  C   C6        1.0  0.71300  0.99700  0.45100  1.0000
  C   C7        1.0  0.28700  0.00260  0.54900  1.0000
  C   C8        1.0  0.99700  0.71300  0.54900  1.0000
  C   C9        1.0  0.27000  0.44200  0.75000  1.0000
  C   C10       1.0  0.55800  0.73000  0.75000  1.0000
  C   C11       1.0  0.28700  0.00260  0.95100  1.0000
  C   C12       1.0  0.99700  0.71300  0.95100  1.0000
  N   N1        1.0  0.15700  0.84300  0.01200  1.0000
  N   N2        1.0  0.14900  0.41600  0.09540  1.0000
  N   N3        1.0  0.58400  0.85100  0.09540  1.0000
  N   N4        1.0  0.35100  0.08940  0.25000  1.0000
  N   N5        1.0  0.52900  0.47100  0.25000  1.0000
  N   N6        1.0  0.91100  0.64900  0.25000  1.0000
  N   N7        1.0  0.14900  0.41600  0.40500  1.0000
  N   N8        1.0  0.58400  0.85100  0.40500  1.0000
  N   N9        1.0  0.15700  0.84300  0.48800  1.0000
  N   N10       1.0  0.84300  0.15700  0.51200  1.0000
  N   N11       1.0  0.41600  0.14900  0.59500  1.0000
  N   N12       1.0  0.85100  0.58400  0.59500  1.0000
  N   N13       1.0  0.08940  0.35100  0.75000  1.0000
  N   N14       1.0  0.47100  0.52900  0.75000  1.0000
  N   N15       1.0  0.64900  0.91100  0.75000  1.0000
  N   N16       1.0  0.41600  0.14900  0.90500  1.0000
  N   N17       1.0  0.85100  0.58400  0.90500  1.0000
  N   N18       1.0  0.84300  0.15700  0.98800  1.0000
  Sm  Sm1       1.0  0.28700  0.71300  0.25000  1.0000
  Sm  Sm2       1.0  0.71300  0.28700  0.75000  1.0000
