data_image0
_chemical_formula_structural       Br4La12Te16
_chemical_formula_sum              "Br4 La12 Te16"
_cell_length_a       16.4699
_cell_length_b       4.40023
_cell_length_c       14.3796
_cell_angle_alpha    90
_cell_angle_beta     90
_cell_angle_gamma    90

_space_group_name_H-M_alt    "P 1"
_space_group_IT_number       1

loop_
  _space_group_symop_operation_xyz
  'x, y, z'

loop_
  _atom_site_type_symbol
  _atom_site_label
  _atom_site_symmetry_multiplicity
  _atom_site_fract_x
  _atom_site_fract_y
  _atom_site_fract_z
  _atom_site_occupancy
  Br  Br1       1.0  0.93200  0.75000  0.20300  1.0000
  Br  Br2       1.0  0.43200  0.75000  0.29700  1.0000
  Br  Br3       1.0  0.56800  0.25000  0.70300  1.0000
  Br  Br4       1.0  0.06820  0.25000  0.79700  1.0000
  La  La1       1.0  0.86700  0.25000  0.07380  1.0000
  La  La2       1.0  0.37400  0.75000  0.09030  1.0000
  La  La3       1.0  0.11900  0.75000  0.25000  1.0000
  La  La4       1.0  0.61900  0.75000  0.25000  1.0000
  La  La5       1.0  0.87400  0.75000  0.41000  1.0000
  La  La6       1.0  0.36700  0.25000  0.42600  1.0000
  La  La7       1.0  0.63300  0.75000  0.57400  1.0000
  La  La8       1.0  0.12600  0.25000  0.59000  1.0000
  La  La9       1.0  0.38100  0.25000  0.75000  1.0000
  La  La10      1.0  0.88100  0.25000  0.75000  1.0000
  La  La11      1.0  0.62600  0.25000  0.91000  1.0000
  La  La12      1.0  0.13300  0.75000  0.92600  1.0000
  Te  Te1       1.0  0.71700  0.75000  0.04800  1.0000
  Te  Te2       1.0  0.07230  0.25000  0.08090  1.0000
  Te  Te3       1.0  0.52400  0.25000  0.11200  1.0000
  Te  Te4       1.0  0.26700  0.25000  0.22300  1.0000
  Te  Te5       1.0  0.76700  0.25000  0.27700  1.0000
  Te  Te6       1.0  0.02410  0.25000  0.38800  1.0000
  Te  Te7       1.0  0.57200  0.25000  0.41900  1.0000
  Te  Te8       1.0  0.21700  0.75000  0.45200  1.0000
  Te  Te9       1.0  0.78300  0.25000  0.54800  1.0000
  Te  Te10      1.0  0.42800  0.75000  0.58100  1.0000
  Te  Te11      1.0  0.97600  0.75000  0.61200  1.0000
  Te  Te12      1.0  0.23300  0.75000  0.72300  1.0000
  Te  Te13      1.0  0.73300  0.75000  0.77700  1.0000
  Te  Te14      1.0  0.47600  0.75000  0.88800  1.0000
  Te  Te15      1.0  0.92800  0.75000  0.91900  1.0000
  Te  Te16      1.0  0.28300  0.25000  0.95200  1.0000
