data_image0
_chemical_formula_structural       H2Mn2O20P6Rb2
_chemical_formula_sum              "H2 Mn2 O20 P6 Rb2"
_cell_length_a       7.31588
_cell_length_b       7.31588
_cell_length_c       9.03362
_cell_angle_alpha    105.116
_cell_angle_beta     105.116
_cell_angle_gamma    69.4641

_space_group_name_H-M_alt    "P 1"
_space_group_IT_number       1

loop_
  _space_group_symop_operation_xyz
  'x, y, z'

loop_
  _atom_site_type_symbol
  _atom_site_label
  _atom_site_symmetry_multiplicity
  _atom_site_fract_x
  _atom_site_fract_y
  _atom_site_fract_z
  _atom_site_occupancy
  H   H1        1.0  0.50000  0.00000  0.00000  1.0000
  H   H2        1.0  0.00000  0.50000  0.50000  1.0000
  Mn  Mn1       1.0  0.00000  0.50000  0.00000  1.0000
  Mn  Mn2       1.0  0.50000  0.00000  0.50000  1.0000
  O   O1        1.0  0.77400  0.64600  0.10200  1.0000
  O   O2        1.0  0.15800  0.71400  0.10400  1.0000
  O   O3        1.0  0.62300  0.02440  0.11300  1.0000
  O   O4        1.0  0.15300  0.38100  0.17700  1.0000
  O   O5        1.0  0.10100  0.07140  0.19700  1.0000
  O   O6        1.0  0.92900  0.89900  0.30300  1.0000
  O   O7        1.0  0.61900  0.84700  0.32300  1.0000
  O   O8        1.0  0.97600  0.37700  0.38700  1.0000
  O   O9        1.0  0.28600  0.84200  0.39600  1.0000
  O   O10       1.0  0.35400  0.22600  0.39800  1.0000
  O   O11       1.0  0.64600  0.77400  0.60200  1.0000
  O   O12       1.0  0.71400  0.15800  0.60400  1.0000
  O   O13       1.0  0.02440  0.62300  0.61300  1.0000
  O   O14       1.0  0.38100  0.15300  0.67700  1.0000
  O   O15       1.0  0.07140  0.10100  0.69700  1.0000
  O   O16       1.0  0.89900  0.92900  0.80300  1.0000
  O   O17       1.0  0.84700  0.61900  0.82300  1.0000
  O   O18       1.0  0.37700  0.97600  0.88700  1.0000
  O   O19       1.0  0.84200  0.28600  0.89600  1.0000
  O   O20       1.0  0.22600  0.35400  0.89800  1.0000
  P   P1        1.0  0.72700  0.85500  0.20400  1.0000
  P   P2        1.0  0.13200  0.86800  0.25000  1.0000
  P   P3        1.0  0.14500  0.27300  0.29600  1.0000
  P   P4        1.0  0.85500  0.72700  0.70400  1.0000
  P   P5        1.0  0.86800  0.13200  0.75000  1.0000
  P   P6        1.0  0.27300  0.14500  0.79600  1.0000
  Rb  Rb1       1.0  0.56000  0.44000  0.25000  1.0000
  Rb  Rb2       1.0  0.44000  0.56000  0.75000  1.0000
