data_image0
_chemical_formula_structural       Hg6O20Se6
_chemical_formula_sum              "Hg6 O20 Se6"
_cell_length_a       8.33334
_cell_length_b       5.3535
_cell_length_c       11.1313
_cell_angle_alpha    90
_cell_angle_beta     108.569
_cell_angle_gamma    90

_space_group_name_H-M_alt    "P 1"
_space_group_IT_number       1

loop_
  _space_group_symop_operation_xyz
  'x, y, z'

loop_
  _atom_site_type_symbol
  _atom_site_label
  _atom_site_symmetry_multiplicity
  _atom_site_fract_x
  _atom_site_fract_y
  _atom_site_fract_z
  _atom_site_occupancy
  Hg  Hg1       1.0  0.01370  0.24900  0.13300  1.0000
  Hg  Hg2       1.0  0.38400  0.73300  0.19800  1.0000
  Hg  Hg3       1.0  0.01080  0.75900  0.37900  1.0000
  Hg  Hg4       1.0  0.98900  0.25900  0.62100  1.0000
  Hg  Hg5       1.0  0.61600  0.23300  0.80200  1.0000
  Hg  Hg6       1.0  0.98600  0.74900  0.86700  1.0000
  O   O1        1.0  0.17000  0.48000  0.01380  1.0000
  O   O2        1.0  0.23000  0.01620  0.06510  1.0000
  O   O3        1.0  0.53800  0.41100  0.15700  1.0000
  O   O4        1.0  0.90600  0.62600  0.16800  1.0000
  O   O5        1.0  0.78100  0.06580  0.23200  1.0000
  O   O6        1.0  0.16900  0.06350  0.32000  1.0000
  O   O7        1.0  0.27000  0.53300  0.33200  1.0000
  O   O8        1.0  0.52300  0.05810  0.33500  1.0000
  O   O9        1.0  0.75100  0.44000  0.40000  1.0000
  O   O10       1.0  0.12500  0.40200  0.48800  1.0000
  O   O11       1.0  0.87500  0.90200  0.51200  1.0000
  O   O12       1.0  0.24900  0.94000  0.60000  1.0000
  O   O13       1.0  0.47700  0.55800  0.66500  1.0000
  O   O14       1.0  0.73000  0.03340  0.66800  1.0000
  O   O15       1.0  0.83100  0.56400  0.68000  1.0000
  O   O16       1.0  0.21900  0.56600  0.76800  1.0000
  O   O17       1.0  0.09370  0.12600  0.83200  1.0000
  O   O18       1.0  0.46200  0.91100  0.84300  1.0000
  O   O19       1.0  0.77000  0.51600  0.93500  1.0000
  O   O20       1.0  0.83000  0.98000  0.98600  1.0000
  Se  Se1       1.0  0.73700  0.73100  0.04210  1.0000
  Se  Se2       1.0  0.65400  0.24200  0.28500  1.0000
  Se  Se3       1.0  0.28400  0.28300  0.43200  1.0000
  Se  Se4       1.0  0.71600  0.78300  0.56800  1.0000
  Se  Se5       1.0  0.34600  0.74200  0.71500  1.0000
  Se  Se6       1.0  0.26300  0.23100  0.95800  1.0000
