data_image0
_chemical_formula_structural       Br6La12Si14
_chemical_formula_sum              "Br6 La12 Si14"
_cell_length_a       16.9197
_cell_length_b       4.14093
_cell_length_c       11.9112
_cell_angle_alpha    90
_cell_angle_beta     90
_cell_angle_gamma    90

_space_group_name_H-M_alt    "P 1"
_space_group_IT_number       1

loop_
  _space_group_symop_operation_xyz
  'x, y, z'

loop_
  _atom_site_type_symbol
  _atom_site_label
  _atom_site_symmetry_multiplicity
  _atom_site_fract_x
  _atom_site_fract_y
  _atom_site_fract_z
  _atom_site_occupancy
  Br  Br1       1.0  0.05760  0.25000  0.10800  1.0000
  Br  Br2       1.0  0.44200  0.25000  0.10800  1.0000
  Br  Br3       1.0  0.25000  0.75000  0.13800  1.0000
  Br  Br4       1.0  0.75000  0.25000  0.86200  1.0000
  Br  Br5       1.0  0.55800  0.75000  0.89200  1.0000
  Br  Br6       1.0  0.94200  0.75000  0.89200  1.0000
  La  La1       1.0  0.63000  0.25000  0.06520  1.0000
  La  La2       1.0  0.87000  0.25000  0.06520  1.0000
  La  La3       1.0  0.25000  0.25000  0.34300  1.0000
  La  La4       1.0  0.50600  0.25000  0.35700  1.0000
  La  La5       1.0  0.99400  0.25000  0.35700  1.0000
  La  La6       1.0  0.75000  0.25000  0.35800  1.0000
  La  La7       1.0  0.25000  0.75000  0.64200  1.0000
  La  La8       1.0  0.00576  0.75000  0.64300  1.0000
  La  La9       1.0  0.49400  0.75000  0.64300  1.0000
  La  La10      1.0  0.75000  0.75000  0.65700  1.0000
  La  La11      1.0  0.13000  0.75000  0.93500  1.0000
  La  La12      1.0  0.37000  0.75000  0.93500  1.0000
  Si  Si1       1.0  0.75000  0.75000  0.15300  1.0000
  Si  Si2       1.0  0.62600  0.75000  0.25500  1.0000
  Si  Si3       1.0  0.87400  0.75000  0.25500  1.0000
  Si  Si4       1.0  0.12700  0.75000  0.43400  1.0000
  Si  Si5       1.0  0.37300  0.75000  0.43400  1.0000
  Si  Si6       1.0  0.62600  0.75000  0.45800  1.0000
  Si  Si7       1.0  0.87400  0.75000  0.45800  1.0000
  Si  Si8       1.0  0.12600  0.25000  0.54200  1.0000
  Si  Si9       1.0  0.37400  0.25000  0.54200  1.0000
  Si  Si10      1.0  0.62700  0.25000  0.56600  1.0000
  Si  Si11      1.0  0.87300  0.25000  0.56600  1.0000
  Si  Si12      1.0  0.12600  0.25000  0.74500  1.0000
  Si  Si13      1.0  0.37400  0.25000  0.74500  1.0000
  Si  Si14      1.0  0.25000  0.25000  0.84700  1.0000
