data_image0
_chemical_formula_structural       Ba8Br20Cs4
_chemical_formula_sum              "Ba8 Br20 Cs4"
_cell_length_a       10.0763
_cell_length_b       8.73772
_cell_length_c       13.9251
_cell_angle_alpha    90
_cell_angle_beta     90.1905
_cell_angle_gamma    90

_space_group_name_H-M_alt    "P 1"
_space_group_IT_number       1

loop_
  _space_group_symop_operation_xyz
  'x, y, z'

loop_
  _atom_site_type_symbol
  _atom_site_label
  _atom_site_symmetry_multiplicity
  _atom_site_fract_x
  _atom_site_fract_y
  _atom_site_fract_z
  _atom_site_occupancy
  Ba  Ba1       1.0  0.74900  0.43000  0.00835  1.0000
  Ba  Ba2       1.0  0.50100  0.97000  0.17600  1.0000
  Ba  Ba3       1.0  0.49900  0.47000  0.32400  1.0000
  Ba  Ba4       1.0  0.25100  0.93000  0.49200  1.0000
  Ba  Ba5       1.0  0.74900  0.07010  0.50800  1.0000
  Ba  Ba6       1.0  0.50100  0.53000  0.67600  1.0000
  Ba  Ba7       1.0  0.49900  0.03000  0.82400  1.0000
  Ba  Ba8       1.0  0.25100  0.57000  0.99200  1.0000
  Br  Br1       1.0  0.71500  0.04660  0.00191  1.0000
  Br  Br2       1.0  0.03880  0.32200  0.07830  1.0000
  Br  Br3       1.0  0.46000  0.33600  0.09700  1.0000
  Br  Br4       1.0  0.71300  0.66400  0.18800  1.0000
  Br  Br5       1.0  0.27400  0.69100  0.22000  1.0000
  Br  Br6       1.0  0.72600  0.19100  0.28000  1.0000
  Br  Br7       1.0  0.28700  0.16400  0.31200  1.0000
  Br  Br8       1.0  0.54000  0.83600  0.40300  1.0000
  Br  Br9       1.0  0.96100  0.82200  0.42200  1.0000
  Br  Br10      1.0  0.28500  0.54700  0.49800  1.0000
  Br  Br11      1.0  0.71500  0.45300  0.50200  1.0000
  Br  Br12      1.0  0.03880  0.17800  0.57800  1.0000
  Br  Br13      1.0  0.46000  0.16400  0.59700  1.0000
  Br  Br14      1.0  0.71300  0.83600  0.68800  1.0000
  Br  Br15      1.0  0.27400  0.80900  0.72000  1.0000
  Br  Br16      1.0  0.72600  0.30900  0.78000  1.0000
  Br  Br17      1.0  0.28700  0.33600  0.81200  1.0000
  Br  Br18      1.0  0.54000  0.66400  0.90300  1.0000
  Br  Br19      1.0  0.96100  0.67800  0.92200  1.0000
  Br  Br20      1.0  0.28500  0.95300  0.99800  1.0000
  Cs  Cs1       1.0  0.99000  0.94200  0.16600  1.0000
  Cs  Cs2       1.0  0.00979  0.44200  0.33400  1.0000
  Cs  Cs3       1.0  0.99000  0.55800  0.66600  1.0000
  Cs  Cs4       1.0  0.00979  0.05800  0.83400  1.0000
