data_image0
_chemical_formula_structural       As4Rb12Se16
_chemical_formula_sum              "As4 Rb12 Se16"
_cell_length_a       9.79519
_cell_length_b       11.4498
_cell_length_c       10.2713
_cell_angle_alpha    90
_cell_angle_beta     90
_cell_angle_gamma    90

_space_group_name_H-M_alt    "P 1"
_space_group_IT_number       1

loop_
  _space_group_symop_operation_xyz
  'x, y, z'

loop_
  _atom_site_type_symbol
  _atom_site_label
  _atom_site_symmetry_multiplicity
  _atom_site_fract_x
  _atom_site_fract_y
  _atom_site_fract_z
  _atom_site_occupancy
  As  As1       1.0  0.23200  0.75000  0.02400  1.0000
  As  As2       1.0  0.73200  0.75000  0.47600  1.0000
  As  As3       1.0  0.26800  0.25000  0.52400  1.0000
  As  As4       1.0  0.76800  0.25000  0.97600  1.0000
  Rb  Rb1       1.0  0.35300  0.25000  0.08230  1.0000
  Rb  Rb2       1.0  0.94300  0.54400  0.19400  1.0000
  Rb  Rb3       1.0  0.94300  0.95600  0.19400  1.0000
  Rb  Rb4       1.0  0.44300  0.54400  0.30600  1.0000
  Rb  Rb5       1.0  0.44300  0.95600  0.30600  1.0000
  Rb  Rb6       1.0  0.85300  0.25000  0.41800  1.0000
  Rb  Rb7       1.0  0.14700  0.75000  0.58200  1.0000
  Rb  Rb8       1.0  0.55700  0.04430  0.69400  1.0000
  Rb  Rb9       1.0  0.55700  0.45600  0.69400  1.0000
  Rb  Rb10      1.0  0.05680  0.04430  0.80600  1.0000
  Rb  Rb11      1.0  0.05680  0.45600  0.80600  1.0000
  Rb  Rb12      1.0  0.64700  0.75000  0.91800  1.0000
  Se  Se1       1.0  0.64600  0.07800  0.02910  1.0000
  Se  Se2       1.0  0.64600  0.42200  0.02910  1.0000
  Se  Se3       1.0  0.98100  0.25000  0.08740  1.0000
  Se  Se4       1.0  0.19100  0.75000  0.25000  1.0000
  Se  Se5       1.0  0.69100  0.75000  0.25000  1.0000
  Se  Se6       1.0  0.48100  0.25000  0.41300  1.0000
  Se  Se7       1.0  0.14600  0.07800  0.47100  1.0000
  Se  Se8       1.0  0.14600  0.42200  0.47100  1.0000
  Se  Se9       1.0  0.85400  0.57800  0.52900  1.0000
  Se  Se10      1.0  0.85400  0.92200  0.52900  1.0000
  Se  Se11      1.0  0.51900  0.75000  0.58700  1.0000
  Se  Se12      1.0  0.30900  0.25000  0.75000  1.0000
  Se  Se13      1.0  0.80900  0.25000  0.75000  1.0000
  Se  Se14      1.0  0.01930  0.75000  0.91300  1.0000
  Se  Se15      1.0  0.35400  0.57800  0.97100  1.0000
  Se  Se16      1.0  0.35400  0.92200  0.97100  1.0000
