data_image0
_chemical_formula_structural       C4Cl12H12Te4
_chemical_formula_sum              "C4 Cl12 H12 Te4"
_cell_length_a       10.5639
_cell_length_b       6.67022
_cell_length_c       10.6902
_cell_angle_alpha    90
_cell_angle_beta     118.685
_cell_angle_gamma    90

_space_group_name_H-M_alt    "P 1"
_space_group_IT_number       1

loop_
  _space_group_symop_operation_xyz
  'x, y, z'

loop_
  _atom_site_type_symbol
  _atom_site_label
  _atom_site_symmetry_multiplicity
  _atom_site_fract_x
  _atom_site_fract_y
  _atom_site_fract_z
  _atom_site_occupancy
  C   C1        1.0  0.80800  0.44100  0.04210  1.0000
  C   C2        1.0  0.69200  0.94100  0.45800  1.0000
  C   C3        1.0  0.30800  0.05940  0.54200  1.0000
  C   C4        1.0  0.19200  0.55900  0.95800  1.0000
  Cl  Cl1       1.0  0.97300  0.88300  0.13400  1.0000
  Cl  Cl2       1.0  0.63900  0.76300  0.14100  1.0000
  Cl  Cl3       1.0  0.35800  0.95000  0.20500  1.0000
  Cl  Cl4       1.0  0.14200  0.45000  0.29500  1.0000
  Cl  Cl5       1.0  0.86100  0.26300  0.35900  1.0000
  Cl  Cl6       1.0  0.52700  0.38300  0.36600  1.0000
  Cl  Cl7       1.0  0.47300  0.61700  0.63400  1.0000
  Cl  Cl8       1.0  0.13900  0.73700  0.64100  1.0000
  Cl  Cl9       1.0  0.85800  0.55000  0.70500  1.0000
  Cl  Cl10      1.0  0.64200  0.05030  0.79500  1.0000
  Cl  Cl11      1.0  0.36100  0.23700  0.85900  1.0000
  Cl  Cl12      1.0  0.02730  0.11700  0.86600  1.0000
  H   H1        1.0  0.70000  0.40100  0.02490  1.0000
  H   H2        1.0  0.19700  0.46000  0.04150  1.0000
  H   H3        1.0  0.87400  0.30700  0.05600  1.0000
  H   H4        1.0  0.62600  0.80700  0.44400  1.0000
  H   H5        1.0  0.30300  0.96000  0.45800  1.0000
  H   H6        1.0  0.80000  0.90100  0.47500  1.0000
  H   H7        1.0  0.20000  0.09860  0.52500  1.0000
  H   H8        1.0  0.69700  0.04000  0.54200  1.0000
  H   H9        1.0  0.37400  0.19300  0.55600  1.0000
  H   H10       1.0  0.12600  0.69300  0.94400  1.0000
  H   H11       1.0  0.80300  0.54000  0.95800  1.0000
  H   H12       1.0  0.30000  0.59900  0.97500  1.0000
  Te  Te1       1.0  0.91500  0.60300  0.23800  1.0000
  Te  Te2       1.0  0.58500  0.10300  0.26200  1.0000
  Te  Te3       1.0  0.41500  0.89700  0.73800  1.0000
  Te  Te4       1.0  0.08480  0.39700  0.76200  1.0000
