data_image0
_chemical_formula_structural       Ge12Rh8Se12
_chemical_formula_sum              "Ge12 Rh8 Se12"
_cell_length_a       8.65422
_cell_length_b       8.65422
_cell_length_c       8.65422
_cell_angle_alpha    89.8424
_cell_angle_beta     90.1576
_cell_angle_gamma    90.1576

_space_group_name_H-M_alt    "P 1"
_space_group_IT_number       1

loop_
  _space_group_symop_operation_xyz
  'x, y, z'

loop_
  _atom_site_type_symbol
  _atom_site_label
  _atom_site_symmetry_multiplicity
  _atom_site_fract_x
  _atom_site_fract_y
  _atom_site_fract_z
  _atom_site_occupancy
  Ge  Ge1       1.0  0.33500  0.15200  0.00234  1.0000
  Ge  Ge2       1.0  0.99800  0.66500  0.15200  1.0000
  Ge  Ge3       1.0  0.65100  0.50200  0.16500  1.0000
  Ge  Ge4       1.0  0.15200  0.99800  0.33500  1.0000
  Ge  Ge5       1.0  0.49800  0.16500  0.34900  1.0000
  Ge  Ge6       1.0  0.16500  0.65100  0.49800  1.0000
  Ge  Ge7       1.0  0.83500  0.34900  0.50200  1.0000
  Ge  Ge8       1.0  0.50200  0.83500  0.65100  1.0000
  Ge  Ge9       1.0  0.84800  0.00234  0.66500  1.0000
  Ge  Ge10      1.0  0.34900  0.49800  0.83500  1.0000
  Ge  Ge11      1.0  0.00234  0.33500  0.84800  1.0000
  Ge  Ge12      1.0  0.66500  0.84800  0.99800  1.0000
  Rh  Rh1       1.0  0.74800  0.75100  0.24700  1.0000
  Rh  Rh2       1.0  0.24700  0.74800  0.24900  1.0000
  Rh  Rh3       1.0  0.24900  0.24700  0.25200  1.0000
  Rh  Rh4       1.0  0.74800  0.25200  0.25200  1.0000
  Rh  Rh5       1.0  0.25200  0.74800  0.74800  1.0000
  Rh  Rh6       1.0  0.75100  0.75300  0.74800  1.0000
  Rh  Rh7       1.0  0.75300  0.25200  0.75100  1.0000
  Rh  Rh8       1.0  0.25200  0.24900  0.75300  1.0000
  Se  Se1       1.0  0.64700  0.14300  0.00333  1.0000
  Se  Se2       1.0  0.99700  0.35300  0.14300  1.0000
  Se  Se3       1.0  0.35600  0.49900  0.14800  1.0000
  Se  Se4       1.0  0.85700  0.00333  0.35300  1.0000
  Se  Se5       1.0  0.49900  0.85200  0.35600  1.0000
  Se  Se6       1.0  0.85200  0.64400  0.49900  1.0000
  Se  Se7       1.0  0.14800  0.35600  0.50100  1.0000
  Se  Se8       1.0  0.50100  0.14800  0.64400  1.0000
  Se  Se9       1.0  0.14300  0.99700  0.64700  1.0000
  Se  Se10      1.0  0.64400  0.50100  0.85200  1.0000
  Se  Se11      1.0  0.00333  0.64700  0.85700  1.0000
  Se  Se12      1.0  0.35300  0.85700  0.99700  1.0000
