data_image0
_chemical_formula_structural       Ba2O20Sm4Ti6
_chemical_formula_sum              "Ba2 O20 Sm4 Ti6"
_cell_length_a       14.0967
_cell_length_b       3.8876
_cell_length_c       7.61965
_cell_angle_alpha    90
_cell_angle_beta     90
_cell_angle_gamma    97.9258

_space_group_name_H-M_alt    "P 1"
_space_group_IT_number       1

loop_
  _space_group_symop_operation_xyz
  'x, y, z'

loop_
  _atom_site_type_symbol
  _atom_site_label
  _atom_site_symmetry_multiplicity
  _atom_site_fract_x
  _atom_site_fract_y
  _atom_site_fract_z
  _atom_site_occupancy
  Ba  Ba1       1.0  0.48900  0.74500  0.25000  1.0000
  Ba  Ba2       1.0  0.51100  0.25500  0.75000  1.0000
  O   O1        1.0  0.00000  0.50000  0.00000  1.0000
  O   O2        1.0  0.25900  0.63000  0.00816  1.0000
  O   O3        1.0  0.41600  0.20800  0.05120  1.0000
  O   O4        1.0  0.86600  0.93300  0.06260  1.0000
  O   O5        1.0  0.03910  0.01950  0.25000  1.0000
  O   O6        1.0  0.24200  0.12100  0.25000  1.0000
  O   O7        1.0  0.70200  0.85100  0.25000  1.0000
  O   O8        1.0  0.86600  0.93300  0.43700  1.0000
  O   O9        1.0  0.41600  0.20800  0.44900  1.0000
  O   O10       1.0  0.25900  0.63000  0.49200  1.0000
  O   O11       1.0  0.00000  0.50000  0.50000  1.0000
  O   O12       1.0  0.74100  0.37000  0.50800  1.0000
  O   O13       1.0  0.58400  0.79200  0.55100  1.0000
  O   O14       1.0  0.13400  0.06690  0.56300  1.0000
  O   O15       1.0  0.29800  0.14900  0.75000  1.0000
  O   O16       1.0  0.75800  0.87900  0.75000  1.0000
  O   O17       1.0  0.96100  0.98000  0.75000  1.0000
  O   O18       1.0  0.13400  0.06690  0.93700  1.0000
  O   O19       1.0  0.58400  0.79200  0.94900  1.0000
  O   O20       1.0  0.74100  0.37000  0.99200  1.0000
  Sm  Sm1       1.0  0.83800  0.41900  0.25000  1.0000
  Sm  Sm2       1.0  0.14600  0.57300  0.25000  1.0000
  Sm  Sm3       1.0  0.85400  0.42700  0.75000  1.0000
  Sm  Sm4       1.0  0.16200  0.58100  0.75000  1.0000
  Ti  Ti1       1.0  0.00000  0.00000  0.00000  1.0000
  Ti  Ti2       1.0  0.29100  0.14600  0.00565  1.0000
  Ti  Ti3       1.0  0.29100  0.14600  0.49400  1.0000
  Ti  Ti4       1.0  0.00000  0.00000  0.50000  1.0000
  Ti  Ti5       1.0  0.70900  0.85400  0.50600  1.0000
  Ti  Ti6       1.0  0.70900  0.85400  0.99400  1.0000
