data_image0
_chemical_formula_structural       Fe4Li8O16Si4
_chemical_formula_sum              "Fe4 Li8 O16 Si4"
_cell_length_a       8.18734
_cell_length_b       4.83259
_cell_length_c       8.1892
_cell_angle_alpha    90
_cell_angle_beta     101.167
_cell_angle_gamma    90

_space_group_name_H-M_alt    "P 1"
_space_group_IT_number       1

loop_
  _space_group_symop_operation_xyz
  'x, y, z'

loop_
  _atom_site_type_symbol
  _atom_site_label
  _atom_site_symmetry_multiplicity
  _atom_site_fract_x
  _atom_site_fract_y
  _atom_site_fract_z
  _atom_site_occupancy
  Fe  Fe1       1.0  0.28300  0.79300  0.53300  1.0000
  Fe  Fe2       1.0  0.21700  0.29300  0.96700  1.0000
  Fe  Fe3       1.0  0.71700  0.20700  0.46700  1.0000
  Fe  Fe4       1.0  0.78300  0.70700  0.03320  1.0000
  Li  Li1       1.0  0.66600  0.79300  0.67000  1.0000
  Li  Li2       1.0  0.83400  0.29300  0.83000  1.0000
  Li  Li3       1.0  0.33400  0.20700  0.33000  1.0000
  Li  Li4       1.0  0.16600  0.70700  0.17000  1.0000
  Li  Li5       1.0  0.58600  0.19200  0.08650  1.0000
  Li  Li6       1.0  0.91400  0.69200  0.41300  1.0000
  Li  Li7       1.0  0.41400  0.80800  0.91300  1.0000
  Li  Li8       1.0  0.08610  0.30800  0.58700  1.0000
  O   O1        1.0  0.57800  0.79300  0.11200  1.0000
  O   O2        1.0  0.63800  0.19500  0.67900  1.0000
  O   O3        1.0  0.96900  0.84600  0.21800  1.0000
  O   O4        1.0  0.53100  0.34600  0.28200  1.0000
  O   O5        1.0  0.03130  0.15400  0.78200  1.0000
  O   O6        1.0  0.46900  0.65400  0.71800  1.0000
  O   O7        1.0  0.69400  0.77300  0.44300  1.0000
  O   O8        1.0  0.80600  0.27300  0.05680  1.0000
  O   O9        1.0  0.30600  0.22700  0.55700  1.0000
  O   O10       1.0  0.19400  0.72700  0.94300  1.0000
  O   O11       1.0  0.42200  0.20700  0.88800  1.0000
  O   O12       1.0  0.07780  0.70700  0.61200  1.0000
  O   O13       1.0  0.92200  0.29300  0.38800  1.0000
  O   O14       1.0  0.86200  0.69500  0.82100  1.0000
  O   O15       1.0  0.13800  0.30500  0.17900  1.0000
  O   O16       1.0  0.36200  0.80500  0.32100  1.0000
  Si  Si1       1.0  0.04110  0.81600  0.79100  1.0000
  Si  Si2       1.0  0.45900  0.31600  0.70900  1.0000
  Si  Si3       1.0  0.95900  0.18400  0.20900  1.0000
  Si  Si4       1.0  0.54100  0.68400  0.29100  1.0000
