data_image0
_chemical_formula_structural       F24Os4
_chemical_formula_sum              "F24 Os4"
_cell_length_a       7.91042
_cell_length_b       8.66492
_cell_length_c       4.56969
_cell_angle_alpha    90
_cell_angle_beta     90
_cell_angle_gamma    90

_space_group_name_H-M_alt    "P 1"
_space_group_IT_number       1

loop_
  _space_group_symop_operation_xyz
  'x, y, z'

loop_
  _atom_site_type_symbol
  _atom_site_label
  _atom_site_symmetry_multiplicity
  _atom_site_fract_x
  _atom_site_fract_y
  _atom_site_fract_z
  _atom_site_occupancy
  F   F1        1.0  0.58400  0.75100  0.08290  1.0000
  F   F2        1.0  0.91600  0.75100  0.08290  1.0000
  F   F3        1.0  0.25000  0.75500  0.08520  1.0000
  F   F4        1.0  0.75000  0.00000  0.24000  1.0000
  F   F5        1.0  0.08440  0.50500  0.24200  1.0000
  F   F6        1.0  0.41600  0.50500  0.24200  1.0000
  F   F7        1.0  0.08440  0.00471  0.25800  1.0000
  F   F8        1.0  0.41600  0.00471  0.25800  1.0000
  F   F9        1.0  0.75000  0.50000  0.26000  1.0000
  F   F10       1.0  0.25000  0.25500  0.41500  1.0000
  F   F11       1.0  0.58400  0.25100  0.41700  1.0000
  F   F12       1.0  0.91600  0.25100  0.41700  1.0000
  F   F13       1.0  0.08440  0.74900  0.58300  1.0000
  F   F14       1.0  0.41600  0.74900  0.58300  1.0000
  F   F15       1.0  0.75000  0.74500  0.58500  1.0000
  F   F16       1.0  0.25000  0.50000  0.74000  1.0000
  F   F17       1.0  0.58400  0.99500  0.74200  1.0000
  F   F18       1.0  0.91600  0.99500  0.74200  1.0000
  F   F19       1.0  0.58400  0.49500  0.75800  1.0000
  F   F20       1.0  0.91600  0.49500  0.75800  1.0000
  F   F21       1.0  0.25000  0.00000  0.76000  1.0000
  F   F22       1.0  0.75000  0.24500  0.91500  1.0000
  F   F23       1.0  0.08440  0.24900  0.91700  1.0000
  F   F24       1.0  0.41600  0.24900  0.91700  1.0000
  Os  Os1       1.0  0.25000  0.12700  0.08730  1.0000
  Os  Os2       1.0  0.25000  0.62700  0.41300  1.0000
  Os  Os3       1.0  0.75000  0.37300  0.58700  1.0000
  Os  Os4       1.0  0.75000  0.87300  0.91300  1.0000
