data_image0
_chemical_formula_structural       Co4Ho20Sb8
_chemical_formula_sum              "Co4 Ho20 Sb8"
_cell_length_a       12.1286
_cell_length_b       8.72659
_cell_length_c       7.83287
_cell_angle_alpha    90
_cell_angle_beta     90
_cell_angle_gamma    90

_space_group_name_H-M_alt    "P 1"
_space_group_IT_number       1

loop_
  _space_group_symop_operation_xyz
  'x, y, z'

loop_
  _atom_site_type_symbol
  _atom_site_label
  _atom_site_symmetry_multiplicity
  _atom_site_fract_x
  _atom_site_fract_y
  _atom_site_fract_z
  _atom_site_occupancy
  Co  Co1       1.0  0.01000  0.75000  0.06980  1.0000
  Co  Co2       1.0  0.51000  0.75000  0.43000  1.0000
  Co  Co3       1.0  0.49000  0.25000  0.57000  1.0000
  Co  Co4       1.0  0.99000  0.25000  0.93000  1.0000
  Ho  Ho1       1.0  0.50200  0.75000  0.04780  1.0000
  Ho  Ho2       1.0  0.80700  0.25000  0.12300  1.0000
  Ho  Ho3       1.0  0.79600  0.75000  0.15700  1.0000
  Ho  Ho4       1.0  0.06540  0.03770  0.17700  1.0000
  Ho  Ho5       1.0  0.06540  0.46200  0.17700  1.0000
  Ho  Ho6       1.0  0.56500  0.03770  0.32300  1.0000
  Ho  Ho7       1.0  0.56500  0.46200  0.32300  1.0000
  Ho  Ho8       1.0  0.29600  0.75000  0.34300  1.0000
  Ho  Ho9       1.0  0.30700  0.25000  0.37700  1.0000
  Ho  Ho10      1.0  0.00204  0.75000  0.45200  1.0000
  Ho  Ho11      1.0  0.99800  0.25000  0.54800  1.0000
  Ho  Ho12      1.0  0.69300  0.75000  0.62300  1.0000
  Ho  Ho13      1.0  0.70400  0.25000  0.65700  1.0000
  Ho  Ho14      1.0  0.43500  0.53800  0.67700  1.0000
  Ho  Ho15      1.0  0.43500  0.96200  0.67700  1.0000
  Ho  Ho16      1.0  0.93500  0.53800  0.82300  1.0000
  Ho  Ho17      1.0  0.93500  0.96200  0.82300  1.0000
  Ho  Ho18      1.0  0.20400  0.25000  0.84300  1.0000
  Ho  Ho19      1.0  0.19300  0.75000  0.87700  1.0000
  Ho  Ho20      1.0  0.49800  0.25000  0.95200  1.0000
  Sb  Sb1       1.0  0.32700  0.00825  0.06940  1.0000
  Sb  Sb2       1.0  0.32700  0.49200  0.06940  1.0000
  Sb  Sb3       1.0  0.82700  0.00825  0.43100  1.0000
  Sb  Sb4       1.0  0.82700  0.49200  0.43100  1.0000
  Sb  Sb5       1.0  0.17300  0.50800  0.56900  1.0000
  Sb  Sb6       1.0  0.17300  0.99200  0.56900  1.0000
  Sb  Sb7       1.0  0.67300  0.50800  0.93100  1.0000
  Sb  Sb8       1.0  0.67300  0.99200  0.93100  1.0000
