data_image0
_chemical_formula_structural       Cl20K8La4
_chemical_formula_sum              "Cl20 K8 La4"
_cell_length_a       12.7907
_cell_length_b       8.88568
_cell_length_c       8.0486
_cell_angle_alpha    90
_cell_angle_beta     90
_cell_angle_gamma    90

_space_group_name_H-M_alt    "P 1"
_space_group_IT_number       1

loop_
  _space_group_symop_operation_xyz
  'x, y, z'

loop_
  _atom_site_type_symbol
  _atom_site_label
  _atom_site_symmetry_multiplicity
  _atom_site_fract_x
  _atom_site_fract_y
  _atom_site_fract_z
  _atom_site_occupancy
  Cl  Cl1       1.0  0.00644  0.25000  0.07140  1.0000
  Cl  Cl2       1.0  0.31700  0.75000  0.13400  1.0000
  Cl  Cl3       1.0  0.58000  0.54300  0.16600  1.0000
  Cl  Cl4       1.0  0.58000  0.95700  0.16600  1.0000
  Cl  Cl5       1.0  0.29200  0.25000  0.17100  1.0000
  Cl  Cl6       1.0  0.79200  0.25000  0.32900  1.0000
  Cl  Cl7       1.0  0.08040  0.54300  0.33400  1.0000
  Cl  Cl8       1.0  0.08040  0.95700  0.33400  1.0000
  Cl  Cl9       1.0  0.81700  0.75000  0.36600  1.0000
  Cl  Cl10      1.0  0.50600  0.25000  0.42900  1.0000
  Cl  Cl11      1.0  0.49400  0.75000  0.57100  1.0000
  Cl  Cl12      1.0  0.18300  0.25000  0.63400  1.0000
  Cl  Cl13      1.0  0.92000  0.04340  0.66600  1.0000
  Cl  Cl14      1.0  0.92000  0.45700  0.66600  1.0000
  Cl  Cl15      1.0  0.20800  0.75000  0.67100  1.0000
  Cl  Cl16      1.0  0.70800  0.75000  0.82900  1.0000
  Cl  Cl17      1.0  0.42000  0.04340  0.83400  1.0000
  Cl  Cl18      1.0  0.42000  0.45700  0.83400  1.0000
  Cl  Cl19      1.0  0.68300  0.25000  0.86600  1.0000
  Cl  Cl20      1.0  0.99400  0.75000  0.92900  1.0000
  K   K1        1.0  0.82800  0.50500  0.04810  1.0000
  K   K2        1.0  0.82800  0.99500  0.04810  1.0000
  K   K3        1.0  0.32800  0.50500  0.45200  1.0000
  K   K4        1.0  0.32800  0.99500  0.45200  1.0000
  K   K5        1.0  0.67200  0.00542  0.54800  1.0000
  K   K6        1.0  0.67200  0.49500  0.54800  1.0000
  K   K7        1.0  0.17200  0.00542  0.95200  1.0000
  K   K8        1.0  0.17200  0.49500  0.95200  1.0000
  La  La1       1.0  0.50700  0.25000  0.07590  1.0000
  La  La2       1.0  0.00695  0.25000  0.42400  1.0000
  La  La3       1.0  0.99300  0.75000  0.57600  1.0000
  La  La4       1.0  0.49300  0.75000  0.92400  1.0000
