data_image0
_chemical_formula_structural       Ho20Ni4Sb8
_chemical_formula_sum              "Ho20 Ni4 Sb8"
_cell_length_a       12.0544
_cell_length_b       8.80711
_cell_length_c       7.85764
_cell_angle_alpha    90
_cell_angle_beta     90
_cell_angle_gamma    90

_space_group_name_H-M_alt    "P 1"
_space_group_IT_number       1

loop_
  _space_group_symop_operation_xyz
  'x, y, z'

loop_
  _atom_site_type_symbol
  _atom_site_label
  _atom_site_symmetry_multiplicity
  _atom_site_fract_x
  _atom_site_fract_y
  _atom_site_fract_z
  _atom_site_occupancy
  Ho  Ho1       1.0  0.50100  0.75000  0.04480  1.0000
  Ho  Ho2       1.0  0.80300  0.25000  0.12600  1.0000
  Ho  Ho3       1.0  0.79300  0.75000  0.15900  1.0000
  Ho  Ho4       1.0  0.06580  0.04250  0.18000  1.0000
  Ho  Ho5       1.0  0.06580  0.45700  0.18000  1.0000
  Ho  Ho6       1.0  0.56600  0.04250  0.32000  1.0000
  Ho  Ho7       1.0  0.56600  0.45700  0.32000  1.0000
  Ho  Ho8       1.0  0.29300  0.75000  0.34100  1.0000
  Ho  Ho9       1.0  0.30300  0.25000  0.37400  1.0000
  Ho  Ho10      1.0  0.00050  0.75000  0.45500  1.0000
  Ho  Ho11      1.0  0.99900  0.25000  0.54500  1.0000
  Ho  Ho12      1.0  0.69700  0.75000  0.62600  1.0000
  Ho  Ho13      1.0  0.70700  0.25000  0.65900  1.0000
  Ho  Ho14      1.0  0.43400  0.54300  0.68000  1.0000
  Ho  Ho15      1.0  0.43400  0.95700  0.68000  1.0000
  Ho  Ho16      1.0  0.93400  0.54300  0.82000  1.0000
  Ho  Ho17      1.0  0.93400  0.95700  0.82000  1.0000
  Ho  Ho18      1.0  0.20700  0.25000  0.84100  1.0000
  Ho  Ho19      1.0  0.19700  0.75000  0.87400  1.0000
  Ho  Ho20      1.0  0.49900  0.25000  0.95500  1.0000
  Ni  Ni1       1.0  0.01320  0.75000  0.07840  1.0000
  Ni  Ni2       1.0  0.51300  0.75000  0.42200  1.0000
  Ni  Ni3       1.0  0.48700  0.25000  0.57800  1.0000
  Ni  Ni4       1.0  0.98700  0.25000  0.92200  1.0000
  Sb  Sb1       1.0  0.32700  0.00894  0.07060  1.0000
  Sb  Sb2       1.0  0.32700  0.49100  0.07060  1.0000
  Sb  Sb3       1.0  0.82700  0.00894  0.42900  1.0000
  Sb  Sb4       1.0  0.82700  0.49100  0.42900  1.0000
  Sb  Sb5       1.0  0.17300  0.50900  0.57100  1.0000
  Sb  Sb6       1.0  0.17300  0.99100  0.57100  1.0000
  Sb  Sb7       1.0  0.67300  0.50900  0.92900  1.0000
  Sb  Sb8       1.0  0.67300  0.99100  0.92900  1.0000
