data_image0
_chemical_formula_structural       Ba12I8P12
_chemical_formula_sum              "Ba12 I8 P12"
_cell_length_a       17.5181
_cell_length_b       4.58986
_cell_length_c       14.3323
_cell_angle_alpha    90
_cell_angle_beta     90
_cell_angle_gamma    90

_space_group_name_H-M_alt    "P 1"
_space_group_IT_number       1

loop_
  _space_group_symop_operation_xyz
  'x, y, z'

loop_
  _atom_site_type_symbol
  _atom_site_label
  _atom_site_symmetry_multiplicity
  _atom_site_fract_x
  _atom_site_fract_y
  _atom_site_fract_z
  _atom_site_occupancy
  Ba  Ba1       1.0  0.14400  0.25000  0.04170  1.0000
  Ba  Ba2       1.0  0.63000  0.75000  0.11600  1.0000
  Ba  Ba3       1.0  0.34100  0.75000  0.21100  1.0000
  Ba  Ba4       1.0  0.84000  0.75000  0.28900  1.0000
  Ba  Ba5       1.0  0.13000  0.75000  0.38400  1.0000
  Ba  Ba6       1.0  0.64400  0.25000  0.45800  1.0000
  Ba  Ba7       1.0  0.35600  0.75000  0.54200  1.0000
  Ba  Ba8       1.0  0.87000  0.25000  0.61600  1.0000
  Ba  Ba9       1.0  0.16000  0.25000  0.71100  1.0000
  Ba  Ba10      1.0  0.66000  0.25000  0.78900  1.0000
  Ba  Ba11      1.0  0.37000  0.25000  0.88400  1.0000
  Ba  Ba12      1.0  0.85600  0.75000  0.95800  1.0000
  I   I1        1.0  0.47000  0.25000  0.11300  1.0000
  I   I2        1.0  0.00850  0.75000  0.13500  1.0000
  I   I3        1.0  0.50800  0.75000  0.36500  1.0000
  I   I4        1.0  0.97000  0.25000  0.38700  1.0000
  I   I5        1.0  0.02990  0.75000  0.61300  1.0000
  I   I6        1.0  0.49200  0.25000  0.63500  1.0000
  I   I7        1.0  0.99200  0.25000  0.86500  1.0000
  I   I8        1.0  0.53000  0.75000  0.88700  1.0000
  P   P1        1.0  0.27500  0.75000  0.00425  1.0000
  P   P2        1.0  0.78600  0.25000  0.12700  1.0000
  P   P3        1.0  0.71100  0.25000  0.24700  1.0000
  P   P4        1.0  0.21100  0.25000  0.25300  1.0000
  P   P5        1.0  0.28600  0.25000  0.37300  1.0000
  P   P6        1.0  0.77500  0.75000  0.49600  1.0000
  P   P7        1.0  0.22500  0.25000  0.50400  1.0000
  P   P8        1.0  0.71400  0.75000  0.62700  1.0000
  P   P9        1.0  0.78900  0.75000  0.74700  1.0000
  P   P10       1.0  0.28900  0.75000  0.75300  1.0000
  P   P11       1.0  0.21400  0.75000  0.87300  1.0000
  P   P12       1.0  0.72500  0.25000  0.99600  1.0000
