data_image0
_chemical_formula_structural       C12Cs4K2N12Rh2
_chemical_formula_sum              "C12 Cs4 K2 N12 Rh2"
_cell_length_a       7.66113
_cell_length_b       8.14269
_cell_length_c       11.148
_cell_angle_alpha    90
_cell_angle_beta     90.1543
_cell_angle_gamma    90

_space_group_name_H-M_alt    "P 1"
_space_group_IT_number       1

loop_
  _space_group_symop_operation_xyz
  'x, y, z'

loop_
  _atom_site_type_symbol
  _atom_site_label
  _atom_site_symmetry_multiplicity
  _atom_site_fract_x
  _atom_site_fract_y
  _atom_site_fract_z
  _atom_site_occupancy
  C   C1        1.0  0.78200  0.13000  0.03270  1.0000
  C   C2        1.0  0.87200  0.79200  0.04180  1.0000
  C   C3        1.0  0.07450  0.02330  0.17200  1.0000
  C   C4        1.0  0.42500  0.52300  0.32800  1.0000
  C   C5        1.0  0.62800  0.29200  0.45800  1.0000
  C   C6        1.0  0.71800  0.63000  0.46700  1.0000
  C   C7        1.0  0.28200  0.37000  0.53300  1.0000
  C   C8        1.0  0.37200  0.70800  0.54200  1.0000
  C   C9        1.0  0.57500  0.47700  0.67200  1.0000
  C   C10       1.0  0.92500  0.97700  0.82800  1.0000
  C   C11       1.0  0.12800  0.20800  0.95800  1.0000
  C   C12       1.0  0.21800  0.87000  0.96700  1.0000
  Cs  Cs1       1.0  0.52100  0.93100  0.24900  1.0000
  Cs  Cs2       1.0  0.97900  0.43100  0.25100  1.0000
  Cs  Cs3       1.0  0.02070  0.56900  0.74900  1.0000
  Cs  Cs4       1.0  0.47900  0.06920  0.75100  1.0000
  K   K1        1.0  0.50000  0.50000  0.00000  1.0000
  K   K2        1.0  0.00000  0.00000  0.50000  1.0000
  N   N1        1.0  0.65500  0.20400  0.05510  1.0000
  N   N2        1.0  0.79900  0.67100  0.06770  1.0000
  N   N3        1.0  0.37800  0.54300  0.22900  1.0000
  N   N4        1.0  0.12200  0.04250  0.27100  1.0000
  N   N5        1.0  0.70100  0.17100  0.43200  1.0000
  N   N6        1.0  0.84500  0.70400  0.44500  1.0000
  N   N7        1.0  0.15500  0.29600  0.55500  1.0000
  N   N8        1.0  0.29900  0.82900  0.56800  1.0000
  N   N9        1.0  0.87800  0.95700  0.72900  1.0000
  N   N10       1.0  0.62200  0.45700  0.77100  1.0000
  N   N11       1.0  0.20100  0.32900  0.93200  1.0000
  N   N12       1.0  0.34500  0.79600  0.94500  1.0000
  Rh  Rh1       1.0  0.00000  0.00000  0.00000  1.0000
  Rh  Rh2       1.0  0.50000  0.50000  0.50000  1.0000
