data_image0
_chemical_formula_structural       Bi6O20SrV4
_chemical_formula_sum              "Bi6 O20 Sr1 V4"
_cell_length_a       7.10656
_cell_length_b       7.90887
_cell_length_c       9.25773
_cell_angle_alpha    106.304
_cell_angle_beta     94.4362
_cell_angle_gamma    112.499

_space_group_name_H-M_alt    "P 1"
_space_group_IT_number       1

loop_
  _space_group_symop_operation_xyz
  'x, y, z'

loop_
  _atom_site_type_symbol
  _atom_site_label
  _atom_site_symmetry_multiplicity
  _atom_site_fract_x
  _atom_site_fract_y
  _atom_site_fract_z
  _atom_site_occupancy
  Bi  Bi1       1.0  0.43000  0.29500  0.08190  1.0000
  Bi  Bi2       1.0  0.80900  0.79000  0.33100  1.0000
  Bi  Bi3       1.0  0.66000  0.37300  0.49000  1.0000
  Bi  Bi4       1.0  0.34000  0.62700  0.51000  1.0000
  Bi  Bi5       1.0  0.19100  0.21000  0.66900  1.0000
  Bi  Bi6       1.0  0.57000  0.70500  0.91800  1.0000
  O   O1        1.0  0.35100  0.81500  0.07150  1.0000
  O   O2        1.0  0.67600  0.58700  0.10100  1.0000
  O   O3        1.0  0.13800  0.34500  0.15600  1.0000
  O   O4        1.0  0.84200  0.97300  0.15800  1.0000
  O   O5        1.0  0.75900  0.31400  0.24300  1.0000
  O   O6        1.0  0.11000  0.73900  0.27900  1.0000
  O   O7        1.0  0.36400  0.13800  0.31700  1.0000
  O   O8        1.0  0.55300  0.53200  0.36700  1.0000
  O   O9        1.0  0.54300  0.88600  0.37300  1.0000
  O   O10       1.0  0.04900  0.29200  0.43700  1.0000
  O   O11       1.0  0.95100  0.70800  0.56300  1.0000
  O   O12       1.0  0.45700  0.11400  0.62700  1.0000
  O   O13       1.0  0.44700  0.46800  0.63300  1.0000
  O   O14       1.0  0.63600  0.86200  0.68300  1.0000
  O   O15       1.0  0.89000  0.26100  0.72100  1.0000
  O   O16       1.0  0.24100  0.68600  0.75700  1.0000
  O   O17       1.0  0.15800  0.02720  0.84200  1.0000
  O   O18       1.0  0.86200  0.65500  0.84400  1.0000
  O   O19       1.0  0.32400  0.41300  0.89900  1.0000
  O   O20       1.0  0.64900  0.18500  0.92800  1.0000
  Sr  Sr1       1.0  0.00000  0.50000  0.00000  1.0000
  V   V1        1.0  0.94700  0.22400  0.24300  1.0000
  V   V2        1.0  0.34600  0.90100  0.26200  1.0000
  V   V3        1.0  0.65400  0.09890  0.73800  1.0000
  V   V4        1.0  0.05320  0.77600  0.75700  1.0000
