data_image0
_chemical_formula_structural       Ge4O20Sr4Ti4
_chemical_formula_sum              "Ge4 O20 Sr4 Ti4"
_cell_length_a       7.20745
_cell_length_b       9.08012
_cell_length_c       6.7682
_cell_angle_alpha    90
_cell_angle_beta     113.301
_cell_angle_gamma    90

_space_group_name_H-M_alt    "P 1"
_space_group_IT_number       1

loop_
  _space_group_symop_operation_xyz
  'x, y, z'

loop_
  _atom_site_type_symbol
  _atom_site_label
  _atom_site_symmetry_multiplicity
  _atom_site_fract_x
  _atom_site_fract_y
  _atom_site_fract_z
  _atom_site_occupancy
  Ge  Ge1       1.0  0.74900  0.43700  0.24900  1.0000
  Ge  Ge2       1.0  0.24900  0.06330  0.24900  1.0000
  Ge  Ge3       1.0  0.75100  0.93700  0.75100  1.0000
  Ge  Ge4       1.0  0.25100  0.56300  0.75100  1.0000
  O   O1        1.0  0.57900  0.31600  0.05530  1.0000
  O   O2        1.0  0.07870  0.18400  0.05530  1.0000
  O   O3        1.0  0.89400  0.54600  0.14700  1.0000
  O   O4        1.0  0.39400  0.95400  0.14700  1.0000
  O   O5        1.0  0.74900  0.81100  0.25400  1.0000
  O   O6        1.0  0.24900  0.68900  0.25400  1.0000
  O   O7        1.0  0.60100  0.54400  0.35000  1.0000
  O   O8        1.0  0.10100  0.95600  0.35000  1.0000
  O   O9        1.0  0.92400  0.31700  0.44100  1.0000
  O   O10       1.0  0.42400  0.18300  0.44100  1.0000
  O   O11       1.0  0.57600  0.81700  0.55900  1.0000
  O   O12       1.0  0.07640  0.68300  0.55900  1.0000
  O   O13       1.0  0.89900  0.04350  0.65000  1.0000
  O   O14       1.0  0.39900  0.45600  0.65000  1.0000
  O   O15       1.0  0.75100  0.31100  0.74600  1.0000
  O   O16       1.0  0.25100  0.18900  0.74600  1.0000
  O   O17       1.0  0.60600  0.04570  0.85300  1.0000
  O   O18       1.0  0.10600  0.45400  0.85300  1.0000
  O   O19       1.0  0.42100  0.68400  0.94500  1.0000
  O   O20       1.0  0.92100  0.81600  0.94500  1.0000
  Sr  Sr1       1.0  0.74700  0.08090  0.25200  1.0000
  Sr  Sr2       1.0  0.24700  0.41900  0.25200  1.0000
  Sr  Sr3       1.0  0.75300  0.58100  0.74800  1.0000
  Sr  Sr4       1.0  0.25300  0.91900  0.74800  1.0000
  Ti  Ti1       1.0  0.99600  0.75100  0.25000  1.0000
  Ti  Ti2       1.0  0.49600  0.74900  0.25000  1.0000
  Ti  Ti3       1.0  0.50400  0.25100  0.75000  1.0000
  Ti  Ti4       1.0  0.00399  0.24900  0.75000  1.0000
