data_image0
_chemical_formula_structural       Ba2O20Si6Y4
_chemical_formula_sum              "Ba2 O20 Si6 Y4"
_cell_length_a       5.39647
_cell_length_b       12.1296
_cell_length_c       6.86618
_cell_angle_alpha    90
_cell_angle_beta     106.489
_cell_angle_gamma    90

_space_group_name_H-M_alt    "P 1"
_space_group_IT_number       1

loop_
  _space_group_symop_operation_xyz
  'x, y, z'

loop_
  _atom_site_type_symbol
  _atom_site_label
  _atom_site_symmetry_multiplicity
  _atom_site_fract_x
  _atom_site_fract_y
  _atom_site_fract_z
  _atom_site_occupancy
  Ba  Ba1       1.0  0.75900  0.25000  0.02120  1.0000
  Ba  Ba2       1.0  0.24100  0.75000  0.97900  1.0000
  O   O1        1.0  0.16400  0.12500  0.00306  1.0000
  O   O2        1.0  0.16400  0.37500  0.00306  1.0000
  O   O3        1.0  0.42800  0.55700  0.18700  1.0000
  O   O4        1.0  0.42800  0.94300  0.18700  1.0000
  O   O5        1.0  0.55500  0.14100  0.33900  1.0000
  O   O6        1.0  0.55500  0.35900  0.33900  1.0000
  O   O7        1.0  0.10000  0.05280  0.35100  1.0000
  O   O8        1.0  0.10000  0.44700  0.35100  1.0000
  O   O9        1.0  0.12100  0.75000  0.36200  1.0000
  O   O10       1.0  0.62900  0.75000  0.38700  1.0000
  O   O11       1.0  0.37100  0.25000  0.61300  1.0000
  O   O12       1.0  0.87900  0.25000  0.63800  1.0000
  O   O13       1.0  0.90000  0.55300  0.64900  1.0000
  O   O14       1.0  0.90000  0.94700  0.64900  1.0000
  O   O15       1.0  0.44500  0.64100  0.66100  1.0000
  O   O16       1.0  0.44500  0.85900  0.66100  1.0000
  O   O17       1.0  0.57200  0.05670  0.81300  1.0000
  O   O18       1.0  0.57200  0.44300  0.81300  1.0000
  O   O19       1.0  0.83600  0.62500  0.99700  1.0000
  O   O20       1.0  0.83600  0.87500  0.99700  1.0000
  Si  Si1       1.0  0.30400  0.06160  0.21300  1.0000
  Si  Si2       1.0  0.30400  0.43800  0.21300  1.0000
  Si  Si3       1.0  0.58500  0.25000  0.48900  1.0000
  Si  Si4       1.0  0.41500  0.75000  0.51100  1.0000
  Si  Si5       1.0  0.69600  0.56200  0.78700  1.0000
  Si  Si6       1.0  0.69600  0.93800  0.78700  1.0000
  Y   Y1        1.0  0.84200  0.59800  0.31500  1.0000
  Y   Y2        1.0  0.84200  0.90200  0.31500  1.0000
  Y   Y3        1.0  0.15800  0.09850  0.68500  1.0000
  Y   Y4        1.0  0.15800  0.40200  0.68500  1.0000
