data_image0
_chemical_formula_structural       As12In8K12
_chemical_formula_sum              "As12 In8 K12"
_cell_length_a       6.88505
_cell_length_b       10.6197
_cell_length_c       15.0395
_cell_angle_alpha    90
_cell_angle_beta     90
_cell_angle_gamma    71.0851

_space_group_name_H-M_alt    "P 1"
_space_group_IT_number       1

loop_
  _space_group_symop_operation_xyz
  'x, y, z'

loop_
  _atom_site_type_symbol
  _atom_site_label
  _atom_site_symmetry_multiplicity
  _atom_site_fract_x
  _atom_site_fract_y
  _atom_site_fract_z
  _atom_site_occupancy
  As  As1       1.0  0.60100  0.34900  0.09800  1.0000
  As  As2       1.0  0.94900  0.65100  0.09800  1.0000
  As  As3       1.0  0.16200  0.00000  0.11900  1.0000
  As  As4       1.0  0.66200  0.00000  0.38100  1.0000
  As  As5       1.0  0.10100  0.34900  0.40200  1.0000
  As  As6       1.0  0.44900  0.65100  0.40200  1.0000
  As  As7       1.0  0.55100  0.34900  0.59800  1.0000
  As  As8       1.0  0.89900  0.65100  0.59800  1.0000
  As  As9       1.0  0.33800  0.00000  0.61900  1.0000
  As  As10      1.0  0.83800  0.00000  0.88100  1.0000
  As  As11      1.0  0.05070  0.34900  0.90200  1.0000
  As  As12      1.0  0.39900  0.65100  0.90200  1.0000
  In  In1       1.0  0.91700  0.16700  0.00000  1.0000
  In  In2       1.0  0.26100  0.47800  0.00000  1.0000
  In  In3       1.0  0.73900  0.52200  0.00000  1.0000
  In  In4       1.0  0.08330  0.83300  0.00000  1.0000
  In  In5       1.0  0.41700  0.16700  0.50000  1.0000
  In  In6       1.0  0.76100  0.47800  0.50000  1.0000
  In  In7       1.0  0.23900  0.52200  0.50000  1.0000
  In  In8       1.0  0.58300  0.83300  0.50000  1.0000
  K   K1        1.0  0.65200  0.00000  0.13800  1.0000
  K   K2        1.0  0.11400  0.31400  0.17500  1.0000
  K   K3        1.0  0.42800  0.68600  0.17500  1.0000
  K   K4        1.0  0.61400  0.31400  0.32500  1.0000
  K   K5        1.0  0.92800  0.68600  0.32500  1.0000
  K   K6        1.0  0.15200  0.00000  0.36200  1.0000
  K   K7        1.0  0.84800  0.00000  0.63800  1.0000
  K   K8        1.0  0.07200  0.31400  0.67500  1.0000
  K   K9        1.0  0.38600  0.68600  0.67500  1.0000
  K   K10       1.0  0.57200  0.31400  0.82500  1.0000
  K   K11       1.0  0.88600  0.68600  0.82500  1.0000
  K   K12       1.0  0.34800  0.00000  0.86200  1.0000
