data_image0
_chemical_formula_structural       C12Eu2N18
_chemical_formula_sum              "C12 Eu2 N18"
_cell_length_a       6.84006
_cell_length_b       6.84006
_cell_length_c       9.80619
_cell_angle_alpha    90
_cell_angle_beta     90
_cell_angle_gamma    106.617

_space_group_name_H-M_alt    "P 1"
_space_group_IT_number       1

loop_
  _space_group_symop_operation_xyz
  'x, y, z'

loop_
  _atom_site_type_symbol
  _atom_site_label
  _atom_site_symmetry_multiplicity
  _atom_site_fract_x
  _atom_site_fract_y
  _atom_site_fract_z
  _atom_site_occupancy
  C   C1        1.0  0.00449  0.27900  0.05350  1.0000
  C   C2        1.0  0.72100  0.99600  0.05350  1.0000
  C   C3        1.0  0.45100  0.26700  0.25000  1.0000
  C   C4        1.0  0.73300  0.54900  0.25000  1.0000
  C   C5        1.0  0.00449  0.27900  0.44700  1.0000
  C   C6        1.0  0.72100  0.99600  0.44700  1.0000
  C   C7        1.0  0.27900  0.00449  0.55300  1.0000
  C   C8        1.0  0.99600  0.72100  0.55300  1.0000
  C   C9        1.0  0.26700  0.45100  0.75000  1.0000
  C   C10       1.0  0.54900  0.73300  0.75000  1.0000
  C   C11       1.0  0.27900  0.00449  0.94700  1.0000
  C   C12       1.0  0.99600  0.72100  0.94700  1.0000
  Eu  Eu1       1.0  0.29000  0.71000  0.25000  1.0000
  Eu  Eu2       1.0  0.71000  0.29000  0.75000  1.0000
  N   N1        1.0  0.15400  0.84600  0.00305  1.0000
  N   N2        1.0  0.15000  0.40600  0.09140  1.0000
  N   N3        1.0  0.59400  0.85000  0.09140  1.0000
  N   N4        1.0  0.35600  0.09350  0.25000  1.0000
  N   N5        1.0  0.53800  0.46200  0.25000  1.0000
  N   N6        1.0  0.90700  0.64400  0.25000  1.0000
  N   N7        1.0  0.15000  0.40600  0.40900  1.0000
  N   N8        1.0  0.59400  0.85000  0.40900  1.0000
  N   N9        1.0  0.15400  0.84600  0.49700  1.0000
  N   N10       1.0  0.84600  0.15400  0.50300  1.0000
  N   N11       1.0  0.40600  0.15000  0.59100  1.0000
  N   N12       1.0  0.85000  0.59400  0.59100  1.0000
  N   N13       1.0  0.09350  0.35600  0.75000  1.0000
  N   N14       1.0  0.46200  0.53800  0.75000  1.0000
  N   N15       1.0  0.64400  0.90700  0.75000  1.0000
  N   N16       1.0  0.40600  0.15000  0.90900  1.0000
  N   N17       1.0  0.85000  0.59400  0.90900  1.0000
  N   N18       1.0  0.84600  0.15400  0.99700  1.0000
