data_image0
_chemical_formula_structural       H6K4O16P2Se2
_chemical_formula_sum              "H6 K4 O16 P2 Se2"
_cell_length_a       7.05196
_cell_length_b       7.42873
_cell_length_c       7.40692
_cell_angle_alpha    90
_cell_angle_beta     99.7682
_cell_angle_gamma    90

_space_group_name_H-M_alt    "P 1"
_space_group_IT_number       1

loop_
  _space_group_symop_operation_xyz
  'x, y, z'

loop_
  _atom_site_type_symbol
  _atom_site_label
  _atom_site_symmetry_multiplicity
  _atom_site_fract_x
  _atom_site_fract_y
  _atom_site_fract_z
  _atom_site_occupancy
  H   H1        1.0  0.10700  0.81500  0.23700  1.0000
  H   H2        1.0  0.32000  0.23800  0.30600  1.0000
  H   H3        1.0  0.55100  0.74400  0.43200  1.0000
  H   H4        1.0  0.60700  0.18500  0.73700  1.0000
  H   H5        1.0  0.82000  0.76200  0.80600  1.0000
  H   H6        1.0  0.05060  0.25600  0.93200  1.0000
  K   K1        1.0  0.42300  0.55400  0.04400  1.0000
  K   K2        1.0  0.71700  0.04630  0.12800  1.0000
  K   K3        1.0  0.92300  0.44600  0.54400  1.0000
  K   K4        1.0  0.21700  0.95400  0.62800  1.0000
  O   O1        1.0  0.34600  0.90400  0.00355  1.0000
  O   O2        1.0  0.79100  0.39400  0.16900  1.0000
  O   O3        1.0  0.34500  0.20300  0.17400  1.0000
  O   O4        1.0  0.12000  0.95800  0.23700  1.0000
  O   O5        1.0  0.08830  0.62700  0.25000  1.0000
  O   O6        1.0  0.53500  0.54600  0.42000  1.0000
  O   O7        1.0  0.56600  0.88300  0.42900  1.0000
  O   O8        1.0  0.28200  0.28400  0.48800  1.0000
  O   O9        1.0  0.84600  0.09630  0.50400  1.0000
  O   O10       1.0  0.29100  0.60600  0.66900  1.0000
  O   O11       1.0  0.84500  0.79700  0.67400  1.0000
  O   O12       1.0  0.62000  0.04160  0.73700  1.0000
  O   O13       1.0  0.58800  0.37300  0.75000  1.0000
  O   O14       1.0  0.03460  0.45400  0.92000  1.0000
  O   O15       1.0  0.06630  0.11700  0.92900  1.0000
  O   O16       1.0  0.78200  0.71600  0.98800  1.0000
  P   P1        1.0  0.22600  0.03700  0.08490  1.0000
  P   P2        1.0  0.72600  0.96300  0.58500  1.0000
  Se  Se1       1.0  0.92100  0.54400  0.08040  1.0000
  Se  Se2       1.0  0.42100  0.45600  0.58000  1.0000
