data_image0
_chemical_formula_structural       C4Co2N14Sr12
_chemical_formula_sum              "C4 Co2 N14 Sr12"
_cell_length_a       9.83007
_cell_length_b       14.6019
_cell_length_c       3.84005
_cell_angle_alpha    90
_cell_angle_beta     90
_cell_angle_gamma    90

_space_group_name_H-M_alt    "P 1"
_space_group_IT_number       1

loop_
  _space_group_symop_operation_xyz
  'x, y, z'

loop_
  _atom_site_type_symbol
  _atom_site_label
  _atom_site_symmetry_multiplicity
  _atom_site_fract_x
  _atom_site_fract_y
  _atom_site_fract_z
  _atom_site_occupancy
  C   C1        1.0  0.22800  0.22100  0.18300  1.0000
  C   C2        1.0  0.77200  0.77900  0.18300  1.0000
  C   C3        1.0  0.72800  0.27900  0.81700  1.0000
  C   C4        1.0  0.27200  0.72100  0.81700  1.0000
  Co  Co1       1.0  0.00000  0.00000  0.02350  1.0000
  Co  Co2       1.0  0.50000  0.50000  0.97600  1.0000
  N   N1        1.0  0.83400  0.05320  0.02750  1.0000
  N   N2        1.0  0.16600  0.94700  0.02750  1.0000
  N   N3        1.0  0.33100  0.19400  0.02760  1.0000
  N   N4        1.0  0.66900  0.80600  0.02760  1.0000
  N   N5        1.0  0.13400  0.24900  0.36800  1.0000
  N   N6        1.0  0.86600  0.75100  0.36800  1.0000
  N   N7        1.0  0.00000  0.50000  0.43500  1.0000
  N   N8        1.0  0.50000  0.00000  0.56500  1.0000
  N   N9        1.0  0.63400  0.25100  0.63200  1.0000
  N   N10       1.0  0.36600  0.74900  0.63200  1.0000
  N   N11       1.0  0.83100  0.30600  0.97200  1.0000
  N   N12       1.0  0.16900  0.69400  0.97200  1.0000
  N   N13       1.0  0.33400  0.44700  0.97200  1.0000
  N   N14       1.0  0.66600  0.55300  0.97200  1.0000
  Sr  Sr1       1.0  0.57100  0.11000  0.06040  1.0000
  Sr  Sr2       1.0  0.42900  0.89000  0.06040  1.0000
  Sr  Sr3       1.0  0.75200  0.44100  0.44000  1.0000
  Sr  Sr4       1.0  0.24800  0.55900  0.44000  1.0000
  Sr  Sr5       1.0  0.90600  0.16300  0.49400  1.0000
  Sr  Sr6       1.0  0.09350  0.83700  0.49400  1.0000
  Sr  Sr7       1.0  0.40600  0.33700  0.50600  1.0000
  Sr  Sr8       1.0  0.59400  0.66300  0.50600  1.0000
  Sr  Sr9       1.0  0.25200  0.05850  0.56000  1.0000
  Sr  Sr10      1.0  0.74800  0.94100  0.56000  1.0000
  Sr  Sr11      1.0  0.07120  0.39000  0.94000  1.0000
  Sr  Sr12      1.0  0.92900  0.61000  0.94000  1.0000
