data_image0
_chemical_formula_structural       C12Co2K6N12
_chemical_formula_sum              "C12 Co2 K6 N12"
_cell_length_a       6.92047
_cell_length_b       10.2527
_cell_length_c       8.27184
_cell_angle_alpha    90
_cell_angle_beta     107.508
_cell_angle_gamma    90

_space_group_name_H-M_alt    "P 1"
_space_group_IT_number       1

loop_
  _space_group_symop_operation_xyz
  'x, y, z'

loop_
  _atom_site_type_symbol
  _atom_site_label
  _atom_site_symmetry_multiplicity
  _atom_site_fract_x
  _atom_site_fract_y
  _atom_site_fract_z
  _atom_site_occupancy
  C   C1        1.0  0.11900  0.83600  0.02720  1.0000
  C   C2        1.0  0.81700  0.94600  0.11200  1.0000
  C   C3        1.0  0.18300  0.05010  0.20600  1.0000
  C   C4        1.0  0.81700  0.55000  0.29400  1.0000
  C   C5        1.0  0.18300  0.44600  0.38800  1.0000
  C   C6        1.0  0.88100  0.33600  0.47300  1.0000
  C   C7        1.0  0.11900  0.66400  0.52700  1.0000
  C   C8        1.0  0.81700  0.55400  0.61200  1.0000
  C   C9        1.0  0.18300  0.45000  0.70600  1.0000
  C   C10       1.0  0.81700  0.95000  0.79400  1.0000
  C   C11       1.0  0.18300  0.05430  0.88800  1.0000
  C   C12       1.0  0.88100  0.16400  0.97300  1.0000
  Co  Co1       1.0  0.00000  0.00000  0.00000  1.0000
  Co  Co2       1.0  0.00000  0.50000  0.50000  1.0000
  K   K1        1.0  0.00000  0.50000  0.00000  1.0000
  K   K2        1.0  0.50200  0.27200  0.12500  1.0000
  K   K3        1.0  0.49800  0.77200  0.37500  1.0000
  K   K4        1.0  0.00000  0.00000  0.50000  1.0000
  K   K5        1.0  0.50200  0.22800  0.62500  1.0000
  K   K6        1.0  0.49800  0.72800  0.87500  1.0000
  N   N1        1.0  0.20000  0.73400  0.04640  1.0000
  N   N2        1.0  0.70400  0.58100  0.16200  1.0000
  N   N3        1.0  0.70400  0.91200  0.18500  1.0000
  N   N4        1.0  0.29600  0.41200  0.31500  1.0000
  N   N5        1.0  0.29600  0.08110  0.33800  1.0000
  N   N6        1.0  0.80000  0.23300  0.45400  1.0000
  N   N7        1.0  0.20000  0.76700  0.54600  1.0000
  N   N8        1.0  0.70400  0.91900  0.66200  1.0000
  N   N9        1.0  0.70400  0.58800  0.68500  1.0000
  N   N10       1.0  0.29600  0.08810  0.81500  1.0000
  N   N11       1.0  0.29600  0.41900  0.83800  1.0000
  N   N12       1.0  0.80000  0.26600  0.95400  1.0000
