data_image0
_chemical_formula_structural       Dy2O18P6
_chemical_formula_sum              "Dy2 O18 P6"
_cell_length_a       6.65904
_cell_length_b       7.746
_cell_length_c       8.51756
_cell_angle_alpha    105.168
_cell_angle_beta     113.011
_cell_angle_gamma    64.5428

_space_group_name_H-M_alt    "P 1"
_space_group_IT_number       1

loop_
  _space_group_symop_operation_xyz
  'x, y, z'

loop_
  _atom_site_type_symbol
  _atom_site_label
  _atom_site_symmetry_multiplicity
  _atom_site_fract_x
  _atom_site_fract_y
  _atom_site_fract_z
  _atom_site_occupancy
  Dy  Dy1       1.0  0.67200  0.35200  0.24200  1.0000
  Dy  Dy2       1.0  0.21800  0.85200  0.74200  1.0000
  O   O1        1.0  0.35000  0.42700  0.01430  1.0000
  O   O2        1.0  0.82400  0.08080  0.08880  1.0000
  O   O3        1.0  0.95700  0.73200  0.13100  1.0000
  O   O4        1.0  0.70900  0.57900  0.14900  1.0000
  O   O5        1.0  0.25500  0.88100  0.21300  1.0000
  O   O6        1.0  0.55200  0.21100  0.36800  1.0000
  O   O7        1.0  0.03990  0.31300  0.40300  1.0000
  O   O8        1.0  0.51200  0.61100  0.40600  1.0000
  O   O9        1.0  0.59500  0.90900  0.46000  1.0000
  O   O10       1.0  0.23700  0.92700  0.51400  1.0000
  O   O11       1.0  0.18400  0.58100  0.58900  1.0000
  O   O12       1.0  0.44200  0.23200  0.63100  1.0000
  O   O13       1.0  0.86100  0.07860  0.64900  1.0000
  O   O14       1.0  0.07780  0.38100  0.71300  1.0000
  O   O15       1.0  0.60500  0.71100  0.86800  1.0000
  O   O16       1.0  0.04990  0.81300  0.90300  1.0000
  O   O17       1.0  0.28400  0.11100  0.90600  1.0000
  O   O18       1.0  0.95600  0.40900  0.96000  1.0000
  P   P1        1.0  0.78700  0.61400  0.02280  1.0000
  P   P2        1.0  0.00858  0.88600  0.07210  1.0000
  P   P3        1.0  0.39400  0.82400  0.40500  1.0000
  P   P4        1.0  0.62100  0.11400  0.52300  1.0000
  P   P5        1.0  0.17700  0.38600  0.57200  1.0000
  P   P6        1.0  0.18700  0.32400  0.90500  1.0000
