data_image0
_chemical_formula_structural       Br12H12N4Sc4
_chemical_formula_sum              "Br12 H12 N4 Sc4"
_cell_length_a       7.46423
_cell_length_b       9.67128
_cell_length_c       9.62337
_cell_angle_alpha    72.5801
_cell_angle_beta     80.1437
_cell_angle_gamma    77.6783

_space_group_name_H-M_alt    "P 1"
_space_group_IT_number       1

loop_
  _space_group_symop_operation_xyz
  'x, y, z'

loop_
  _atom_site_type_symbol
  _atom_site_label
  _atom_site_symmetry_multiplicity
  _atom_site_fract_x
  _atom_site_fract_y
  _atom_site_fract_z
  _atom_site_occupancy
  Br  Br1       1.0  0.41300  0.32900  0.04950  1.0000
  Br  Br2       1.0  0.91500  0.30000  0.07820  1.0000
  Br  Br3       1.0  0.21500  0.93400  0.18000  1.0000
  Br  Br4       1.0  0.76900  0.57600  0.31700  1.0000
  Br  Br5       1.0  0.60100  0.20700  0.41600  1.0000
  Br  Br6       1.0  0.10100  0.16900  0.45900  1.0000
  Br  Br7       1.0  0.89900  0.83100  0.54100  1.0000
  Br  Br8       1.0  0.39900  0.79300  0.58400  1.0000
  Br  Br9       1.0  0.23100  0.42400  0.68300  1.0000
  Br  Br10      1.0  0.78500  0.06580  0.82000  1.0000
  Br  Br11      1.0  0.08540  0.70000  0.92200  1.0000
  Br  Br12      1.0  0.58700  0.67100  0.95100  1.0000
  H   H1        1.0  0.75200  0.99800  0.09710  1.0000
  H   H2        1.0  0.75800  0.85100  0.24100  1.0000
  H   H3        1.0  0.59800  0.99800  0.24200  1.0000
  H   H4        1.0  0.29700  0.65400  0.26000  1.0000
  H   H5        1.0  0.21700  0.50700  0.26100  1.0000
  H   H6        1.0  0.30900  0.50800  0.40500  1.0000
  H   H7        1.0  0.69100  0.49200  0.59500  1.0000
  H   H8        1.0  0.78300  0.49300  0.73900  1.0000
  H   H9        1.0  0.70300  0.34600  0.74000  1.0000
  H   H10       1.0  0.40200  0.00173  0.75800  1.0000
  H   H11       1.0  0.24200  0.14900  0.75900  1.0000
  H   H12       1.0  0.24800  0.00244  0.90300  1.0000
  N   N1        1.0  0.73500  0.96500  0.21000  1.0000
  N   N2        1.0  0.32300  0.54000  0.29100  1.0000
  N   N3        1.0  0.67700  0.46000  0.70900  1.0000
  N   N4        1.0  0.26500  0.03500  0.79000  1.0000
  Sc  Sc1       1.0  0.60500  0.44800  0.19200  1.0000
  Sc  Sc2       1.0  0.92400  0.06020  0.30400  1.0000
  Sc  Sc3       1.0  0.07580  0.94000  0.69600  1.0000
  Sc  Sc4       1.0  0.39500  0.55200  0.80800  1.0000
