data_image0
_chemical_formula_structural       Ag2C4Dy2H4O18S2
_chemical_formula_sum              "Ag2 C4 Dy2 H4 O18 S2"
_cell_length_a       6.82618
_cell_length_b       7.58458
_cell_length_c       8.93962
_cell_angle_alpha    113.264
_cell_angle_beta     90
_cell_angle_gamma    116.744

_space_group_name_H-M_alt    "P 1"
_space_group_IT_number       1

loop_
  _space_group_symop_operation_xyz
  'x, y, z'

loop_
  _atom_site_type_symbol
  _atom_site_label
  _atom_site_symmetry_multiplicity
  _atom_site_fract_x
  _atom_site_fract_y
  _atom_site_fract_z
  _atom_site_occupancy
  Ag  Ag1       1.0  0.91700  0.83400  0.33200  1.0000
  Ag  Ag2       1.0  0.08320  0.16600  0.66800  1.0000
  C   C1        1.0  0.98300  0.96600  0.07060  1.0000
  C   C2        1.0  0.39000  0.00000  0.50000  1.0000
  C   C3        1.0  0.61000  0.00000  0.50000  1.0000
  C   C4        1.0  0.01720  0.03440  0.92900  1.0000
  Dy  Dy1       1.0  0.24400  0.48900  0.26100  1.0000
  Dy  Dy2       1.0  0.75600  0.51100  0.73900  1.0000
  H   H1        1.0  0.69200  0.38400  0.01800  1.0000
  H   H2        1.0  0.42100  0.84100  0.14800  1.0000
  H   H3        1.0  0.57900  0.15900  0.85200  1.0000
  H   H4        1.0  0.30800  0.61600  0.98200  1.0000
  O   O1        1.0  0.88100  0.76100  0.03020  1.0000
  O   O2        1.0  0.33900  0.67800  0.10300  1.0000
  O   O3        1.0  0.52100  0.39100  0.21500  1.0000
  O   O4        1.0  0.87000  0.39100  0.21500  1.0000
  O   O5        1.0  0.05800  0.11600  0.21900  1.0000
  O   O6        1.0  0.55300  0.10600  0.25700  1.0000
  O   O7        1.0  0.21600  0.81800  0.41200  1.0000
  O   O8        1.0  0.60200  0.81800  0.41200  1.0000
  O   O9        1.0  0.74200  0.48300  0.47500  1.0000
  O   O10       1.0  0.25800  0.51700  0.52500  1.0000
  O   O11       1.0  0.39800  0.18200  0.58800  1.0000
  O   O12       1.0  0.78400  0.18200  0.58800  1.0000
  O   O13       1.0  0.44700  0.89400  0.74300  1.0000
  O   O14       1.0  0.94200  0.88400  0.78100  1.0000
  O   O15       1.0  0.13000  0.60900  0.78500  1.0000
  O   O16       1.0  0.47900  0.60900  0.78500  1.0000
  O   O17       1.0  0.66100  0.32200  0.89700  1.0000
  O   O18       1.0  0.11900  0.23900  0.97000  1.0000
  S   S1        1.0  0.66900  0.33800  0.29300  1.0000
  S   S2        1.0  0.33100  0.66200  0.70700  1.0000
