data_image0
_chemical_formula_structural       Rb12Sb4Se16
_chemical_formula_sum              "Rb12 Sb4 Se16"
_cell_length_a       9.98798
_cell_length_b       11.5997
_cell_length_c       10.4935
_cell_angle_alpha    90
_cell_angle_beta     90
_cell_angle_gamma    90

_space_group_name_H-M_alt    "P 1"
_space_group_IT_number       1

loop_
  _space_group_symop_operation_xyz
  'x, y, z'

loop_
  _atom_site_type_symbol
  _atom_site_label
  _atom_site_symmetry_multiplicity
  _atom_site_fract_x
  _atom_site_fract_y
  _atom_site_fract_z
  _atom_site_occupancy
  Rb  Rb1       1.0  0.86100  0.75000  0.08050  1.0000
  Rb  Rb2       1.0  0.43400  0.04560  0.19700  1.0000
  Rb  Rb3       1.0  0.43400  0.45400  0.19700  1.0000
  Rb  Rb4       1.0  0.93400  0.04560  0.30300  1.0000
  Rb  Rb5       1.0  0.93400  0.45400  0.30300  1.0000
  Rb  Rb6       1.0  0.36100  0.75000  0.42000  1.0000
  Rb  Rb7       1.0  0.63900  0.25000  0.58000  1.0000
  Rb  Rb8       1.0  0.06560  0.54600  0.69700  1.0000
  Rb  Rb9       1.0  0.06560  0.95400  0.69700  1.0000
  Rb  Rb10      1.0  0.56600  0.54600  0.80300  1.0000
  Rb  Rb11      1.0  0.56600  0.95400  0.80300  1.0000
  Rb  Rb12      1.0  0.13900  0.25000  0.92000  1.0000
  Sb  Sb1       1.0  0.72600  0.25000  0.02050  1.0000
  Sb  Sb2       1.0  0.22600  0.25000  0.47900  1.0000
  Sb  Sb3       1.0  0.77400  0.75000  0.52100  1.0000
  Sb  Sb4       1.0  0.27400  0.75000  0.97900  1.0000
  Se  Se1       1.0  0.14400  0.57000  0.03090  1.0000
  Se  Se2       1.0  0.14400  0.93000  0.03090  1.0000
  Se  Se3       1.0  0.49500  0.75000  0.09710  1.0000
  Se  Se4       1.0  0.18000  0.25000  0.24400  1.0000
  Se  Se5       1.0  0.68000  0.25000  0.25600  1.0000
  Se  Se6       1.0  0.99500  0.75000  0.40300  1.0000
  Se  Se7       1.0  0.64400  0.57000  0.46900  1.0000
  Se  Se8       1.0  0.64400  0.93000  0.46900  1.0000
  Se  Se9       1.0  0.35600  0.06970  0.53100  1.0000
  Se  Se10      1.0  0.35600  0.43000  0.53100  1.0000
  Se  Se11      1.0  0.00491  0.25000  0.59700  1.0000
  Se  Se12      1.0  0.32000  0.75000  0.74400  1.0000
  Se  Se13      1.0  0.82000  0.75000  0.75600  1.0000
  Se  Se14      1.0  0.50500  0.25000  0.90300  1.0000
  Se  Se15      1.0  0.85600  0.06970  0.96900  1.0000
  Se  Se16      1.0  0.85600  0.43000  0.96900  1.0000
