data_image0
_chemical_formula_structural       As2C2F18H6N2O2
_chemical_formula_sum              "As2 C2 F18 H6 N2 O2"
_cell_length_a       4.72847
_cell_length_b       7.82988
_cell_length_c       8.08912
_cell_angle_alpha    89.4059
_cell_angle_beta     95.1658
_cell_angle_gamma    102.319

_space_group_name_H-M_alt    "P 1"
_space_group_IT_number       1

loop_
  _space_group_symop_operation_xyz
  'x, y, z'

loop_
  _atom_site_type_symbol
  _atom_site_label
  _atom_site_symmetry_multiplicity
  _atom_site_fract_x
  _atom_site_fract_y
  _atom_site_fract_z
  _atom_site_occupancy
  As  As1       1.0  0.03960  0.24800  0.34300  1.0000
  As  As2       1.0  0.96000  0.75200  0.65700  1.0000
  C   C1        1.0  0.31000  0.77600  0.11500  1.0000
  C   C2        1.0  0.69000  0.22400  0.88500  1.0000
  F   F1        1.0  0.48900  0.83500  0.00054  1.0000
  F   F2        1.0  0.14800  0.62000  0.07290  1.0000
  F   F3        1.0  0.14800  0.89100  0.14100  1.0000
  F   F4        1.0  0.19300  0.29000  0.15600  1.0000
  F   F5        1.0  0.81500  0.05250  0.26200  1.0000
  F   F6        1.0  0.75800  0.35400  0.27400  1.0000
  F   F7        1.0  0.31000  0.13700  0.41700  1.0000
  F   F8        1.0  0.25100  0.45100  0.42300  1.0000
  F   F9        1.0  0.10900  0.79200  0.46500  1.0000
  F   F10       1.0  0.89100  0.20800  0.53500  1.0000
  F   F11       1.0  0.74900  0.54900  0.57700  1.0000
  F   F12       1.0  0.69000  0.86300  0.58300  1.0000
  F   F13       1.0  0.24200  0.64600  0.72600  1.0000
  F   F14       1.0  0.18500  0.94800  0.73800  1.0000
  F   F15       1.0  0.80700  0.71000  0.84400  1.0000
  F   F16       1.0  0.85200  0.10900  0.85900  1.0000
  F   F17       1.0  0.85200  0.38000  0.92700  1.0000
  F   F18       1.0  0.51100  0.16500  0.99900  1.0000
  H   H1        1.0  0.61000  0.53100  0.27300  1.0000
  H   H2        1.0  0.61000  0.87100  0.31600  1.0000
  H   H3        1.0  0.35100  0.69300  0.36000  1.0000
  H   H4        1.0  0.64900  0.30700  0.64000  1.0000
  H   H5        1.0  0.39000  0.12900  0.68400  1.0000
  H   H6        1.0  0.39000  0.46900  0.72700  1.0000
  N   N1        1.0  0.48700  0.75100  0.27100  1.0000
  N   N2        1.0  0.51300  0.24900  0.72900  1.0000
  O   O1        1.0  0.68100  0.65000  0.23100  1.0000
  O   O2        1.0  0.31900  0.35000  0.76900  1.0000
