data_image0
_chemical_formula_structural       K4O20Te4V4
_chemical_formula_sum              "K4 O20 Te4 V4"
_cell_length_a       6.31492
_cell_length_b       11.3167
_cell_length_c       6.81752
_cell_angle_alpha    90
_cell_angle_beta     104.663
_cell_angle_gamma    90

_space_group_name_H-M_alt    "P 1"
_space_group_IT_number       1

loop_
  _space_group_symop_operation_xyz
  'x, y, z'

loop_
  _atom_site_type_symbol
  _atom_site_label
  _atom_site_symmetry_multiplicity
  _atom_site_fract_x
  _atom_site_fract_y
  _atom_site_fract_z
  _atom_site_occupancy
  K   K1        1.0  0.18100  0.68800  0.16200  1.0000
  K   K2        1.0  0.81900  0.18800  0.33800  1.0000
  K   K3        1.0  0.18100  0.81200  0.66200  1.0000
  K   K4        1.0  0.81900  0.31200  0.83800  1.0000
  O   O1        1.0  0.11700  0.90800  0.00666  1.0000
  O   O2        1.0  0.52300  0.29000  0.04460  1.0000
  O   O3        1.0  0.81300  0.54500  0.13500  1.0000
  O   O4        1.0  0.15500  0.29600  0.18200  1.0000
  O   O5        1.0  0.54300  0.98500  0.21100  1.0000
  O   O6        1.0  0.45700  0.48500  0.28900  1.0000
  O   O7        1.0  0.84500  0.79600  0.31800  1.0000
  O   O8        1.0  0.18700  0.04460  0.36500  1.0000
  O   O9        1.0  0.47700  0.79000  0.45500  1.0000
  O   O10       1.0  0.88300  0.40800  0.49300  1.0000
  O   O11       1.0  0.11700  0.59200  0.50700  1.0000
  O   O12       1.0  0.52300  0.21000  0.54500  1.0000
  O   O13       1.0  0.81300  0.95500  0.63500  1.0000
  O   O14       1.0  0.15500  0.20400  0.68200  1.0000
  O   O15       1.0  0.54300  0.51500  0.71100  1.0000
  O   O16       1.0  0.45700  0.01470  0.78900  1.0000
  O   O17       1.0  0.84500  0.70400  0.81800  1.0000
  O   O18       1.0  0.18700  0.45500  0.86500  1.0000
  O   O19       1.0  0.47700  0.71000  0.95500  1.0000
  O   O20       1.0  0.88300  0.09200  0.99300  1.0000
  Te  Te1       1.0  0.23400  0.06090  0.09360  1.0000
  Te  Te2       1.0  0.76600  0.56100  0.40600  1.0000
  Te  Te3       1.0  0.23400  0.43900  0.59400  1.0000
  Te  Te4       1.0  0.76600  0.93900  0.90600  1.0000
  V   V1        1.0  0.33700  0.37900  0.09810  1.0000
  V   V2        1.0  0.66300  0.87900  0.40200  1.0000
  V   V3        1.0  0.33700  0.12100  0.59800  1.0000
  V   V4        1.0  0.66300  0.62100  0.90200  1.0000
