data_image0
_chemical_formula_structural       CrH18I7N6
_chemical_formula_sum              "Cr1 H18 I7 N6"
_cell_length_a       7.83214
_cell_length_b       8.73862
_cell_length_c       9.4283
_cell_angle_alpha    93.5063
_cell_angle_beta     114.542
_cell_angle_gamma    116.624

_space_group_name_H-M_alt    "P 1"
_space_group_IT_number       1

loop_
  _space_group_symop_operation_xyz
  'x, y, z'

loop_
  _atom_site_type_symbol
  _atom_site_label
  _atom_site_symmetry_multiplicity
  _atom_site_fract_x
  _atom_site_fract_y
  _atom_site_fract_z
  _atom_site_occupancy
  Cr  Cr1       1.0  1.00000  0.50000  0.50000  1.0000
  H   H1        1.0  0.64500  0.38500  0.20300  1.0000
  H   H2        1.0  0.94400  0.38500  0.20300  1.0000
  H   H3        1.0  0.01990  0.72100  0.31900  1.0000
  H   H4        1.0  0.05660  0.29100  0.32600  1.0000
  H   H5        1.0  0.56100  0.29100  0.32600  1.0000
  H   H6        1.0  0.20700  0.50200  0.33800  1.0000
  H   H7        1.0  0.63300  0.50200  0.33800  1.0000
  H   H8        1.0  0.05080  0.82300  0.48800  1.0000
  H   H9        1.0  0.26000  0.82300  0.48800  1.0000
  H   H10       1.0  0.74000  0.17700  0.51200  1.0000
  H   H11       1.0  0.94900  0.17700  0.51200  1.0000
  H   H12       1.0  0.36700  0.49800  0.66200  1.0000
  H   H13       1.0  0.79300  0.49800  0.66200  1.0000
  H   H14       1.0  0.43900  0.70900  0.67400  1.0000
  H   H15       1.0  0.94300  0.70900  0.67400  1.0000
  H   H16       1.0  0.98000  0.27900  0.68100  1.0000
  H   H17       1.0  0.05640  0.61500  0.79700  1.0000
  H   H18       1.0  0.35500  0.61500  0.79700  1.0000
  I   I1        1.0  0.00000  0.00000  0.00000  1.0000
  I   I2        1.0  0.81600  0.62700  0.00473  1.0000
  I   I3        1.0  0.52700  0.92300  0.13100  1.0000
  I   I4        1.0  0.61900  0.78100  0.45700  1.0000
  I   I5        1.0  0.38100  0.21900  0.54300  1.0000
  I   I6        1.0  0.47300  0.07730  0.86900  1.0000
  I   I7        1.0  0.18400  0.37300  0.99500  1.0000
  N   N1        1.0  0.05460  0.40800  0.32200  1.0000
  N   N2        1.0  0.67600  0.40800  0.32200  1.0000
  N   N3        1.0  0.09340  0.74300  0.44400  1.0000
  N   N4        1.0  0.90700  0.25700  0.55600  1.0000
  N   N5        1.0  0.32400  0.59200  0.67800  1.0000
  N   N6        1.0  0.94500  0.59200  0.67800  1.0000
