data_image0
_chemical_formula_structural       Au4Bi4Cl24
_chemical_formula_sum              "Au4 Bi4 Cl24"
_cell_length_a       7.12703
_cell_length_b       10.1652
_cell_length_c       13.9562
_cell_angle_alpha    104.988
_cell_angle_beta     95.0868
_cell_angle_gamma    110.356

_space_group_name_H-M_alt    "P 1"
_space_group_IT_number       1

loop_
  _space_group_symop_operation_xyz
  'x, y, z'

loop_
  _atom_site_type_symbol
  _atom_site_label
  _atom_site_symmetry_multiplicity
  _atom_site_fract_x
  _atom_site_fract_y
  _atom_site_fract_z
  _atom_site_occupancy
  Au  Au1       1.0  0.00000  0.00000  0.00000  1.0000
  Au  Au2       1.0  0.70300  0.36900  0.23500  1.0000
  Au  Au3       1.0  0.50000  0.50000  0.50000  1.0000
  Au  Au4       1.0  0.29700  0.63100  0.76500  1.0000
  Bi  Bi1       1.0  0.02810  0.68700  0.12900  1.0000
  Bi  Bi2       1.0  0.40600  0.07150  0.37900  1.0000
  Bi  Bi3       1.0  0.59400  0.92800  0.62100  1.0000
  Bi  Bi4       1.0  0.97200  0.31300  0.87100  1.0000
  Cl  Cl1       1.0  0.26100  0.56600  0.02210  1.0000
  Cl  Cl2       1.0  0.75100  0.79900  0.02560  1.0000
  Cl  Cl3       1.0  0.24100  0.90400  0.03390  1.0000
  Cl  Cl4       1.0  0.04120  0.46700  0.21900  1.0000
  Cl  Cl5       1.0  0.67100  0.58400  0.22300  1.0000
  Cl  Cl6       1.0  0.36700  0.27000  0.25000  1.0000
  Cl  Cl7       1.0  0.74100  0.15800  0.25100  1.0000
  Cl  Cl8       1.0  0.40200  0.81400  0.26000  1.0000
  Cl  Cl9       1.0  0.02260  0.94400  0.27500  1.0000
  Cl  Cl10      1.0  0.75100  0.04890  0.48600  1.0000
  Cl  Cl11      1.0  0.22900  0.28300  0.48700  1.0000
  Cl  Cl12      1.0  0.28100  0.62200  0.49600  1.0000
  Cl  Cl13      1.0  0.71900  0.37800  0.50400  1.0000
  Cl  Cl14      1.0  0.77100  0.71700  0.51300  1.0000
  Cl  Cl15      1.0  0.24900  0.95100  0.51400  1.0000
  Cl  Cl16      1.0  0.97700  0.05570  0.72500  1.0000
  Cl  Cl17      1.0  0.59800  0.18600  0.74000  1.0000
  Cl  Cl18      1.0  0.25900  0.84200  0.74900  1.0000
  Cl  Cl19      1.0  0.63300  0.73000  0.75000  1.0000
  Cl  Cl20      1.0  0.32900  0.41600  0.77700  1.0000
  Cl  Cl21      1.0  0.95900  0.53300  0.78100  1.0000
  Cl  Cl22      1.0  0.75900  0.09570  0.96600  1.0000
  Cl  Cl23      1.0  0.24900  0.20100  0.97400  1.0000
  Cl  Cl24      1.0  0.73900  0.43400  0.97800  1.0000
