data_image0
_chemical_formula_structural       H14N4O10P2V2
_chemical_formula_sum              "H14 N4 O10 P2 V2"
_cell_length_a       6.6567
_cell_length_b       4.83177
_cell_length_c       8.27654
_cell_angle_alpha    90
_cell_angle_beta     90.1311
_cell_angle_gamma    90

_space_group_name_H-M_alt    "P 1"
_space_group_IT_number       1

loop_
  _space_group_symop_operation_xyz
  'x, y, z'

loop_
  _atom_site_type_symbol
  _atom_site_label
  _atom_site_symmetry_multiplicity
  _atom_site_fract_x
  _atom_site_fract_y
  _atom_site_fract_z
  _atom_site_occupancy
  H   H1        1.0  0.70000  0.75700  0.05190  1.0000
  H   H2        1.0  0.95200  0.72000  0.06590  1.0000
  H   H3        1.0  0.17500  0.04450  0.08110  1.0000
  H   H4        1.0  0.15100  0.39000  0.09380  1.0000
  H   H5        1.0  0.93200  0.78400  0.34900  1.0000
  H   H6        1.0  0.07520  0.42300  0.46900  1.0000
  H   H7        1.0  0.76100  0.68100  0.48600  1.0000
  H   H8        1.0  0.23900  0.18100  0.51400  1.0000
  H   H9        1.0  0.92500  0.92300  0.53100  1.0000
  H   H10       1.0  0.06780  0.28400  0.65100  1.0000
  H   H11       1.0  0.84900  0.89000  0.90600  1.0000
  H   H12       1.0  0.82500  0.54400  0.91900  1.0000
  H   H13       1.0  0.04800  0.22000  0.93400  1.0000
  H   H14       1.0  0.30000  0.25700  0.94800  1.0000
  N   N1        1.0  0.16800  0.22700  0.01390  1.0000
  N   N2        1.0  0.83600  0.84900  0.44000  1.0000
  N   N3        1.0  0.16400  0.34900  0.56000  1.0000
  N   N4        1.0  0.83200  0.72700  0.98600  1.0000
  O   O1        1.0  0.52800  0.88100  0.18000  1.0000
  O   O2        1.0  0.15700  0.75000  0.20000  1.0000
  O   O3        1.0  0.83100  0.30500  0.24600  1.0000
  O   O4        1.0  0.41400  0.40000  0.27400  1.0000
  O   O5        1.0  0.38100  0.84400  0.44600  1.0000
  O   O6        1.0  0.61900  0.34400  0.55400  1.0000
  O   O7        1.0  0.58600  0.90000  0.72600  1.0000
  O   O8        1.0  0.16900  0.80500  0.75400  1.0000
  O   O9        1.0  0.84300  0.25000  0.80000  1.0000
  O   O10       1.0  0.47200  0.38100  0.82000  1.0000
  P   P1        1.0  0.36600  0.71000  0.27200  1.0000
  P   P2        1.0  0.63400  0.21000  0.72800  1.0000
  V   V1        1.0  0.64200  0.15800  0.33900  1.0000
  V   V2        1.0  0.35800  0.65800  0.66100  1.0000
