data_image0
_chemical_formula_structural       Np12S20
_chemical_formula_sum              "Np12 S20"
_cell_length_a       11.456
_cell_length_b       7.87197
_cell_length_c       7.27389
_cell_angle_alpha    90
_cell_angle_beta     90
_cell_angle_gamma    90

_space_group_name_H-M_alt    "P 1"
_space_group_IT_number       1

loop_
  _space_group_symop_operation_xyz
  'x, y, z'

loop_
  _atom_site_type_symbol
  _atom_site_label
  _atom_site_symmetry_multiplicity
  _atom_site_fract_x
  _atom_site_fract_y
  _atom_site_fract_z
  _atom_site_occupancy
  Np  Np1       1.0  0.32100  0.50300  0.02230  1.0000
  Np  Np2       1.0  0.32100  0.99700  0.02230  1.0000
  Np  Np3       1.0  0.00881  0.25000  0.07720  1.0000
  Np  Np4       1.0  0.50900  0.25000  0.42300  1.0000
  Np  Np5       1.0  0.82100  0.50300  0.47800  1.0000
  Np  Np6       1.0  0.82100  0.99700  0.47800  1.0000
  Np  Np7       1.0  0.17900  0.00336  0.52200  1.0000
  Np  Np8       1.0  0.17900  0.49700  0.52200  1.0000
  Np  Np9       1.0  0.49100  0.75000  0.57700  1.0000
  Np  Np10      1.0  0.99100  0.75000  0.92300  1.0000
  Np  Np11      1.0  0.67900  0.00336  0.97800  1.0000
  Np  Np12      1.0  0.67900  0.49700  0.97800  1.0000
  S   S1        1.0  0.49900  0.25000  0.03680  1.0000
  S   S2        1.0  0.09600  0.54800  0.16900  1.0000
  S   S3        1.0  0.09600  0.95200  0.16900  1.0000
  S   S4        1.0  0.81000  0.75000  0.17000  1.0000
  S   S5        1.0  0.78100  0.25000  0.20100  1.0000
  S   S6        1.0  0.28100  0.25000  0.29900  1.0000
  S   S7        1.0  0.31000  0.75000  0.33000  1.0000
  S   S8        1.0  0.59600  0.54800  0.33100  1.0000
  S   S9        1.0  0.59600  0.95200  0.33100  1.0000
  S   S10       1.0  0.99900  0.25000  0.46300  1.0000
  S   S11       1.0  0.00093  0.75000  0.53700  1.0000
  S   S12       1.0  0.40400  0.04760  0.66900  1.0000
  S   S13       1.0  0.40400  0.45200  0.66900  1.0000
  S   S14       1.0  0.69000  0.25000  0.67000  1.0000
  S   S15       1.0  0.71900  0.75000  0.70100  1.0000
  S   S16       1.0  0.21900  0.75000  0.79900  1.0000
  S   S17       1.0  0.19000  0.25000  0.83000  1.0000
  S   S18       1.0  0.90400  0.04760  0.83100  1.0000
  S   S19       1.0  0.90400  0.45200  0.83100  1.0000
  S   S20       1.0  0.50100  0.75000  0.96300  1.0000
