data_image0
_chemical_formula_structural       P4S16Tl12
_chemical_formula_sum              "P4 S16 Tl12"
_cell_length_a       8.95996
_cell_length_b       11.0025
_cell_length_c       9.16211
_cell_angle_alpha    90
_cell_angle_beta     90
_cell_angle_gamma    90

_space_group_name_H-M_alt    "P 1"
_space_group_IT_number       1

loop_
  _space_group_symop_operation_xyz
  'x, y, z'

loop_
  _atom_site_type_symbol
  _atom_site_label
  _atom_site_symmetry_multiplicity
  _atom_site_fract_x
  _atom_site_fract_y
  _atom_site_fract_z
  _atom_site_occupancy
  P   P1        1.0  0.27500  0.25000  0.02660  1.0000
  P   P2        1.0  0.77500  0.25000  0.47300  1.0000
  P   P3        1.0  0.22500  0.75000  0.52700  1.0000
  P   P4        1.0  0.72500  0.75000  0.97300  1.0000
  S   S1        1.0  0.84000  0.59600  0.03370  1.0000
  S   S2        1.0  0.84000  0.90400  0.03370  1.0000
  S   S3        1.0  0.51400  0.75000  0.06160  1.0000
  S   S4        1.0  0.79900  0.25000  0.24700  1.0000
  S   S5        1.0  0.29900  0.25000  0.25300  1.0000
  S   S6        1.0  0.01380  0.75000  0.43800  1.0000
  S   S7        1.0  0.34000  0.59600  0.46600  1.0000
  S   S8        1.0  0.34000  0.90400  0.46600  1.0000
  S   S9        1.0  0.66000  0.09640  0.53400  1.0000
  S   S10       1.0  0.66000  0.40400  0.53400  1.0000
  S   S11       1.0  0.98600  0.25000  0.56200  1.0000
  S   S12       1.0  0.70100  0.75000  0.74700  1.0000
  S   S13       1.0  0.20100  0.75000  0.75300  1.0000
  S   S14       1.0  0.48600  0.25000  0.93800  1.0000
  S   S15       1.0  0.16000  0.09640  0.96600  1.0000
  S   S16       1.0  0.16000  0.40400  0.96600  1.0000
  Tl  Tl1       1.0  0.11100  0.75000  0.11000  1.0000
  Tl  Tl2       1.0  0.56000  0.05240  0.19800  1.0000
  Tl  Tl3       1.0  0.56000  0.44800  0.19800  1.0000
  Tl  Tl4       1.0  0.05950  0.05240  0.30200  1.0000
  Tl  Tl5       1.0  0.05950  0.44800  0.30200  1.0000
  Tl  Tl6       1.0  0.61100  0.75000  0.39000  1.0000
  Tl  Tl7       1.0  0.38900  0.25000  0.61000  1.0000
  Tl  Tl8       1.0  0.94000  0.55200  0.69800  1.0000
  Tl  Tl9       1.0  0.94000  0.94800  0.69800  1.0000
  Tl  Tl10      1.0  0.44000  0.55200  0.80200  1.0000
  Tl  Tl11      1.0  0.44000  0.94800  0.80200  1.0000
  Tl  Tl12      1.0  0.88900  0.25000  0.89000  1.0000
