data_image0
_chemical_formula_structural       Co4Li2O20P6
_chemical_formula_sum              "Co4 Li2 O20 P6"
_cell_length_a       4.59841
_cell_length_b       8.42637
_cell_length_c       8.9822
_cell_angle_alpha    90
_cell_angle_beta     97.3903
_cell_angle_gamma    90

_space_group_name_H-M_alt    "P 1"
_space_group_IT_number       1

loop_
  _space_group_symop_operation_xyz
  'x, y, z'

loop_
  _atom_site_type_symbol
  _atom_site_label
  _atom_site_symmetry_multiplicity
  _atom_site_fract_x
  _atom_site_fract_y
  _atom_site_fract_z
  _atom_site_occupancy
  Co  Co1       1.0  0.03790  0.06520  0.33400  1.0000
  Co  Co2       1.0  0.03790  0.43500  0.33400  1.0000
  Co  Co3       1.0  0.96200  0.56500  0.66600  1.0000
  Co  Co4       1.0  0.96200  0.93500  0.66600  1.0000
  Li  Li1       1.0  0.00000  0.00000  0.00000  1.0000
  Li  Li2       1.0  0.00000  0.50000  0.00000  1.0000
  O   O1        1.0  0.43600  0.75000  0.02470  1.0000
  O   O2        1.0  0.28700  0.09870  0.15700  1.0000
  O   O3        1.0  0.28700  0.40100  0.15700  1.0000
  O   O4        1.0  0.83800  0.59800  0.18300  1.0000
  O   O5        1.0  0.83800  0.90200  0.18300  1.0000
  O   O6        1.0  0.76400  0.25000  0.24000  1.0000
  O   O7        1.0  0.43300  0.75000  0.29000  1.0000
  O   O8        1.0  0.29600  0.25000  0.44500  1.0000
  O   O9        1.0  0.22600  0.59800  0.48700  1.0000
  O   O10       1.0  0.22600  0.90200  0.48700  1.0000
  O   O11       1.0  0.77400  0.09760  0.51300  1.0000
  O   O12       1.0  0.77400  0.40200  0.51300  1.0000
  O   O13       1.0  0.70400  0.75000  0.55500  1.0000
  O   O14       1.0  0.56700  0.25000  0.71000  1.0000
  O   O15       1.0  0.23600  0.75000  0.76000  1.0000
  O   O16       1.0  0.16200  0.09810  0.81700  1.0000
  O   O17       1.0  0.16200  0.40200  0.81700  1.0000
  O   O18       1.0  0.71300  0.59900  0.84300  1.0000
  O   O19       1.0  0.71300  0.90100  0.84300  1.0000
  O   O20       1.0  0.56400  0.25000  0.97500  1.0000
  P   P1        1.0  0.46400  0.25000  0.14400  1.0000
  P   P2        1.0  0.66500  0.75000  0.17600  1.0000
  P   P3        1.0  0.39800  0.75000  0.46600  1.0000
  P   P4        1.0  0.60200  0.25000  0.53400  1.0000
  P   P5        1.0  0.33500  0.25000  0.82400  1.0000
  P   P6        1.0  0.53600  0.75000  0.85600  1.0000
