data_image0
_chemical_formula_structural       Ho20Pd4Sb8
_chemical_formula_sum              "Ho20 Pd4 Sb8"
_cell_length_a       12.1094
_cell_length_b       8.93146
_cell_length_c       7.92901
_cell_angle_alpha    90
_cell_angle_beta     90
_cell_angle_gamma    90

_space_group_name_H-M_alt    "P 1"
_space_group_IT_number       1

loop_
  _space_group_symop_operation_xyz
  'x, y, z'

loop_
  _atom_site_type_symbol
  _atom_site_label
  _atom_site_symmetry_multiplicity
  _atom_site_fract_x
  _atom_site_fract_y
  _atom_site_fract_z
  _atom_site_occupancy
  Ho  Ho1       1.0  0.49900  0.75000  0.04020  1.0000
  Ho  Ho2       1.0  0.80000  0.25000  0.13600  1.0000
  Ho  Ho3       1.0  0.78500  0.75000  0.16700  1.0000
  Ho  Ho4       1.0  0.06870  0.04730  0.18200  1.0000
  Ho  Ho5       1.0  0.06870  0.45300  0.18200  1.0000
  Ho  Ho6       1.0  0.56900  0.04730  0.31800  1.0000
  Ho  Ho7       1.0  0.56900  0.45300  0.31800  1.0000
  Ho  Ho8       1.0  0.28500  0.75000  0.33300  1.0000
  Ho  Ho9       1.0  0.30000  0.25000  0.36400  1.0000
  Ho  Ho10      1.0  0.99900  0.75000  0.46000  1.0000
  Ho  Ho11      1.0  0.00088  0.25000  0.54000  1.0000
  Ho  Ho12      1.0  0.70000  0.75000  0.63600  1.0000
  Ho  Ho13      1.0  0.71500  0.25000  0.66700  1.0000
  Ho  Ho14      1.0  0.43100  0.54700  0.68200  1.0000
  Ho  Ho15      1.0  0.43100  0.95300  0.68200  1.0000
  Ho  Ho16      1.0  0.93100  0.54700  0.81800  1.0000
  Ho  Ho17      1.0  0.93100  0.95300  0.81800  1.0000
  Ho  Ho18      1.0  0.21500  0.25000  0.83300  1.0000
  Ho  Ho19      1.0  0.20000  0.75000  0.86400  1.0000
  Ho  Ho20      1.0  0.50100  0.25000  0.96000  1.0000
  Pd  Pd1       1.0  0.01520  0.75000  0.08350  1.0000
  Pd  Pd2       1.0  0.51500  0.75000  0.41600  1.0000
  Pd  Pd3       1.0  0.48500  0.25000  0.58400  1.0000
  Pd  Pd4       1.0  0.98500  0.25000  0.91600  1.0000
  Sb  Sb1       1.0  0.32700  0.00821  0.06600  1.0000
  Sb  Sb2       1.0  0.32700  0.49200  0.06600  1.0000
  Sb  Sb3       1.0  0.82700  0.00821  0.43400  1.0000
  Sb  Sb4       1.0  0.82700  0.49200  0.43400  1.0000
  Sb  Sb5       1.0  0.17300  0.50800  0.56600  1.0000
  Sb  Sb6       1.0  0.17300  0.99200  0.56600  1.0000
  Sb  Sb7       1.0  0.67300  0.50800  0.93400  1.0000
  Sb  Sb8       1.0  0.67300  0.99200  0.93400  1.0000
