data_image0
_chemical_formula_structural       Nd6O16Se4Ti6
_chemical_formula_sum              "Nd6 O16 Se4 Ti6"
_cell_length_a       9.78671
_cell_length_b       3.94413
_cell_length_c       13.456
_cell_angle_alpha    90
_cell_angle_beta     111.177
_cell_angle_gamma    90

_space_group_name_H-M_alt    "P 1"
_space_group_IT_number       1

loop_
  _space_group_symop_operation_xyz
  'x, y, z'

loop_
  _atom_site_type_symbol
  _atom_site_label
  _atom_site_symmetry_multiplicity
  _atom_site_fract_x
  _atom_site_fract_y
  _atom_site_fract_z
  _atom_site_occupancy
  Nd  Nd1       1.0  0.40900  0.75000  0.08610  1.0000
  Nd  Nd2       1.0  0.94600  0.25000  0.33800  1.0000
  Nd  Nd3       1.0  0.58600  0.75000  0.41600  1.0000
  Nd  Nd4       1.0  0.41400  0.25000  0.58400  1.0000
  Nd  Nd5       1.0  0.05400  0.75000  0.66200  1.0000
  Nd  Nd6       1.0  0.59100  0.25000  0.91400  1.0000
  O   O1        1.0  0.61300  0.75000  0.02990  1.0000
  O   O2        1.0  0.01140  0.75000  0.07180  1.0000
  O   O3        1.0  0.82400  0.25000  0.07400  1.0000
  O   O4        1.0  0.24800  0.25000  0.10700  1.0000
  O   O5        1.0  0.87700  0.75000  0.24300  1.0000
  O   O6        1.0  0.12100  0.25000  0.24800  1.0000
  O   O7        1.0  0.35600  0.75000  0.26300  1.0000
  O   O8        1.0  0.44200  0.25000  0.41500  1.0000
  O   O9        1.0  0.55800  0.75000  0.58500  1.0000
  O   O10       1.0  0.64400  0.25000  0.73700  1.0000
  O   O11       1.0  0.87900  0.75000  0.75200  1.0000
  O   O12       1.0  0.12300  0.25000  0.75700  1.0000
  O   O13       1.0  0.75200  0.75000  0.89300  1.0000
  O   O14       1.0  0.17600  0.75000  0.92600  1.0000
  O   O15       1.0  0.98900  0.25000  0.92800  1.0000
  O   O16       1.0  0.38700  0.25000  0.97000  1.0000
  Se  Se1       1.0  0.60700  0.25000  0.24600  1.0000
  Se  Se2       1.0  0.16300  0.75000  0.48000  1.0000
  Se  Se3       1.0  0.83700  0.25000  0.52000  1.0000
  Se  Se4       1.0  0.39300  0.75000  0.75400  1.0000
  Ti  Ti1       1.0  0.04110  0.25000  0.09340  1.0000
  Ti  Ti2       1.0  0.81900  0.75000  0.09910  1.0000
  Ti  Ti3       1.0  0.32000  0.25000  0.26700  1.0000
  Ti  Ti4       1.0  0.68000  0.75000  0.73300  1.0000
  Ti  Ti5       1.0  0.18100  0.25000  0.90100  1.0000
  Ti  Ti6       1.0  0.95900  0.75000  0.90700  1.0000
