data_image0
_chemical_formula_structural       Hf20Sb12
_chemical_formula_sum              "Hf20 Sb12"
_cell_length_a       7.44172
_cell_length_b       8.80952
_cell_length_c       10.7694
_cell_angle_alpha    90
_cell_angle_beta     90
_cell_angle_gamma    90

_space_group_name_H-M_alt    "P 1"
_space_group_IT_number       1

loop_
  _space_group_symop_operation_xyz
  'x, y, z'

loop_
  _atom_site_type_symbol
  _atom_site_label
  _atom_site_symmetry_multiplicity
  _atom_site_fract_x
  _atom_site_fract_y
  _atom_site_fract_z
  _atom_site_occupancy
  Hf  Hf1       1.0  0.97300  0.25000  0.01030  1.0000
  Hf  Hf2       1.0  0.69800  0.55800  0.05930  1.0000
  Hf  Hf3       1.0  0.69800  0.94200  0.05930  1.0000
  Hf  Hf4       1.0  0.35800  0.75000  0.21600  1.0000
  Hf  Hf5       1.0  0.30500  0.25000  0.22300  1.0000
  Hf  Hf6       1.0  0.80500  0.25000  0.27700  1.0000
  Hf  Hf7       1.0  0.85800  0.75000  0.28400  1.0000
  Hf  Hf8       1.0  0.19800  0.55800  0.44100  1.0000
  Hf  Hf9       1.0  0.19800  0.94200  0.44100  1.0000
  Hf  Hf10      1.0  0.47300  0.25000  0.49000  1.0000
  Hf  Hf11      1.0  0.52700  0.75000  0.51000  1.0000
  Hf  Hf12      1.0  0.80200  0.05770  0.55900  1.0000
  Hf  Hf13      1.0  0.80200  0.44200  0.55900  1.0000
  Hf  Hf14      1.0  0.14200  0.25000  0.71600  1.0000
  Hf  Hf15      1.0  0.19500  0.75000  0.72300  1.0000
  Hf  Hf16      1.0  0.69500  0.75000  0.77700  1.0000
  Hf  Hf17      1.0  0.64200  0.25000  0.78400  1.0000
  Hf  Hf18      1.0  0.30200  0.05770  0.94100  1.0000
  Hf  Hf19      1.0  0.30200  0.44200  0.94100  1.0000
  Hf  Hf20      1.0  0.02660  0.75000  0.99000  1.0000
  Sb  Sb1       1.0  0.58300  0.25000  0.04490  1.0000
  Sb  Sb2       1.0  0.07340  0.50800  0.17500  1.0000
  Sb  Sb3       1.0  0.07340  0.99200  0.17500  1.0000
  Sb  Sb4       1.0  0.57300  0.50800  0.32500  1.0000
  Sb  Sb5       1.0  0.57300  0.99200  0.32500  1.0000
  Sb  Sb6       1.0  0.08290  0.25000  0.45500  1.0000
  Sb  Sb7       1.0  0.91700  0.75000  0.54500  1.0000
  Sb  Sb8       1.0  0.42700  0.00781  0.67500  1.0000
  Sb  Sb9       1.0  0.42700  0.49200  0.67500  1.0000
  Sb  Sb10      1.0  0.92700  0.00781  0.82500  1.0000
  Sb  Sb11      1.0  0.92700  0.49200  0.82500  1.0000
  Sb  Sb12      1.0  0.41700  0.75000  0.95500  1.0000
