data_image0
_chemical_formula_structural       H14Hg2O14Te2
_chemical_formula_sum              "H14 Hg2 O14 Te2"
_cell_length_a       5.69642
_cell_length_b       6.74153
_cell_length_c       8.43173
_cell_angle_alpha    90.682
_cell_angle_beta     102.991
_cell_angle_gamma    93.5481

_space_group_name_H-M_alt    "P 1"
_space_group_IT_number       1

loop_
  _space_group_symop_operation_xyz
  'x, y, z'

loop_
  _atom_site_type_symbol
  _atom_site_label
  _atom_site_symmetry_multiplicity
  _atom_site_fract_x
  _atom_site_fract_y
  _atom_site_fract_z
  _atom_site_occupancy
  H   H1        1.0  0.77500  0.66600  0.00620  1.0000
  H   H2        1.0  0.35200  0.64100  0.10300  1.0000
  H   H3        1.0  0.45500  0.97300  0.10800  1.0000
  H   H4        1.0  0.52200  0.46800  0.18400  1.0000
  H   H5        1.0  0.86600  0.29000  0.24900  1.0000
  H   H6        1.0  0.90600  0.75900  0.29000  1.0000
  H   H7        1.0  0.26400  0.48300  0.29400  1.0000
  H   H8        1.0  0.73600  0.51700  0.70600  1.0000
  H   H9        1.0  0.09370  0.24000  0.71000  1.0000
  H   H10       1.0  0.13400  0.71000  0.75100  1.0000
  H   H11       1.0  0.47800  0.53200  0.81600  1.0000
  H   H12       1.0  0.54500  0.02710  0.89200  1.0000
  H   H13       1.0  0.64800  0.35900  0.89700  1.0000
  H   H14       1.0  0.22500  0.33400  0.99400  1.0000
  Hg  Hg1       1.0  0.31500  0.06920  0.41100  1.0000
  Hg  Hg2       1.0  0.68500  0.93100  0.58900  1.0000
  O   O1        1.0  0.31600  0.87600  0.07370  1.0000
  O   O2        1.0  0.84000  0.77700  0.09040  1.0000
  O   O3        1.0  0.35300  0.49700  0.12900  1.0000
  O   O4        1.0  0.03320  0.14000  0.19900  1.0000
  O   O5        1.0  0.77700  0.39000  0.30200  1.0000
  O   O6        1.0  0.96800  0.76800  0.41200  1.0000
  O   O7        1.0  0.27600  0.45500  0.41400  1.0000
  O   O8        1.0  0.72400  0.54500  0.58600  1.0000
  O   O9        1.0  0.03250  0.23200  0.58800  1.0000
  O   O10       1.0  0.22300  0.61000  0.69800  1.0000
  O   O11       1.0  0.96700  0.86000  0.80100  1.0000
  O   O12       1.0  0.64700  0.50300  0.87100  1.0000
  O   O13       1.0  0.16000  0.22300  0.91000  1.0000
  O   O14       1.0  0.68400  0.12400  0.92600  1.0000
  Te  Te1       1.0  0.00000  0.00000  0.00000  1.0000
  Te  Te2       1.0  0.00000  0.50000  0.50000  1.0000
