data_image0
_chemical_formula_structural       Cl20Cs4Pd8
_chemical_formula_sum              "Cl20 Cs4 Pd8"
_cell_length_a       15.9158
_cell_length_b       10.6903
_cell_length_c       5.34854
_cell_angle_alpha    90
_cell_angle_beta     90
_cell_angle_gamma    90

_space_group_name_H-M_alt    "P 1"
_space_group_IT_number       1

loop_
  _space_group_symop_operation_xyz
  'x, y, z'

loop_
  _atom_site_type_symbol
  _atom_site_label
  _atom_site_symmetry_multiplicity
  _atom_site_fract_x
  _atom_site_fract_y
  _atom_site_fract_z
  _atom_site_occupancy
  Cl  Cl1       1.0  0.01270  0.75000  0.01210  1.0000
  Cl  Cl2       1.0  0.41700  0.58000  0.03840  1.0000
  Cl  Cl3       1.0  0.41700  0.92000  0.03840  1.0000
  Cl  Cl4       1.0  0.18100  0.57400  0.09840  1.0000
  Cl  Cl5       1.0  0.18100  0.92600  0.09840  1.0000
  Cl  Cl6       1.0  0.68100  0.57400  0.40200  1.0000
  Cl  Cl7       1.0  0.68100  0.92600  0.40200  1.0000
  Cl  Cl8       1.0  0.91700  0.58000  0.46200  1.0000
  Cl  Cl9       1.0  0.91700  0.92000  0.46200  1.0000
  Cl  Cl10      1.0  0.51300  0.75000  0.48800  1.0000
  Cl  Cl11      1.0  0.48700  0.25000  0.51200  1.0000
  Cl  Cl12      1.0  0.08340  0.07990  0.53800  1.0000
  Cl  Cl13      1.0  0.08340  0.42000  0.53800  1.0000
  Cl  Cl14      1.0  0.31900  0.07440  0.59800  1.0000
  Cl  Cl15      1.0  0.31900  0.42600  0.59800  1.0000
  Cl  Cl16      1.0  0.81900  0.07440  0.90200  1.0000
  Cl  Cl17      1.0  0.81900  0.42600  0.90200  1.0000
  Cl  Cl18      1.0  0.58300  0.07990  0.96200  1.0000
  Cl  Cl19      1.0  0.58300  0.42000  0.96200  1.0000
  Cl  Cl20      1.0  0.98700  0.25000  0.98800  1.0000
  Cs  Cs1       1.0  0.23000  0.25000  0.09390  1.0000
  Cs  Cs2       1.0  0.73000  0.25000  0.40600  1.0000
  Cs  Cs3       1.0  0.27000  0.75000  0.59400  1.0000
  Cs  Cs4       1.0  0.77000  0.75000  0.90600  1.0000
  Pd  Pd1       1.0  0.54900  0.58400  0.23200  1.0000
  Pd  Pd2       1.0  0.54900  0.91600  0.23200  1.0000
  Pd  Pd3       1.0  0.04930  0.58400  0.26800  1.0000
  Pd  Pd4       1.0  0.04930  0.91600  0.26800  1.0000
  Pd  Pd5       1.0  0.95100  0.08450  0.73200  1.0000
  Pd  Pd6       1.0  0.95100  0.41600  0.73200  1.0000
  Pd  Pd7       1.0  0.45100  0.08450  0.76800  1.0000
  Pd  Pd8       1.0  0.45100  0.41600  0.76800  1.0000
