data_image0
_chemical_formula_structural       CoH8K2O16P4
_chemical_formula_sum              "Co1 H8 K2 O16 P4"
_cell_length_a       6.72332
_cell_length_b       7.17693
_cell_length_c       7.38565
_cell_angle_alpha    80.243
_cell_angle_beta     72.7582
_cell_angle_gamma    83.0894

_space_group_name_H-M_alt    "P 1"
_space_group_IT_number       1

loop_
  _space_group_symop_operation_xyz
  'x, y, z'

loop_
  _atom_site_type_symbol
  _atom_site_label
  _atom_site_symmetry_multiplicity
  _atom_site_fract_x
  _atom_site_fract_y
  _atom_site_fract_z
  _atom_site_occupancy
  Co  Co1       1.0  0.50000  0.50000  0.50000  1.0000
  H   H1        1.0  0.06340  0.27400  0.06010  1.0000
  H   H2        1.0  0.62400  0.67600  0.14200  1.0000
  H   H3        1.0  0.60900  0.82100  0.28800  1.0000
  H   H4        1.0  0.24500  0.03910  0.47000  1.0000
  H   H5        1.0  0.75500  0.96100  0.53000  1.0000
  H   H6        1.0  0.39100  0.17900  0.71200  1.0000
  H   H7        1.0  0.37600  0.32400  0.85800  1.0000
  H   H8        1.0  0.93700  0.72600  0.94000  1.0000
  K   K1        1.0  0.10100  0.73200  0.30400  1.0000
  K   K2        1.0  0.89900  0.26800  0.69600  1.0000
  O   O1        1.0  0.94200  0.20000  0.04760  1.0000
  O   O2        1.0  0.23100  0.36100  0.07510  1.0000
  O   O3        1.0  0.56400  0.23200  0.13700  1.0000
  O   O4        1.0  0.54100  0.71400  0.26800  1.0000
  O   O5        1.0  0.22800  0.07430  0.32900  1.0000
  O   O6        1.0  0.73900  0.98400  0.33800  1.0000
  O   O7        1.0  0.75500  0.33200  0.35900  1.0000
  O   O8        1.0  0.28600  0.39200  0.39700  1.0000
  O   O9        1.0  0.71400  0.60800  0.60300  1.0000
  O   O10       1.0  0.24500  0.66800  0.64100  1.0000
  O   O11       1.0  0.26100  0.01560  0.66200  1.0000
  O   O12       1.0  0.77200  0.92600  0.67100  1.0000
  O   O13       1.0  0.45900  0.28600  0.73200  1.0000
  O   O14       1.0  0.43600  0.76800  0.86300  1.0000
  O   O15       1.0  0.76900  0.63900  0.92500  1.0000
  O   O16       1.0  0.05830  0.80000  0.95200  1.0000
  P   P1        1.0  0.75600  0.18700  0.23300  1.0000
  P   P2        1.0  0.31800  0.27200  0.24000  1.0000
  P   P3        1.0  0.68200  0.72800  0.76000  1.0000
  P   P4        1.0  0.24400  0.81300  0.76700  1.0000
