data_image0
_chemical_formula_structural       B4Br8C8La12
_chemical_formula_sum              "B4 Br8 C8 La12"
_cell_length_a       15.4377
_cell_length_b       3.99521
_cell_length_c       11.5536
_cell_angle_alpha    90
_cell_angle_beta     90
_cell_angle_gamma    90

_space_group_name_H-M_alt    "P 1"
_space_group_IT_number       1

loop_
  _space_group_symop_operation_xyz
  'x, y, z'

loop_
  _atom_site_type_symbol
  _atom_site_label
  _atom_site_symmetry_multiplicity
  _atom_site_fract_x
  _atom_site_fract_y
  _atom_site_fract_z
  _atom_site_occupancy
  B   B1        1.0  0.74600  0.25000  0.12500  1.0000
  B   B2        1.0  0.24600  0.25000  0.37500  1.0000
  B   B3        1.0  0.75400  0.75000  0.62500  1.0000
  B   B4        1.0  0.25400  0.75000  0.87500  1.0000
  Br  Br1       1.0  0.02820  0.25000  0.11500  1.0000
  Br  Br2       1.0  0.48900  0.75000  0.13500  1.0000
  Br  Br3       1.0  0.98900  0.75000  0.36500  1.0000
  Br  Br4       1.0  0.52800  0.25000  0.38500  1.0000
  Br  Br5       1.0  0.47200  0.75000  0.61500  1.0000
  Br  Br6       1.0  0.01070  0.25000  0.63500  1.0000
  Br  Br7       1.0  0.51100  0.25000  0.86500  1.0000
  Br  Br8       1.0  0.97200  0.75000  0.88500  1.0000
  C   C1        1.0  0.23200  0.75000  0.00075  1.0000
  C   C2        1.0  0.77500  0.25000  0.24800  1.0000
  C   C3        1.0  0.27500  0.25000  0.25200  1.0000
  C   C4        1.0  0.73200  0.75000  0.49900  1.0000
  C   C5        1.0  0.26800  0.25000  0.50100  1.0000
  C   C6        1.0  0.72500  0.75000  0.74800  1.0000
  C   C7        1.0  0.22500  0.75000  0.75200  1.0000
  C   C8        1.0  0.76800  0.25000  0.99900  1.0000
  La  La1       1.0  0.34000  0.25000  0.05340  1.0000
  La  La2       1.0  0.86300  0.75000  0.12200  1.0000
  La  La3       1.0  0.16900  0.75000  0.19900  1.0000
  La  La4       1.0  0.66900  0.75000  0.30100  1.0000
  La  La5       1.0  0.36300  0.75000  0.37800  1.0000
  La  La6       1.0  0.84000  0.25000  0.44700  1.0000
  La  La7       1.0  0.16000  0.75000  0.55300  1.0000
  La  La8       1.0  0.63700  0.25000  0.62200  1.0000
  La  La9       1.0  0.33100  0.25000  0.69900  1.0000
  La  La10      1.0  0.83100  0.25000  0.80100  1.0000
  La  La11      1.0  0.13700  0.25000  0.87800  1.0000
  La  La12      1.0  0.66000  0.75000  0.94700  1.0000
