data_image0
_chemical_formula_structural       CsGaHO10P3
_chemical_formula_sum              "Cs1 Ga1 H1 O10 P3"
_cell_length_a       6.20634
_cell_length_b       6.25817
_cell_length_c       6.25817
_cell_angle_alpha    92.5078
_cell_angle_beta     105.834
_cell_angle_gamma    74.1663

_space_group_name_H-M_alt    "P 1"
_space_group_IT_number       1

loop_
  _space_group_symop_operation_xyz
  'x, y, z'

loop_
  _atom_site_type_symbol
  _atom_site_label
  _atom_site_symmetry_multiplicity
  _atom_site_fract_x
  _atom_site_fract_y
  _atom_site_fract_z
  _atom_site_occupancy
  Cs  Cs1       1.0  0.50000  0.05440  0.05440  1.0000
  Ga  Ga1       1.0  0.00000  0.39100  0.39100  1.0000
  H   H1        1.0  0.00000  0.80700  0.80700  1.0000
  O   O1        1.0  0.97100  0.36900  0.07610  1.0000
  O   O2        1.0  0.65900  0.44500  0.33500  1.0000
  O   O3        1.0  0.02890  0.07610  0.36900  1.0000
  O   O4        1.0  0.94500  0.71300  0.38000  1.0000
  O   O5        1.0  0.34100  0.33500  0.44500  1.0000
  O   O6        1.0  0.36100  0.74200  0.45200  1.0000
  O   O7        1.0  0.05520  0.38000  0.71300  1.0000
  O   O8        1.0  0.63900  0.45200  0.74200  1.0000
  O   O9        1.0  0.14300  0.86300  0.74400  1.0000
  O   O10       1.0  0.85700  0.74400  0.86300  1.0000
  P   P1        1.0  0.50000  0.48500  0.48500  1.0000
  P   P2        1.0  0.10400  0.85600  0.49100  1.0000
  P   P3        1.0  0.89600  0.49100  0.85600  1.0000
