data_image0
_chemical_formula_structural       Co4Gd20Sb8
_chemical_formula_sum              "Co4 Gd20 Sb8"
_cell_length_a       12.2769
_cell_length_b       8.8371
_cell_length_c       7.95625
_cell_angle_alpha    90
_cell_angle_beta     90
_cell_angle_gamma    90

_space_group_name_H-M_alt    "P 1"
_space_group_IT_number       1

loop_
  _space_group_symop_operation_xyz
  'x, y, z'

loop_
  _atom_site_type_symbol
  _atom_site_label
  _atom_site_symmetry_multiplicity
  _atom_site_fract_x
  _atom_site_fract_y
  _atom_site_fract_z
  _atom_site_occupancy
  Co  Co1       1.0  0.01060  0.75000  0.06820  1.0000
  Co  Co2       1.0  0.51100  0.75000  0.43200  1.0000
  Co  Co3       1.0  0.48900  0.25000  0.56800  1.0000
  Co  Co4       1.0  0.98900  0.25000  0.93200  1.0000
  Gd  Gd1       1.0  0.50200  0.75000  0.04420  1.0000
  Gd  Gd2       1.0  0.80500  0.25000  0.12200  1.0000
  Gd  Gd3       1.0  0.79700  0.75000  0.15300  1.0000
  Gd  Gd4       1.0  0.06460  0.03600  0.18000  1.0000
  Gd  Gd5       1.0  0.06460  0.46400  0.18000  1.0000
  Gd  Gd6       1.0  0.56500  0.03600  0.32000  1.0000
  Gd  Gd7       1.0  0.56500  0.46400  0.32000  1.0000
  Gd  Gd8       1.0  0.29700  0.75000  0.34700  1.0000
  Gd  Gd9       1.0  0.30500  0.25000  0.37800  1.0000
  Gd  Gd10      1.0  0.00224  0.75000  0.45600  1.0000
  Gd  Gd11      1.0  0.99800  0.25000  0.54400  1.0000
  Gd  Gd12      1.0  0.69500  0.75000  0.62200  1.0000
  Gd  Gd13      1.0  0.70300  0.25000  0.65300  1.0000
  Gd  Gd14      1.0  0.43500  0.53600  0.68000  1.0000
  Gd  Gd15      1.0  0.43500  0.96400  0.68000  1.0000
  Gd  Gd16      1.0  0.93500  0.53600  0.82000  1.0000
  Gd  Gd17      1.0  0.93500  0.96400  0.82000  1.0000
  Gd  Gd18      1.0  0.20300  0.25000  0.84700  1.0000
  Gd  Gd19      1.0  0.19500  0.75000  0.87800  1.0000
  Gd  Gd20      1.0  0.49800  0.25000  0.95600  1.0000
  Sb  Sb1       1.0  0.32700  0.00811  0.07330  1.0000
  Sb  Sb2       1.0  0.32700  0.49200  0.07330  1.0000
  Sb  Sb3       1.0  0.82700  0.00811  0.42700  1.0000
  Sb  Sb4       1.0  0.82700  0.49200  0.42700  1.0000
  Sb  Sb5       1.0  0.17300  0.50800  0.57300  1.0000
  Sb  Sb6       1.0  0.17300  0.99200  0.57300  1.0000
  Sb  Sb7       1.0  0.67300  0.50800  0.92700  1.0000
  Sb  Sb8       1.0  0.67300  0.99200  0.92700  1.0000
