data_image0
_chemical_formula_structural       P4Rb12S16
_chemical_formula_sum              "P4 Rb12 S16"
_cell_length_a       9.37221
_cell_length_b       11.0709
_cell_length_c       9.37853
_cell_angle_alpha    90
_cell_angle_beta     90
_cell_angle_gamma    90

_space_group_name_H-M_alt    "P 1"
_space_group_IT_number       1

loop_
  _space_group_symop_operation_xyz
  'x, y, z'

loop_
  _atom_site_type_symbol
  _atom_site_label
  _atom_site_symmetry_multiplicity
  _atom_site_fract_x
  _atom_site_fract_y
  _atom_site_fract_z
  _atom_site_occupancy
  P   P1        1.0  0.27600  0.75000  0.01920  1.0000
  P   P2        1.0  0.77600  0.75000  0.48100  1.0000
  P   P3        1.0  0.22400  0.25000  0.51900  1.0000
  P   P4        1.0  0.72400  0.25000  0.98100  1.0000
  Rb  Rb1       1.0  0.15500  0.25000  0.08930  1.0000
  Rb  Rb2       1.0  0.54100  0.54100  0.20600  1.0000
  Rb  Rb3       1.0  0.54100  0.95900  0.20600  1.0000
  Rb  Rb4       1.0  0.04100  0.54100  0.29400  1.0000
  Rb  Rb5       1.0  0.04100  0.95900  0.29400  1.0000
  Rb  Rb6       1.0  0.65500  0.25000  0.41100  1.0000
  Rb  Rb7       1.0  0.34500  0.75000  0.58900  1.0000
  Rb  Rb8       1.0  0.95900  0.04150  0.70600  1.0000
  Rb  Rb9       1.0  0.95900  0.45900  0.70600  1.0000
  Rb  Rb10      1.0  0.45900  0.04150  0.79400  1.0000
  Rb  Rb11      1.0  0.45900  0.45900  0.79400  1.0000
  Rb  Rb12      1.0  0.84500  0.75000  0.91100  1.0000
  S   S1        1.0  0.82900  0.09610  0.04500  1.0000
  S   S2        1.0  0.82900  0.40400  0.04500  1.0000
  S   S3        1.0  0.52200  0.25000  0.06960  1.0000
  S   S4        1.0  0.29100  0.75000  0.23800  1.0000
  S   S5        1.0  0.79100  0.75000  0.26200  1.0000
  S   S6        1.0  0.02170  0.25000  0.43000  1.0000
  S   S7        1.0  0.32900  0.09610  0.45500  1.0000
  S   S8        1.0  0.32900  0.40400  0.45500  1.0000
  S   S9        1.0  0.67100  0.59600  0.54500  1.0000
  S   S10       1.0  0.67100  0.90400  0.54500  1.0000
  S   S11       1.0  0.97800  0.75000  0.57000  1.0000
  S   S12       1.0  0.20900  0.25000  0.73800  1.0000
  S   S13       1.0  0.70900  0.25000  0.76200  1.0000
  S   S14       1.0  0.47800  0.75000  0.93000  1.0000
  S   S15       1.0  0.17100  0.59600  0.95500  1.0000
  S   S16       1.0  0.17100  0.90400  0.95500  1.0000
