data_image0
_chemical_formula_structural       Cl12Eu10O8Si2
_chemical_formula_sum              "Cl12 Eu10 O8 Si2"
_cell_length_a       8.08126
_cell_length_b       8.08126
_cell_length_c       10.8872
_cell_angle_alpha    97.0688
_cell_angle_beta     97.0688
_cell_angle_gamma    114.533

_space_group_name_H-M_alt    "P 1"
_space_group_IT_number       1

loop_
  _space_group_symop_operation_xyz
  'x, y, z'

loop_
  _atom_site_type_symbol
  _atom_site_label
  _atom_site_symmetry_multiplicity
  _atom_site_fract_x
  _atom_site_fract_y
  _atom_site_fract_z
  _atom_site_occupancy
  Cl  Cl1       1.0  0.50000  0.00000  0.00000  1.0000
  Cl  Cl2       1.0  0.77800  0.48000  0.04710  1.0000
  Cl  Cl3       1.0  0.35500  0.29500  0.14100  1.0000
  Cl  Cl4       1.0  0.25300  0.74700  0.25000  1.0000
  Cl  Cl5       1.0  0.70500  0.64500  0.35900  1.0000
  Cl  Cl6       1.0  0.52000  0.22200  0.45300  1.0000
  Cl  Cl7       1.0  1.00000  0.50000  0.50000  1.0000
  Cl  Cl8       1.0  0.48000  0.77800  0.54700  1.0000
  Cl  Cl9       1.0  0.29500  0.35500  0.64100  1.0000
  Cl  Cl10      1.0  0.74700  0.25300  0.75000  1.0000
  Cl  Cl11      1.0  0.64500  0.70500  0.85900  1.0000
  Cl  Cl12      1.0  0.22200  0.52000  0.95300  1.0000
  Eu  Eu1       1.0  0.07140  0.81300  0.01590  1.0000
  Eu  Eu2       1.0  0.57400  0.73400  0.13200  1.0000
  Eu  Eu3       1.0  0.70000  0.30000  0.25000  1.0000
  Eu  Eu4       1.0  0.26600  0.42600  0.36800  1.0000
  Eu  Eu5       1.0  0.18700  0.92900  0.48400  1.0000
  Eu  Eu6       1.0  0.81300  0.07140  0.51600  1.0000
  Eu  Eu7       1.0  0.73400  0.57400  0.63200  1.0000
  Eu  Eu8       1.0  0.30000  0.70000  0.75000  1.0000
  Eu  Eu9       1.0  0.42600  0.26600  0.86800  1.0000
  Eu  Eu10      1.0  0.92900  0.18700  0.98400  1.0000
  O   O1        1.0  0.89800  0.93500  0.12100  1.0000
  O   O2        1.0  0.98100  0.28300  0.21200  1.0000
  O   O3        1.0  0.71700  0.01860  0.28800  1.0000
  O   O4        1.0  0.06510  0.10200  0.37900  1.0000
  O   O5        1.0  0.93500  0.89800  0.62100  1.0000
  O   O6        1.0  0.28300  0.98100  0.71200  1.0000
  O   O7        1.0  0.01860  0.71700  0.78800  1.0000
  O   O8        1.0  0.10200  0.06510  0.87900  1.0000
  Si  Si1       1.0  0.92200  0.07790  0.25000  1.0000
  Si  Si2       1.0  0.07790  0.92200  0.75000  1.0000
