data_image0
_chemical_formula_structural       Ba8O20Re4
_chemical_formula_sum              "Ba8 O20 Re4"
_cell_length_a       7.314
_cell_length_b       5.72441
_cell_length_c       11.5013
_cell_angle_alpha    90
_cell_angle_beta     90
_cell_angle_gamma    90

_space_group_name_H-M_alt    "P 1"
_space_group_IT_number       1

loop_
  _space_group_symop_operation_xyz
  'x, y, z'

loop_
  _atom_site_type_symbol
  _atom_site_label
  _atom_site_symmetry_multiplicity
  _atom_site_fract_x
  _atom_site_fract_y
  _atom_site_fract_z
  _atom_site_occupancy
  Ba  Ba1       1.0  0.66600  0.75000  0.08120  1.0000
  Ba  Ba2       1.0  0.02430  0.25000  0.21500  1.0000
  Ba  Ba3       1.0  0.52400  0.25000  0.28500  1.0000
  Ba  Ba4       1.0  0.16600  0.75000  0.41900  1.0000
  Ba  Ba5       1.0  0.83400  0.25000  0.58100  1.0000
  Ba  Ba6       1.0  0.47600  0.75000  0.71500  1.0000
  Ba  Ba7       1.0  0.97600  0.75000  0.78500  1.0000
  Ba  Ba8       1.0  0.33400  0.25000  0.91900  1.0000
  O   O1        1.0  0.00000  0.00000  0.00000  1.0000
  O   O2        1.0  0.00000  0.50000  0.00000  1.0000
  O   O3        1.0  0.71800  0.25000  0.08940  1.0000
  O   O4        1.0  0.32600  0.51100  0.11800  1.0000
  O   O5        1.0  0.32600  0.98900  0.11800  1.0000
  O   O6        1.0  0.01820  0.75000  0.19500  1.0000
  O   O7        1.0  0.51800  0.75000  0.30500  1.0000
  O   O8        1.0  0.82600  0.51100  0.38200  1.0000
  O   O9        1.0  0.82600  0.98900  0.38200  1.0000
  O   O10       1.0  0.21800  0.25000  0.41100  1.0000
  O   O11       1.0  0.50000  0.00000  0.50000  1.0000
  O   O12       1.0  0.50000  0.50000  0.50000  1.0000
  O   O13       1.0  0.78200  0.75000  0.58900  1.0000
  O   O14       1.0  0.17400  0.01090  0.61800  1.0000
  O   O15       1.0  0.17400  0.48900  0.61800  1.0000
  O   O16       1.0  0.48200  0.25000  0.69500  1.0000
  O   O17       1.0  0.98200  0.25000  0.80500  1.0000
  O   O18       1.0  0.67400  0.01090  0.88200  1.0000
  O   O19       1.0  0.67400  0.48900  0.88200  1.0000
  O   O20       1.0  0.28200  0.75000  0.91100  1.0000
  Re  Re1       1.0  0.17100  0.75000  0.06420  1.0000
  Re  Re2       1.0  0.67100  0.75000  0.43600  1.0000
  Re  Re3       1.0  0.32900  0.25000  0.56400  1.0000
  Re  Re4       1.0  0.82900  0.25000  0.93600  1.0000
