data_image0
_chemical_formula_structural       Eu2Na16Sn12
_chemical_formula_sum              "Eu2 Na16 Sn12"
_cell_length_a       12.7591
_cell_length_b       5.00127
_cell_length_c       15.5413
_cell_angle_alpha    90
_cell_angle_beta     109.51
_cell_angle_gamma    90

_space_group_name_H-M_alt    "P 1"
_space_group_IT_number       1

loop_
  _space_group_symop_operation_xyz
  'x, y, z'

loop_
  _atom_site_type_symbol
  _atom_site_label
  _atom_site_symmetry_multiplicity
  _atom_site_fract_x
  _atom_site_fract_y
  _atom_site_fract_z
  _atom_site_occupancy
  Eu  Eu1       1.0  0.65800  0.25000  0.29400  1.0000
  Eu  Eu2       1.0  0.34200  0.75000  0.70600  1.0000
  Na  Na1       1.0  0.61000  0.25000  0.05660  1.0000
  Na  Na2       1.0  0.93800  0.75000  0.07740  1.0000
  Na  Na3       1.0  0.33300  0.25000  0.07790  1.0000
  Na  Na4       1.0  0.25200  0.75000  0.17600  1.0000
  Na  Na5       1.0  0.93900  0.25000  0.25200  1.0000
  Na  Na6       1.0  0.31100  0.25000  0.33300  1.0000
  Na  Na7       1.0  0.10900  0.75000  0.48200  1.0000
  Na  Na8       1.0  0.59100  0.25000  0.49700  1.0000
  Na  Na9       1.0  0.40900  0.75000  0.50300  1.0000
  Na  Na10      1.0  0.89100  0.25000  0.51800  1.0000
  Na  Na11      1.0  0.68900  0.75000  0.66700  1.0000
  Na  Na12      1.0  0.06050  0.75000  0.74800  1.0000
  Na  Na13      1.0  0.74800  0.25000  0.82400  1.0000
  Na  Na14      1.0  0.66700  0.75000  0.92200  1.0000
  Na  Na15      1.0  0.06200  0.25000  0.92300  1.0000
  Na  Na16      1.0  0.39000  0.75000  0.94300  1.0000
  Sn  Sn1       1.0  0.10100  0.25000  0.13500  1.0000
  Sn  Sn2       1.0  0.50600  0.75000  0.15500  1.0000
  Sn  Sn3       1.0  0.73700  0.75000  0.16700  1.0000
  Sn  Sn4       1.0  0.49200  0.75000  0.33600  1.0000
  Sn  Sn5       1.0  0.86400  0.75000  0.35700  1.0000
  Sn  Sn6       1.0  0.71800  0.75000  0.46200  1.0000
  Sn  Sn7       1.0  0.28200  0.25000  0.53800  1.0000
  Sn  Sn8       1.0  0.13600  0.25000  0.64300  1.0000
  Sn  Sn9       1.0  0.50800  0.25000  0.66400  1.0000
  Sn  Sn10      1.0  0.26300  0.25000  0.83300  1.0000
  Sn  Sn11      1.0  0.49400  0.25000  0.84500  1.0000
  Sn  Sn12      1.0  0.89900  0.75000  0.86500  1.0000
