data_image0
_chemical_formula_structural       Eu4H4O20S4
_chemical_formula_sum              "Eu4 H4 O20 S4"
_cell_length_a       4.51638
_cell_length_b       12.3803
_cell_length_c       6.55619
_cell_angle_alpha    90
_cell_angle_beta     108.03
_cell_angle_gamma    90

_space_group_name_H-M_alt    "P 1"
_space_group_IT_number       1

loop_
  _space_group_symop_operation_xyz
  'x, y, z'

loop_
  _atom_site_type_symbol
  _atom_site_label
  _atom_site_symmetry_multiplicity
  _atom_site_fract_x
  _atom_site_fract_y
  _atom_site_fract_z
  _atom_site_occupancy
  Eu  Eu1       1.0  0.86900  0.43600  0.19300  1.0000
  Eu  Eu2       1.0  0.63100  0.93600  0.30700  1.0000
  Eu  Eu3       1.0  0.36900  0.06360  0.69300  1.0000
  Eu  Eu4       1.0  0.13100  0.56400  0.80700  1.0000
  H   H1        1.0  0.72000  0.68000  0.00653  1.0000
  H   H2        1.0  0.78000  0.18000  0.49300  1.0000
  H   H3        1.0  0.22000  0.82000  0.50700  1.0000
  H   H4        1.0  0.28000  0.32000  0.99300  1.0000
  O   O1        1.0  0.31200  0.39500  0.04580  1.0000
  O   O2        1.0  0.74400  0.06980  0.05460  1.0000
  O   O3        1.0  0.88200  0.83600  0.07640  1.0000
  O   O4        1.0  0.93400  0.24600  0.19600  1.0000
  O   O5        1.0  0.23300  0.58900  0.21300  1.0000
  O   O6        1.0  0.26700  0.08870  0.28700  1.0000
  O   O7        1.0  0.56600  0.74600  0.30400  1.0000
  O   O8        1.0  0.61800  0.33600  0.42400  1.0000
  O   O9        1.0  0.75600  0.57000  0.44500  1.0000
  O   O10       1.0  0.18800  0.89500  0.45400  1.0000
  O   O11       1.0  0.81200  0.10500  0.54600  1.0000
  O   O12       1.0  0.24400  0.43000  0.55500  1.0000
  O   O13       1.0  0.38200  0.66400  0.57600  1.0000
  O   O14       1.0  0.43400  0.25400  0.69600  1.0000
  O   O15       1.0  0.73300  0.91100  0.71300  1.0000
  O   O16       1.0  0.76700  0.41100  0.78700  1.0000
  O   O17       1.0  0.06580  0.75400  0.80400  1.0000
  O   O18       1.0  0.11800  0.16400  0.92400  1.0000
  O   O19       1.0  0.25600  0.93000  0.94500  1.0000
  O   O20       1.0  0.68800  0.60500  0.95400  1.0000
  S   S1        1.0  0.01540  0.14400  0.11600  1.0000
  S   S2        1.0  0.48500  0.64400  0.38400  1.0000
  S   S3        1.0  0.51500  0.35600  0.61600  1.0000
  S   S4        1.0  0.98500  0.85600  0.88400  1.0000
