data_image0
_chemical_formula_structural       C12Mn2N12Na2Rb4
_chemical_formula_sum              "C12 Mn2 N12 Na2 Rb4"
_cell_length_a       7.15776
_cell_length_b       7.70058
_cell_length_c       10.5103
_cell_angle_alpha    90
_cell_angle_beta     90.761
_cell_angle_gamma    90

_space_group_name_H-M_alt    "P 1"
_space_group_IT_number       1

loop_
  _space_group_symop_operation_xyz
  'x, y, z'

loop_
  _atom_site_type_symbol
  _atom_site_label
  _atom_site_symmetry_multiplicity
  _atom_site_fract_x
  _atom_site_fract_y
  _atom_site_fract_z
  _atom_site_occupancy
  C   C1        1.0  0.77800  0.13800  0.03500  1.0000
  C   C2        1.0  0.86700  0.78700  0.04220  1.0000
  C   C3        1.0  0.07330  0.01940  0.17900  1.0000
  C   C4        1.0  0.42700  0.51900  0.32100  1.0000
  C   C5        1.0  0.63300  0.28700  0.45800  1.0000
  C   C6        1.0  0.72200  0.63800  0.46500  1.0000
  C   C7        1.0  0.27800  0.36200  0.53500  1.0000
  C   C8        1.0  0.36700  0.71300  0.54200  1.0000
  C   C9        1.0  0.57300  0.48100  0.67900  1.0000
  C   C10       1.0  0.92700  0.98100  0.82100  1.0000
  C   C11       1.0  0.13300  0.21300  0.95800  1.0000
  C   C12       1.0  0.22200  0.86200  0.96500  1.0000
  Mn  Mn1       1.0  0.00000  0.00000  0.00000  1.0000
  Mn  Mn2       1.0  0.50000  0.50000  0.50000  1.0000
  N   N1        1.0  0.64300  0.22000  0.05760  1.0000
  N   N2        1.0  0.78300  0.66000  0.06750  1.0000
  N   N3        1.0  0.38000  0.53600  0.21400  1.0000
  N   N4        1.0  0.12000  0.03570  0.28600  1.0000
  N   N5        1.0  0.71700  0.16000  0.43300  1.0000
  N   N6        1.0  0.85700  0.72000  0.44200  1.0000
  N   N7        1.0  0.14300  0.28000  0.55800  1.0000
  N   N8        1.0  0.28300  0.84000  0.56700  1.0000
  N   N9        1.0  0.88000  0.96400  0.71400  1.0000
  N   N10       1.0  0.62000  0.46400  0.78600  1.0000
  N   N11       1.0  0.21700  0.34000  0.93300  1.0000
  N   N12       1.0  0.35700  0.78000  0.94200  1.0000
  Na  Na1       1.0  0.50000  0.50000  0.00000  1.0000
  Na  Na2       1.0  0.00000  0.00000  0.50000  1.0000
  Rb  Rb1       1.0  0.52400  0.92500  0.24900  1.0000
  Rb  Rb2       1.0  0.97600  0.42500  0.25100  1.0000
  Rb  Rb3       1.0  0.02400  0.57500  0.74900  1.0000
  Rb  Rb4       1.0  0.47600  0.07460  0.75100  1.0000
