data_image0
_chemical_formula_structural       C12Mn4N12Rb4
_chemical_formula_sum              "C12 Mn4 N12 Rb4"
_cell_length_a       9.9665
_cell_length_b       7.176
_cell_length_c       6.8824
_cell_angle_alpha    90
_cell_angle_beta     90.2464
_cell_angle_gamma    90

_space_group_name_H-M_alt    "P 1"
_space_group_IT_number       1

loop_
  _space_group_symop_operation_xyz
  'x, y, z'

loop_
  _atom_site_type_symbol
  _atom_site_label
  _atom_site_symmetry_multiplicity
  _atom_site_fract_x
  _atom_site_fract_y
  _atom_site_fract_z
  _atom_site_occupancy
  C   C1        1.0  0.19000  0.99800  0.01820  1.0000
  C   C2        1.0  0.99200  0.20200  0.17600  1.0000
  C   C3        1.0  0.99200  0.82400  0.20400  1.0000
  C   C4        1.0  0.50800  0.32400  0.29600  1.0000
  C   C5        1.0  0.50800  0.70200  0.32400  1.0000
  C   C6        1.0  0.31000  0.49800  0.48200  1.0000
  C   C7        1.0  0.69000  0.50200  0.51800  1.0000
  C   C8        1.0  0.49200  0.29800  0.67600  1.0000
  C   C9        1.0  0.49200  0.67600  0.70400  1.0000
  C   C10       1.0  0.00789  0.17600  0.79600  1.0000
  C   C11       1.0  0.00838  0.79800  0.82400  1.0000
  C   C12       1.0  0.81000  0.00150  0.98200  1.0000
  Mn  Mn1       1.0  0.00000  0.00000  0.00000  1.0000
  Mn  Mn2       1.0  0.50000  0.00000  0.00000  1.0000
  Mn  Mn3       1.0  0.50000  0.50000  0.50000  1.0000
  Mn  Mn4       1.0  0.00000  0.50000  0.50000  1.0000
  N   N1        1.0  0.30800  0.99800  0.02440  1.0000
  N   N2        1.0  0.51100  0.20600  0.17500  1.0000
  N   N3        1.0  0.51300  0.82900  0.21400  1.0000
  N   N4        1.0  0.98700  0.32900  0.28600  1.0000
  N   N5        1.0  0.98900  0.70600  0.32500  1.0000
  N   N6        1.0  0.19200  0.49800  0.47600  1.0000
  N   N7        1.0  0.80800  0.50200  0.52400  1.0000
  N   N8        1.0  0.01060  0.29400  0.67500  1.0000
  N   N9        1.0  0.01320  0.67100  0.71400  1.0000
  N   N10       1.0  0.48700  0.17100  0.78600  1.0000
  N   N11       1.0  0.48900  0.79400  0.82500  1.0000
  N   N12       1.0  0.69200  0.00157  0.97600  1.0000
  Rb  Rb1       1.0  0.75000  0.53200  0.01270  1.0000
  Rb  Rb2       1.0  0.75000  0.03180  0.48700  1.0000
  Rb  Rb3       1.0  0.25000  0.96800  0.51300  1.0000
  Rb  Rb4       1.0  0.25000  0.46800  0.98700  1.0000
