data_image0
_chemical_formula_structural       O14Ru3Sn15
_chemical_formula_sum              "O14 Ru3 Sn15"
_cell_length_a       7.14548
_cell_length_b       7.20127
_cell_length_c       13.0152
_cell_angle_alpha    90.3042
_cell_angle_beta     105.932
_cell_angle_gamma    119.744

_space_group_name_H-M_alt    "P 1"
_space_group_IT_number       1

loop_
  _space_group_symop_operation_xyz
  'x, y, z'

loop_
  _atom_site_type_symbol
  _atom_site_label
  _atom_site_symmetry_multiplicity
  _atom_site_fract_x
  _atom_site_fract_y
  _atom_site_fract_z
  _atom_site_occupancy
  O   O1        1.0  0.96700  0.92500  0.00904  1.0000
  O   O2        1.0  0.68200  0.30700  0.05730  1.0000
  O   O3        1.0  0.92800  0.16400  0.18400  1.0000
  O   O4        1.0  0.42000  0.16400  0.18400  1.0000
  O   O5        1.0  0.71000  0.05360  0.36600  1.0000
  O   O6        1.0  0.58900  0.28500  0.46600  1.0000
  O   O7        1.0  0.16200  0.28500  0.46600  1.0000
  O   O8        1.0  0.59700  0.71900  0.47500  1.0000
  O   O9        1.0  0.01580  0.44300  0.58900  1.0000
  O   O10       1.0  0.56600  0.99400  0.59500  1.0000
  O   O11       1.0  0.02230  0.99400  0.59500  1.0000
  O   O12       1.0  0.97400  0.20100  0.74800  1.0000
  O   O13       1.0  0.70100  0.05470  0.88300  1.0000
  O   O14       1.0  0.23700  0.05470  0.88300  1.0000
  Ru  Ru1       1.0  0.32300  0.61200  0.03440  1.0000
  Ru  Ru2       1.0  0.00303  0.70100  0.30500  1.0000
  Ru  Ru3       1.0  0.65300  0.53800  0.76800  1.0000
  Sn  Sn1       1.0  0.56900  0.01110  0.12700  1.0000
  Sn  Sn2       1.0  0.59100  0.50200  0.16200  1.0000
  Sn  Sn3       1.0  0.07190  0.50200  0.16200  1.0000
  Sn  Sn4       1.0  0.07890  0.98000  0.17800  1.0000
  Sn  Sn5       1.0  0.39500  0.41100  0.37900  1.0000
  Sn  Sn6       1.0  0.90700  0.39400  0.41900  1.0000
  Sn  Sn7       1.0  0.91600  0.91800  0.42600  1.0000
  Sn  Sn8       1.0  0.42700  0.91800  0.42600  1.0000
  Sn  Sn9       1.0  0.74800  0.32700  0.65300  1.0000
  Sn  Sn10      1.0  0.23200  0.32700  0.65300  1.0000
  Sn  Sn11      1.0  0.75500  0.85000  0.66000  1.0000
  Sn  Sn12      1.0  0.56800  0.24900  0.88700  1.0000
  Sn  Sn13      1.0  0.58100  0.72800  0.91100  1.0000
  Sn  Sn14      1.0  0.05750  0.72800  0.91100  1.0000
  Sn  Sn15      1.0  0.07090  0.22200  0.92000  1.0000
