data_image0
_chemical_formula_structural       Br4Cr8O16P4
_chemical_formula_sum              "Br4 Cr8 O16 P4"
_cell_length_a       6.42635
_cell_length_b       11.6605
_cell_length_c       6.20384
_cell_angle_alpha    90
_cell_angle_beta     91.9634
_cell_angle_gamma    90

_space_group_name_H-M_alt    "P 1"
_space_group_IT_number       1

loop_
  _space_group_symop_operation_xyz
  'x, y, z'

loop_
  _atom_site_type_symbol
  _atom_site_label
  _atom_site_symmetry_multiplicity
  _atom_site_fract_x
  _atom_site_fract_y
  _atom_site_fract_z
  _atom_site_occupancy
  Br  Br1       1.0  0.12400  0.33900  0.00116  1.0000
  Br  Br2       1.0  0.87600  0.83900  0.49900  1.0000
  Br  Br3       1.0  0.12400  0.16100  0.50100  1.0000
  Br  Br4       1.0  0.87600  0.66100  0.99900  1.0000
  Cr  Cr1       1.0  0.13900  0.11600  0.00627  1.0000
  Cr  Cr2       1.0  0.53500  0.39400  0.15300  1.0000
  Cr  Cr3       1.0  0.46500  0.89400  0.34700  1.0000
  Cr  Cr4       1.0  0.86100  0.61600  0.49400  1.0000
  Cr  Cr5       1.0  0.13900  0.38400  0.50600  1.0000
  Cr  Cr6       1.0  0.53500  0.10600  0.65300  1.0000
  Cr  Cr7       1.0  0.46500  0.60600  0.84700  1.0000
  Cr  Cr8       1.0  0.86100  0.88400  0.99400  1.0000
  O   O1        1.0  0.83200  0.06470  0.02590  1.0000
  O   O2        1.0  0.54400  0.87900  0.02870  1.0000
  O   O3        1.0  0.41100  0.56000  0.16000  1.0000
  O   O4        1.0  0.70200  0.25000  0.18800  1.0000
  O   O5        1.0  0.29800  0.75000  0.31200  1.0000
  O   O6        1.0  0.58900  0.05950  0.34000  1.0000
  O   O7        1.0  0.45600  0.37900  0.47100  1.0000
  O   O8        1.0  0.16800  0.56500  0.47400  1.0000
  O   O9        1.0  0.83200  0.43500  0.52600  1.0000
  O   O10       1.0  0.54400  0.62100  0.52900  1.0000
  O   O11       1.0  0.41100  0.94000  0.66000  1.0000
  O   O12       1.0  0.70200  0.25000  0.68800  1.0000
  O   O13       1.0  0.29800  0.75000  0.81200  1.0000
  O   O14       1.0  0.58900  0.44000  0.84000  1.0000
  O   O15       1.0  0.45600  0.12100  0.97100  1.0000
  O   O16       1.0  0.16800  0.93500  0.97400  1.0000
  P   P1        1.0  0.64700  0.12800  0.13500  1.0000
  P   P2        1.0  0.35300  0.62800  0.36500  1.0000
  P   P3        1.0  0.64700  0.37200  0.63500  1.0000
  P   P4        1.0  0.35300  0.87200  0.86500  1.0000
