data_image0
_chemical_formula_structural       As4K4S20Sn4
_chemical_formula_sum              "As4 K4 S20 Sn4"
_cell_length_a       8.28646
_cell_length_b       14.0777
_cell_length_c       7.56067
_cell_angle_alpha    90
_cell_angle_beta     90
_cell_angle_gamma    90

_space_group_name_H-M_alt    "P 1"
_space_group_IT_number       1

loop_
  _space_group_symop_operation_xyz
  'x, y, z'

loop_
  _atom_site_type_symbol
  _atom_site_label
  _atom_site_symmetry_multiplicity
  _atom_site_fract_x
  _atom_site_fract_y
  _atom_site_fract_z
  _atom_site_occupancy
  As  As1       1.0  0.30200  0.22300  0.00000  1.0000
  As  As2       1.0  0.80200  0.27700  0.00000  1.0000
  As  As3       1.0  0.19800  0.72300  0.00000  1.0000
  As  As4       1.0  0.69800  0.77700  0.00000  1.0000
  K   K1        1.0  0.10900  0.16200  0.50000  1.0000
  K   K2        1.0  0.60900  0.33800  0.50000  1.0000
  K   K3        1.0  0.39100  0.66200  0.50000  1.0000
  K   K4        1.0  0.89100  0.83800  0.50000  1.0000
  S   S1        1.0  0.71400  0.02360  0.00000  1.0000
  S   S2        1.0  0.13400  0.08950  0.00000  1.0000
  S   S3        1.0  0.63400  0.41000  0.00000  1.0000
  S   S4        1.0  0.21400  0.47600  0.00000  1.0000
  S   S5        1.0  0.78600  0.52400  0.00000  1.0000
  S   S6        1.0  0.36600  0.59000  0.00000  1.0000
  S   S7        1.0  0.86600  0.91000  0.00000  1.0000
  S   S8        1.0  0.28600  0.97600  0.00000  1.0000
  S   S9        1.0  0.45200  0.18200  0.23600  1.0000
  S   S10       1.0  0.95200  0.31800  0.23600  1.0000
  S   S11       1.0  0.04800  0.68200  0.23600  1.0000
  S   S12       1.0  0.54800  0.81800  0.23600  1.0000
  S   S13       1.0  0.71000  0.03740  0.50000  1.0000
  S   S14       1.0  0.21000  0.46300  0.50000  1.0000
  S   S15       1.0  0.79000  0.53700  0.50000  1.0000
  S   S16       1.0  0.29000  0.96300  0.50000  1.0000
  S   S17       1.0  0.45200  0.18200  0.76400  1.0000
  S   S18       1.0  0.95200  0.31800  0.76400  1.0000
  S   S19       1.0  0.04800  0.68200  0.76400  1.0000
  S   S20       1.0  0.54800  0.81800  0.76400  1.0000
  Sn  Sn1       1.0  0.50000  0.00000  0.26800  1.0000
  Sn  Sn2       1.0  0.00000  0.50000  0.26800  1.0000
  Sn  Sn3       1.0  0.50000  0.00000  0.73200  1.0000
  Sn  Sn4       1.0  0.00000  0.50000  0.73200  1.0000
