data_image0
_chemical_formula_structural       K4O21Te2U5
_chemical_formula_sum              "K4 O21 Te2 U5"
_cell_length_a       6.76701
_cell_length_b       7.14652
_cell_length_c       11.2793
_cell_angle_alpha    99.6294
_cell_angle_beta     92.4224
_cell_angle_gamma    100.614

_space_group_name_H-M_alt    "P 1"
_space_group_IT_number       1

loop_
  _space_group_symop_operation_xyz
  'x, y, z'

loop_
  _atom_site_type_symbol
  _atom_site_label
  _atom_site_symmetry_multiplicity
  _atom_site_fract_x
  _atom_site_fract_y
  _atom_site_fract_z
  _atom_site_occupancy
  K   K1        1.0  0.56300  0.29900  0.08370  1.0000
  K   K2        1.0  0.69500  0.83600  0.26600  1.0000
  K   K3        1.0  0.30500  0.16400  0.73400  1.0000
  K   K4        1.0  0.43700  0.70100  0.91600  1.0000
  O   O1        1.0  0.00000  0.50000  0.00000  1.0000
  O   O2        1.0  0.74400  0.99200  0.05140  1.0000
  O   O3        1.0  0.38200  0.61800  0.13300  1.0000
  O   O4        1.0  0.13600  0.24700  0.15300  1.0000
  O   O5        1.0  0.07720  0.87300  0.16600  1.0000
  O   O6        1.0  0.87100  0.51900  0.24300  1.0000
  O   O7        1.0  0.47300  0.12200  0.26600  1.0000
  O   O8        1.0  0.29300  0.47000  0.36000  1.0000
  O   O9        1.0  0.22900  0.82200  0.37900  1.0000
  O   O10       1.0  0.97600  0.13000  0.38100  1.0000
  O   O11       1.0  0.59400  0.77200  0.48700  1.0000
  O   O12       1.0  0.40600  0.22800  0.51300  1.0000
  O   O13       1.0  0.02380  0.87000  0.61900  1.0000
  O   O14       1.0  0.77100  0.17800  0.62100  1.0000
  O   O15       1.0  0.70700  0.53000  0.64000  1.0000
  O   O16       1.0  0.52700  0.87800  0.73400  1.0000
  O   O17       1.0  0.12900  0.48100  0.75700  1.0000
  O   O18       1.0  0.92300  0.12700  0.83400  1.0000
  O   O19       1.0  0.86400  0.75300  0.84700  1.0000
  O   O20       1.0  0.61800  0.38200  0.86700  1.0000
  O   O21       1.0  0.25600  0.00836  0.94900  1.0000
  Te  Te1       1.0  0.31600  0.68000  0.49200  1.0000
  Te  Te2       1.0  0.68400  0.32000  0.50800  1.0000
  U   U1        1.0  0.00000  0.00000  0.00000  1.0000
  U   U2        1.0  0.12300  0.56800  0.18500  1.0000
  U   U3        1.0  0.22100  0.12300  0.32000  1.0000
  U   U4        1.0  0.77900  0.87700  0.68000  1.0000
  U   U5        1.0  0.87700  0.43200  0.81500  1.0000
