data_image0
_chemical_formula_structural       Ba4F24HP3
_chemical_formula_sum              "Ba4 F24 H1 P3"
_cell_length_a       4.55455
_cell_length_b       8.70811
_cell_length_c       11.1347
_cell_angle_alpha    67.7287
_cell_angle_beta     85.034
_cell_angle_gamma    77.9602

_space_group_name_H-M_alt    "P 1"
_space_group_IT_number       1

loop_
  _space_group_symop_operation_xyz
  'x, y, z'

loop_
  _atom_site_type_symbol
  _atom_site_label
  _atom_site_symmetry_multiplicity
  _atom_site_fract_x
  _atom_site_fract_y
  _atom_site_fract_z
  _atom_site_occupancy
  Ba  Ba1       1.0  0.23700  0.19700  0.20100  1.0000
  Ba  Ba2       1.0  0.58000  0.57400  0.25600  1.0000
  Ba  Ba3       1.0  0.42000  0.42600  0.74400  1.0000
  Ba  Ba4       1.0  0.76300  0.80300  0.79900  1.0000
  F   F1        1.0  0.58200  0.60600  0.01570  1.0000
  F   F2        1.0  0.89800  0.81800  0.04700  1.0000
  F   F3        1.0  0.28500  0.91600  0.09880  1.0000
  F   F4        1.0  0.79700  0.04400  0.11400  1.0000
  F   F5        1.0  0.12400  0.48800  0.21300  1.0000
  F   F6        1.0  0.69600  0.29200  0.23000  1.0000
  F   F7        1.0  0.02480  0.73000  0.33100  1.0000
  F   F8        1.0  0.54100  0.86200  0.34400  1.0000
  F   F9        1.0  0.93100  0.96600  0.38600  1.0000
  F   F10       1.0  0.37800  0.16100  0.44800  1.0000
  F   F11       1.0  0.88900  0.29400  0.46100  1.0000
  F   F12       1.0  0.71800  0.60300  0.49800  1.0000
  F   F13       1.0  0.28200  0.39700  0.50200  1.0000
  F   F14       1.0  0.11100  0.70600  0.53900  1.0000
  F   F15       1.0  0.62200  0.83900  0.55200  1.0000
  F   F16       1.0  0.06920  0.03360  0.61400  1.0000
  F   F17       1.0  0.45900  0.13800  0.65600  1.0000
  F   F18       1.0  0.97500  0.27000  0.66900  1.0000
  F   F19       1.0  0.30400  0.70800  0.77000  1.0000
  F   F20       1.0  0.87600  0.51200  0.78700  1.0000
  F   F21       1.0  0.20300  0.95600  0.88600  1.0000
  F   F22       1.0  0.71500  0.08440  0.90100  1.0000
  F   F23       1.0  0.10200  0.18200  0.95300  1.0000
  F   F24       1.0  0.41800  0.39400  0.98400  1.0000
  H   H1        1.0  0.50000  0.50000  0.00000  1.0000
  P   P1        1.0  0.00000  0.00000  0.00000  1.0000
  P   P2        1.0  0.82700  0.78600  0.44400  1.0000
  P   P3        1.0  0.17300  0.21400  0.55600  1.0000
