data_image0
_chemical_formula_structural       Al2Li3
_chemical_formula_sum              "Al2 Li3"
_cell_length_a       4.40428
_cell_length_b       4.40428
_cell_length_c       5.28056
_cell_angle_alpha    65.3529
_cell_angle_beta     114.647
_cell_angle_gamma    120

_space_group_name_H-M_alt    "P 1"
_space_group_IT_number       1

loop_
  _space_group_symop_operation_xyz
  'x, y, z'

loop_
  _atom_site_type_symbol
  _atom_site_label
  _atom_site_symmetry_multiplicity
  _atom_site_fract_x
  _atom_site_fract_y
  _atom_site_fract_z
  _atom_site_occupancy
  Al  Al1       1.0  0.80200  0.19800  0.40600  1.0000
  Al  Al2       1.0  0.19800  0.80200  0.59400  1.0000
  Li  Li1       1.0  0.00000  0.00000  0.00000  1.0000
  Li  Li2       1.0  0.40300  0.59700  0.20800  1.0000
  Li  Li3       1.0  0.59700  0.40300  0.79200  1.0000
