data_image0
_chemical_formula_structural       Co8Ge12Se12
_chemical_formula_sum              "Co8 Ge12 Se12"
_cell_length_a       8.34717
_cell_length_b       8.34717
_cell_length_c       8.34717
_cell_angle_alpha    90.0543
_cell_angle_beta     90.0543
_cell_angle_gamma    89.9457

_space_group_name_H-M_alt    "P 1"
_space_group_IT_number       1

loop_
  _space_group_symop_operation_xyz
  'x, y, z'

loop_
  _atom_site_type_symbol
  _atom_site_label
  _atom_site_symmetry_multiplicity
  _atom_site_fract_x
  _atom_site_fract_y
  _atom_site_fract_z
  _atom_site_occupancy
  Co  Co1       1.0  0.99800  0.99800  0.00246  1.0000
  Co  Co2       1.0  0.99500  0.49400  0.00463  1.0000
  Co  Co3       1.0  0.49400  0.99500  0.00492  1.0000
  Co  Co4       1.0  0.49900  0.00034  0.50100  1.0000
  Co  Co5       1.0  0.00034  0.49900  0.50100  1.0000
  Co  Co6       1.0  0.49700  0.49700  0.50300  1.0000
  Co  Co7       1.0  0.99500  0.99500  0.50600  1.0000
  Co  Co8       1.0  0.49900  0.49900  0.00000  1.0000
  Ge  Ge1       1.0  0.40500  0.24800  0.08110  1.0000
  Ge  Ge2       1.0  0.74500  0.07490  0.09610  1.0000
  Ge  Ge3       1.0  0.42000  0.58900  0.25000  1.0000
  Ge  Ge4       1.0  0.07490  0.90400  0.25500  1.0000
  Ge  Ge5       1.0  0.75000  0.42000  0.41100  1.0000
  Ge  Ge6       1.0  0.08950  0.24600  0.42500  1.0000
  Ge  Ge7       1.0  0.58900  0.75000  0.58000  1.0000
  Ge  Ge8       1.0  0.24800  0.91900  0.59500  1.0000
  Ge  Ge9       1.0  0.91900  0.40500  0.75200  1.0000
  Ge  Ge10      1.0  0.57500  0.08950  0.75400  1.0000
  Ge  Ge11      1.0  0.24600  0.57500  0.91100  1.0000
  Ge  Ge12      1.0  0.90400  0.74500  0.92500  1.0000
  Se  Se1       1.0  0.09850  0.24300  0.09860  1.0000
  Se  Se2       1.0  0.74700  0.40200  0.10400  1.0000
  Se  Se3       1.0  0.09280  0.59800  0.25200  1.0000
  Se  Se4       1.0  0.40200  0.89600  0.25300  1.0000
  Se  Se5       1.0  0.74800  0.09280  0.40200  1.0000
  Se  Se6       1.0  0.39600  0.25100  0.40700  1.0000
  Se  Se7       1.0  0.89600  0.74700  0.59800  1.0000
  Se  Se8       1.0  0.25100  0.59300  0.60400  1.0000
  Se  Se9       1.0  0.59300  0.39600  0.74900  1.0000
  Se  Se10      1.0  0.90100  0.09850  0.75700  1.0000
  Se  Se11      1.0  0.24300  0.90100  0.90200  1.0000
  Se  Se12      1.0  0.59800  0.74800  0.90700  1.0000
