data_image0
_chemical_formula_structural       H8O18Th2V4
_chemical_formula_sum              "H8 O18 Th2 V4"
_cell_length_a       6.96906
_cell_length_b       7.36145
_cell_length_c       7.66967
_cell_angle_alpha    76.6834
_cell_angle_beta     74.5569
_cell_angle_gamma    86.1252

_space_group_name_H-M_alt    "P 1"
_space_group_IT_number       1

loop_
  _space_group_symop_operation_xyz
  'x, y, z'

loop_
  _atom_site_type_symbol
  _atom_site_label
  _atom_site_symmetry_multiplicity
  _atom_site_fract_x
  _atom_site_fract_y
  _atom_site_fract_z
  _atom_site_occupancy
  H   H1        1.0  0.77000  0.01310  0.13300  1.0000
  H   H2        1.0  0.90400  0.82400  0.16900  1.0000
  H   H3        1.0  0.83000  0.79700  0.48000  1.0000
  H   H4        1.0  0.40500  0.19000  0.49100  1.0000
  H   H5        1.0  0.59500  0.81000  0.50900  1.0000
  H   H6        1.0  0.17000  0.20300  0.52000  1.0000
  H   H7        1.0  0.09600  0.17600  0.83100  1.0000
  H   H8        1.0  0.23000  0.98700  0.86700  1.0000
  O   O1        1.0  0.81900  0.89500  0.09070  1.0000
  O   O2        1.0  0.80700  0.54200  0.11200  1.0000
  O   O3        1.0  0.38900  0.90100  0.16000  1.0000
  O   O4        1.0  0.38000  0.54100  0.16200  1.0000
  O   O5        1.0  0.65600  0.19000  0.18700  1.0000
  O   O6        1.0  0.01990  0.23400  0.25800  1.0000
  O   O7        1.0  0.02280  0.71600  0.33000  1.0000
  O   O8        1.0  0.29700  0.16100  0.44300  1.0000
  O   O9        1.0  0.65500  0.35000  0.49100  1.0000
  O   O10       1.0  0.34500  0.65000  0.50900  1.0000
  O   O11       1.0  0.70300  0.83900  0.55700  1.0000
  O   O12       1.0  0.97700  0.28400  0.67000  1.0000
  O   O13       1.0  0.98000  0.76600  0.74200  1.0000
  O   O14       1.0  0.34400  0.81000  0.81300  1.0000
  O   O15       1.0  0.62000  0.45900  0.83800  1.0000
  O   O16       1.0  0.61100  0.09900  0.84000  1.0000
  O   O17       1.0  0.19300  0.45800  0.88800  1.0000
  O   O18       1.0  0.18100  0.10500  0.90900  1.0000
  Th  Th1       1.0  0.35300  0.24000  0.08770  1.0000
  Th  Th2       1.0  0.64700  0.76000  0.91200  1.0000
  V   V1        1.0  0.79200  0.33200  0.25900  1.0000
  V   V2        1.0  0.26900  0.69900  0.29800  1.0000
  V   V3        1.0  0.73100  0.30100  0.70200  1.0000
  V   V4        1.0  0.20800  0.66800  0.74100  1.0000
