data_image0
_chemical_formula_structural       As12Ca4Fe16
_chemical_formula_sum              "As12 Ca4 Fe16"
_cell_length_a       11.787
_cell_length_b       3.72108
_cell_length_c       11.3471
_cell_angle_alpha    90
_cell_angle_beta     90
_cell_angle_gamma    90

_space_group_name_H-M_alt    "P 1"
_space_group_IT_number       1

loop_
  _space_group_symop_operation_xyz
  'x, y, z'

loop_
  _atom_site_type_symbol
  _atom_site_label
  _atom_site_symmetry_multiplicity
  _atom_site_fract_x
  _atom_site_fract_y
  _atom_site_fract_z
  _atom_site_occupancy
  As  As1       1.0  0.62700  0.75000  0.07670  1.0000
  As  As2       1.0  0.10100  0.25000  0.12500  1.0000
  As  As3       1.0  0.38900  0.75000  0.24000  1.0000
  As  As4       1.0  0.88900  0.75000  0.26000  1.0000
  As  As5       1.0  0.60100  0.25000  0.37500  1.0000
  As  As6       1.0  0.12700  0.75000  0.42300  1.0000
  As  As7       1.0  0.87300  0.25000  0.57700  1.0000
  As  As8       1.0  0.39900  0.75000  0.62500  1.0000
  As  As9       1.0  0.11100  0.25000  0.74000  1.0000
  As  As10      1.0  0.61100  0.25000  0.76000  1.0000
  As  As11      1.0  0.89900  0.75000  0.87500  1.0000
  As  As12      1.0  0.37300  0.25000  0.92300  1.0000
  Ca  Ca1       1.0  0.83400  0.25000  0.06780  1.0000
  Ca  Ca2       1.0  0.33400  0.25000  0.43200  1.0000
  Ca  Ca3       1.0  0.66600  0.75000  0.56800  1.0000
  Ca  Ca4       1.0  0.16600  0.75000  0.93200  1.0000
  Fe  Fe1       1.0  0.43100  0.75000  0.03870  1.0000
  Fe  Fe2       1.0  0.30600  0.25000  0.12700  1.0000
  Fe  Fe3       1.0  0.51500  0.25000  0.18500  1.0000
  Fe  Fe4       1.0  0.18800  0.75000  0.22400  1.0000
  Fe  Fe5       1.0  0.68800  0.75000  0.27600  1.0000
  Fe  Fe6       1.0  0.01490  0.25000  0.31500  1.0000
  Fe  Fe7       1.0  0.80600  0.25000  0.37300  1.0000
  Fe  Fe8       1.0  0.93100  0.75000  0.46100  1.0000
  Fe  Fe9       1.0  0.06900  0.25000  0.53900  1.0000
  Fe  Fe10      1.0  0.19400  0.75000  0.62700  1.0000
  Fe  Fe11      1.0  0.98500  0.75000  0.68500  1.0000
  Fe  Fe12      1.0  0.31200  0.25000  0.72400  1.0000
  Fe  Fe13      1.0  0.81200  0.25000  0.77600  1.0000
  Fe  Fe14      1.0  0.48500  0.75000  0.81500  1.0000
  Fe  Fe15      1.0  0.69400  0.75000  0.87300  1.0000
  Fe  Fe16      1.0  0.56900  0.25000  0.96100  1.0000
