data_image0
_chemical_formula_structural       F8H20N4
_chemical_formula_sum              "F8 H20 N4"
_cell_length_a       8.08365
_cell_length_b       3.39127
_cell_length_c       7.89848
_cell_angle_alpha    90
_cell_angle_beta     90
_cell_angle_gamma    90

_space_group_name_H-M_alt    "P 1"
_space_group_IT_number       1

loop_
  _space_group_symop_operation_xyz
  'x, y, z'

loop_
  _atom_site_type_symbol
  _atom_site_label
  _atom_site_symmetry_multiplicity
  _atom_site_fract_x
  _atom_site_fract_y
  _atom_site_fract_z
  _atom_site_occupancy
  F   F1        1.0  0.35900  0.50000  0.00000  1.0000
  F   F2        1.0  0.64100  0.50000  0.00000  1.0000
  F   F3        1.0  0.00000  0.44100  0.14200  1.0000
  F   F4        1.0  0.50000  0.44100  0.35800  1.0000
  F   F5        1.0  0.14100  0.50000  0.50000  1.0000
  F   F6        1.0  0.85900  0.50000  0.50000  1.0000
  F   F7        1.0  0.50000  0.55900  0.64200  1.0000
  F   F8        1.0  0.00000  0.55900  0.85800  1.0000
  H   H1        1.0  0.00000  0.50000  0.00000  1.0000
  H   H2        1.0  0.50000  0.50000  0.00000  1.0000
  H   H3        1.0  0.29400  0.79000  0.15200  1.0000
  H   H4        1.0  0.70600  0.79000  0.15200  1.0000
  H   H5        1.0  0.15400  0.14300  0.20500  1.0000
  H   H6        1.0  0.84600  0.14300  0.20500  1.0000
  H   H7        1.0  0.34600  0.14300  0.29500  1.0000
  H   H8        1.0  0.65400  0.14300  0.29500  1.0000
  H   H9        1.0  0.20600  0.79000  0.34800  1.0000
  H   H10       1.0  0.79400  0.79000  0.34800  1.0000
  H   H11       1.0  0.00000  0.50000  0.50000  1.0000
  H   H12       1.0  0.50000  0.50000  0.50000  1.0000
  H   H13       1.0  0.20600  0.21000  0.65200  1.0000
  H   H14       1.0  0.79400  0.21000  0.65200  1.0000
  H   H15       1.0  0.34600  0.85700  0.70500  1.0000
  H   H16       1.0  0.65400  0.85700  0.70500  1.0000
  H   H17       1.0  0.15400  0.85700  0.79500  1.0000
  H   H18       1.0  0.84600  0.85700  0.79500  1.0000
  H   H19       1.0  0.29400  0.21000  0.84800  1.0000
  H   H20       1.0  0.70600  0.21000  0.84800  1.0000
  N   N1        1.0  0.25000  0.96700  0.25000  1.0000
  N   N2        1.0  0.75000  0.96700  0.25000  1.0000
  N   N3        1.0  0.25000  0.03300  0.75000  1.0000
  N   N4        1.0  0.75000  0.03300  0.75000  1.0000
