data_image0
_chemical_formula_structural       H4O20P4Si4
_chemical_formula_sum              "H4 O20 P4 Si4"
_cell_length_a       6.85576
_cell_length_b       6.80222
_cell_length_c       6.83467
_cell_angle_alpha    90
_cell_angle_beta     119.838
_cell_angle_gamma    90

_space_group_name_H-M_alt    "P 1"
_space_group_IT_number       1

loop_
  _space_group_symop_operation_xyz
  'x, y, z'

loop_
  _atom_site_type_symbol
  _atom_site_label
  _atom_site_symmetry_multiplicity
  _atom_site_fract_x
  _atom_site_fract_y
  _atom_site_fract_z
  _atom_site_occupancy
  H   H1        1.0  0.01870  0.98000  0.23300  1.0000
  H   H2        1.0  0.48100  0.48000  0.26700  1.0000
  H   H3        1.0  0.51900  0.52000  0.73300  1.0000
  H   H4        1.0  0.98100  0.02030  0.76700  1.0000
  O   O1        1.0  0.82500  0.50500  0.05990  1.0000
  O   O2        1.0  0.32200  0.00317  0.06460  1.0000
  O   O3        1.0  0.61000  0.73700  0.15300  1.0000
  O   O4        1.0  0.10200  0.22900  0.15500  1.0000
  O   O5        1.0  0.00391  0.83700  0.24700  1.0000
  O   O6        1.0  0.49600  0.33700  0.25300  1.0000
  O   O7        1.0  0.39800  0.72900  0.34500  1.0000
  O   O8        1.0  0.89000  0.23700  0.34700  1.0000
  O   O9        1.0  0.17800  0.50300  0.43500  1.0000
  O   O10       1.0  0.67500  0.00505  0.44000  1.0000
  O   O11       1.0  0.32500  0.99500  0.56000  1.0000
  O   O12       1.0  0.82200  0.49700  0.56500  1.0000
  O   O13       1.0  0.11000  0.76300  0.65300  1.0000
  O   O14       1.0  0.60200  0.27100  0.65500  1.0000
  O   O15       1.0  0.50400  0.66300  0.74700  1.0000
  O   O16       1.0  0.99600  0.16300  0.75300  1.0000
  O   O17       1.0  0.89800  0.77100  0.84500  1.0000
  O   O18       1.0  0.39000  0.26300  0.84700  1.0000
  O   O19       1.0  0.67800  0.99700  0.93500  1.0000
  O   O20       1.0  0.17500  0.49500  0.94000  1.0000
  P   P1        1.0  0.99700  0.37400  0.25000  1.0000
  P   P2        1.0  0.50300  0.87400  0.25000  1.0000
  P   P3        1.0  0.49700  0.12600  0.75000  1.0000
  P   P4        1.0  0.00251  0.62600  0.75000  1.0000
  Si  Si1       1.0  0.24800  0.24900  0.00126  1.0000
  Si  Si2       1.0  0.25200  0.74900  0.49900  1.0000
  Si  Si3       1.0  0.74800  0.25100  0.50100  1.0000
  Si  Si4       1.0  0.75200  0.75100  0.99900  1.0000
