data_image0
_chemical_formula_structural       F12H8O8P2Sb2
_chemical_formula_sum              "F12 H8 O8 P2 Sb2"
_cell_length_a       5.09757
_cell_length_b       5.09757
_cell_length_c       13.154
_cell_angle_alpha    86.639
_cell_angle_beta     86.639
_cell_angle_gamma    103.897

_space_group_name_H-M_alt    "P 1"
_space_group_IT_number       1

loop_
  _space_group_symop_operation_xyz
  'x, y, z'

loop_
  _atom_site_type_symbol
  _atom_site_label
  _atom_site_symmetry_multiplicity
  _atom_site_fract_x
  _atom_site_fract_y
  _atom_site_fract_z
  _atom_site_occupancy
  F   F1        1.0  0.66400  0.86000  0.04530  1.0000
  F   F2        1.0  0.80400  0.32100  0.05310  1.0000
  F   F3        1.0  0.46900  0.93000  0.23400  1.0000
  F   F4        1.0  0.06980  0.53100  0.26600  1.0000
  F   F5        1.0  0.67900  0.19600  0.44700  1.0000
  F   F6        1.0  0.14000  0.33600  0.45500  1.0000
  F   F7        1.0  0.86000  0.66400  0.54500  1.0000
  F   F8        1.0  0.32100  0.80400  0.55300  1.0000
  F   F9        1.0  0.93000  0.46900  0.73400  1.0000
  F   F10       1.0  0.53100  0.06980  0.76600  1.0000
  F   F11       1.0  0.19600  0.67900  0.94700  1.0000
  F   F12       1.0  0.33600  0.14000  0.95500  1.0000
  H   H1        1.0  0.75400  0.10700  0.05170  1.0000
  H   H2        1.0  0.20000  0.20900  0.13400  1.0000
  H   H3        1.0  0.79100  0.80000  0.36600  1.0000
  H   H4        1.0  0.89300  0.24600  0.44800  1.0000
  H   H5        1.0  0.10700  0.75400  0.55200  1.0000
  H   H6        1.0  0.20900  0.20000  0.63400  1.0000
  H   H7        1.0  0.80000  0.79100  0.86600  1.0000
  H   H8        1.0  0.24600  0.89300  0.94800  1.0000
  O   O1        1.0  0.32300  0.41200  0.12900  1.0000
  O   O2        1.0  0.05920  0.93500  0.15100  1.0000
  O   O3        1.0  0.06460  0.94100  0.34900  1.0000
  O   O4        1.0  0.58800  0.67700  0.37100  1.0000
  O   O5        1.0  0.41200  0.32300  0.62900  1.0000
  O   O6        1.0  0.93500  0.05920  0.65100  1.0000
  O   O7        1.0  0.94100  0.06460  0.84900  1.0000
  O   O8        1.0  0.67700  0.58800  0.87100  1.0000
  P   P1        1.0  0.15400  0.84600  0.25000  1.0000
  P   P2        1.0  0.84600  0.15400  0.75000  1.0000
  Sb  Sb1       1.0  0.50000  0.50000  0.00000  1.0000
  Sb  Sb2       1.0  0.50000  0.50000  0.50000  1.0000
