data_image0
_chemical_formula_structural       Dy8O16Se4Si4
_chemical_formula_sum              "Dy8 O16 Se4 Si4"
_cell_length_a       6.01063
_cell_length_b       6.93374
_cell_length_c       10.7559
_cell_angle_alpha    90
_cell_angle_beta     90
_cell_angle_gamma    90

_space_group_name_H-M_alt    "P 1"
_space_group_IT_number       1

loop_
  _space_group_symop_operation_xyz
  'x, y, z'

loop_
  _atom_site_type_symbol
  _atom_site_label
  _atom_site_symmetry_multiplicity
  _atom_site_fract_x
  _atom_site_fract_y
  _atom_site_fract_z
  _atom_site_occupancy
  Dy  Dy1       1.0  0.60800  0.25000  0.00000  1.0000
  Dy  Dy2       1.0  0.39200  0.75000  0.00000  1.0000
  Dy  Dy3       1.0  0.13200  0.47000  0.25000  1.0000
  Dy  Dy4       1.0  0.86800  0.97000  0.25000  1.0000
  Dy  Dy5       1.0  0.60800  0.25000  0.50000  1.0000
  Dy  Dy6       1.0  0.39200  0.75000  0.50000  1.0000
  Dy  Dy7       1.0  0.13200  0.02960  0.75000  1.0000
  Dy  Dy8       1.0  0.86800  0.53000  0.75000  1.0000
  O   O1        1.0  0.27600  0.43200  0.03210  1.0000
  O   O2        1.0  0.72400  0.93200  0.03210  1.0000
  O   O3        1.0  0.94500  0.24000  0.12100  1.0000
  O   O4        1.0  0.05490  0.74000  0.12100  1.0000
  O   O5        1.0  0.94500  0.24000  0.37900  1.0000
  O   O6        1.0  0.05490  0.74000  0.37900  1.0000
  O   O7        1.0  0.27600  0.43200  0.46800  1.0000
  O   O8        1.0  0.72400  0.93200  0.46800  1.0000
  O   O9        1.0  0.27600  0.06790  0.53200  1.0000
  O   O10       1.0  0.72400  0.56800  0.53200  1.0000
  O   O11       1.0  0.94500  0.26000  0.62100  1.0000
  O   O12       1.0  0.05490  0.76000  0.62100  1.0000
  O   O13       1.0  0.94500  0.26000  0.87900  1.0000
  O   O14       1.0  0.05490  0.76000  0.87900  1.0000
  O   O15       1.0  0.27600  0.06790  0.96800  1.0000
  O   O16       1.0  0.72400  0.56800  0.96800  1.0000
  Se  Se1       1.0  0.42300  0.12300  0.25000  1.0000
  Se  Se2       1.0  0.57700  0.62300  0.25000  1.0000
  Se  Se3       1.0  0.42300  0.37700  0.75000  1.0000
  Se  Se4       1.0  0.57700  0.87700  0.75000  1.0000
  Si  Si1       1.0  0.11300  0.25000  0.00000  1.0000
  Si  Si2       1.0  0.88700  0.75000  0.00000  1.0000
  Si  Si3       1.0  0.11300  0.25000  0.50000  1.0000
  Si  Si4       1.0  0.88700  0.75000  0.50000  1.0000
