data_image0
_chemical_formula_structural       Ba2O20Si6Yb4
_chemical_formula_sum              "Ba2 O20 Si6 Yb4"
_cell_length_a       5.40795
_cell_length_b       11.9093
_cell_length_c       6.90827
_cell_angle_alpha    90
_cell_angle_beta     106.486
_cell_angle_gamma    90

_space_group_name_H-M_alt    "P 1"
_space_group_IT_number       1

loop_
  _space_group_symop_operation_xyz
  'x, y, z'

loop_
  _atom_site_type_symbol
  _atom_site_label
  _atom_site_symmetry_multiplicity
  _atom_site_fract_x
  _atom_site_fract_y
  _atom_site_fract_z
  _atom_site_occupancy
  Ba  Ba1       1.0  0.75200  0.25000  0.01570  1.0000
  Ba  Ba2       1.0  0.24800  0.75000  0.98400  1.0000
  O   O1        1.0  0.19500  0.13400  0.00845  1.0000
  O   O2        1.0  0.19500  0.36600  0.00845  1.0000
  O   O3        1.0  0.41700  0.55700  0.17600  1.0000
  O   O4        1.0  0.41700  0.94300  0.17600  1.0000
  O   O5        1.0  0.57400  0.13900  0.34400  1.0000
  O   O6        1.0  0.57400  0.36100  0.34400  1.0000
  O   O7        1.0  0.10600  0.05630  0.34500  1.0000
  O   O8        1.0  0.10600  0.44400  0.34500  1.0000
  O   O9        1.0  0.11600  0.75000  0.35100  1.0000
  O   O10       1.0  0.62100  0.75000  0.38900  1.0000
  O   O11       1.0  0.37900  0.25000  0.61100  1.0000
  O   O12       1.0  0.88400  0.25000  0.64900  1.0000
  O   O13       1.0  0.89400  0.55600  0.65500  1.0000
  O   O14       1.0  0.89400  0.94400  0.65500  1.0000
  O   O15       1.0  0.42600  0.63900  0.65600  1.0000
  O   O16       1.0  0.42600  0.86100  0.65600  1.0000
  O   O17       1.0  0.58300  0.05710  0.82400  1.0000
  O   O18       1.0  0.58300  0.44300  0.82400  1.0000
  O   O19       1.0  0.80500  0.63400  0.99200  1.0000
  O   O20       1.0  0.80500  0.86600  0.99200  1.0000
  Si  Si1       1.0  0.31400  0.06540  0.21800  1.0000
  Si  Si2       1.0  0.31400  0.43500  0.21800  1.0000
  Si  Si3       1.0  0.59900  0.25000  0.49600  1.0000
  Si  Si4       1.0  0.40100  0.75000  0.50400  1.0000
  Si  Si5       1.0  0.68600  0.56500  0.78200  1.0000
  Si  Si6       1.0  0.68600  0.93500  0.78200  1.0000
  Yb  Yb1       1.0  0.84800  0.60000  0.32300  1.0000
  Yb  Yb2       1.0  0.84800  0.90000  0.32300  1.0000
  Yb  Yb3       1.0  0.15200  0.09960  0.67700  1.0000
  Yb  Yb4       1.0  0.15200  0.40000  0.67700  1.0000
