data_image0
_chemical_formula_structural       Al4Bi4Cl24
_chemical_formula_sum              "Al4 Bi4 Cl24"
_cell_length_a       7.73998
_cell_length_b       11.9828
_cell_length_c       10.4332
_cell_angle_alpha    90
_cell_angle_beta     95.0978
_cell_angle_gamma    90

_space_group_name_H-M_alt    "P 1"
_space_group_IT_number       1

loop_
  _space_group_symop_operation_xyz
  'x, y, z'

loop_
  _atom_site_type_symbol
  _atom_site_label
  _atom_site_symmetry_multiplicity
  _atom_site_fract_x
  _atom_site_fract_y
  _atom_site_fract_z
  _atom_site_occupancy
  Al  Al1       1.0  0.50300  0.72700  0.22100  1.0000
  Al  Al2       1.0  0.49700  0.22700  0.27900  1.0000
  Al  Al3       1.0  0.50300  0.77300  0.72100  1.0000
  Al  Al4       1.0  0.49700  0.27300  0.77900  1.0000
  Bi  Bi1       1.0  0.19400  0.46300  0.14900  1.0000
  Bi  Bi2       1.0  0.80600  0.96300  0.35100  1.0000
  Bi  Bi3       1.0  0.19400  0.03710  0.64900  1.0000
  Bi  Bi4       1.0  0.80600  0.53700  0.85100  1.0000
  Cl  Cl1       1.0  0.01270  0.63700  0.04130  1.0000
  Cl  Cl2       1.0  0.50100  0.62900  0.04870  1.0000
  Cl  Cl3       1.0  0.25000  0.21400  0.16400  1.0000
  Cl  Cl4       1.0  0.47700  0.90200  0.17700  1.0000
  Cl  Cl5       1.0  0.70800  0.16000  0.18100  1.0000
  Cl  Cl6       1.0  0.01120  0.93200  0.18800  1.0000
  Cl  Cl7       1.0  0.98900  0.43200  0.31200  1.0000
  Cl  Cl8       1.0  0.29200  0.66000  0.31900  1.0000
  Cl  Cl9       1.0  0.52300  0.40200  0.32300  1.0000
  Cl  Cl10      1.0  0.75000  0.71400  0.33600  1.0000
  Cl  Cl11      1.0  0.49900  0.12900  0.45100  1.0000
  Cl  Cl12      1.0  0.98700  0.13700  0.45900  1.0000
  Cl  Cl13      1.0  0.01270  0.86300  0.54100  1.0000
  Cl  Cl14      1.0  0.50100  0.87100  0.54900  1.0000
  Cl  Cl15      1.0  0.25000  0.28600  0.66400  1.0000
  Cl  Cl16      1.0  0.47700  0.59800  0.67700  1.0000
  Cl  Cl17      1.0  0.70800  0.34000  0.68100  1.0000
  Cl  Cl18      1.0  0.01120  0.56800  0.68800  1.0000
  Cl  Cl19      1.0  0.98900  0.06790  0.81200  1.0000
  Cl  Cl20      1.0  0.29200  0.84000  0.81900  1.0000
  Cl  Cl21      1.0  0.52300  0.09770  0.82300  1.0000
  Cl  Cl22      1.0  0.75000  0.78600  0.83600  1.0000
  Cl  Cl23      1.0  0.49900  0.37100  0.95100  1.0000
  Cl  Cl24      1.0  0.98700  0.36300  0.95900  1.0000
