data_image0
_chemical_formula_structural       C12N18Nd2
_chemical_formula_sum              "C12 N18 Nd2"
_cell_length_a       6.85744
_cell_length_b       6.85744
_cell_length_c       9.8605
_cell_angle_alpha    90
_cell_angle_beta     90
_cell_angle_gamma    108.997

_space_group_name_H-M_alt    "P 1"
_space_group_IT_number       1

loop_
  _space_group_symop_operation_xyz
  'x, y, z'

loop_
  _atom_site_type_symbol
  _atom_site_label
  _atom_site_symmetry_multiplicity
  _atom_site_fract_x
  _atom_site_fract_y
  _atom_site_fract_z
  _atom_site_occupancy
  C   C1        1.0  0.00150  0.28500  0.04890  1.0000
  C   C2        1.0  0.71500  0.99900  0.04890  1.0000
  C   C3        1.0  0.44500  0.27100  0.25000  1.0000
  C   C4        1.0  0.72900  0.55500  0.25000  1.0000
  C   C5        1.0  0.00150  0.28500  0.45100  1.0000
  C   C6        1.0  0.71500  0.99900  0.45100  1.0000
  C   C7        1.0  0.28500  0.00150  0.54900  1.0000
  C   C8        1.0  0.99900  0.71500  0.54900  1.0000
  C   C9        1.0  0.27100  0.44500  0.75000  1.0000
  C   C10       1.0  0.55500  0.72900  0.75000  1.0000
  C   C11       1.0  0.28500  0.00150  0.95100  1.0000
  C   C12       1.0  0.99900  0.71500  0.95100  1.0000
  N   N1        1.0  0.15800  0.84200  0.01180  1.0000
  N   N2        1.0  0.14800  0.41100  0.09390  1.0000
  N   N3        1.0  0.58900  0.85200  0.09390  1.0000
  N   N4        1.0  0.35600  0.09250  0.25000  1.0000
  N   N5        1.0  0.53000  0.47000  0.25000  1.0000
  N   N6        1.0  0.90800  0.64400  0.25000  1.0000
  N   N7        1.0  0.14800  0.41100  0.40600  1.0000
  N   N8        1.0  0.58900  0.85200  0.40600  1.0000
  N   N9        1.0  0.15800  0.84200  0.48800  1.0000
  N   N10       1.0  0.84200  0.15800  0.51200  1.0000
  N   N11       1.0  0.41100  0.14800  0.59400  1.0000
  N   N12       1.0  0.85200  0.58900  0.59400  1.0000
  N   N13       1.0  0.09250  0.35600  0.75000  1.0000
  N   N14       1.0  0.47000  0.53000  0.75000  1.0000
  N   N15       1.0  0.64400  0.90800  0.75000  1.0000
  N   N16       1.0  0.41100  0.14800  0.90600  1.0000
  N   N17       1.0  0.85200  0.58900  0.90600  1.0000
  N   N18       1.0  0.84200  0.15800  0.98800  1.0000
  Nd  Nd1       1.0  0.28800  0.71200  0.25000  1.0000
  Nd  Nd2       1.0  0.71200  0.28800  0.75000  1.0000
