data_image0
_chemical_formula_structural       C12La2N18
_chemical_formula_sum              "C12 La2 N18"
_cell_length_a       6.94309
_cell_length_b       6.94309
_cell_length_c       9.92234
_cell_angle_alpha    90
_cell_angle_beta     90
_cell_angle_gamma    108.873

_space_group_name_H-M_alt    "P 1"
_space_group_IT_number       1

loop_
  _space_group_symop_operation_xyz
  'x, y, z'

loop_
  _atom_site_type_symbol
  _atom_site_label
  _atom_site_symmetry_multiplicity
  _atom_site_fract_x
  _atom_site_fract_y
  _atom_site_fract_z
  _atom_site_occupancy
  C   C1        1.0  0.71500  0.00147  0.05200  1.0000
  C   C2        1.0  0.99900  0.28500  0.05200  1.0000
  C   C3        1.0  0.44500  0.27400  0.25000  1.0000
  C   C4        1.0  0.72600  0.55500  0.25000  1.0000
  C   C5        1.0  0.71500  0.00147  0.44800  1.0000
  C   C6        1.0  0.99900  0.28500  0.44800  1.0000
  C   C7        1.0  0.00147  0.71500  0.55200  1.0000
  C   C8        1.0  0.28500  0.99900  0.55200  1.0000
  C   C9        1.0  0.27400  0.44500  0.75000  1.0000
  C   C10       1.0  0.55500  0.72600  0.75000  1.0000
  C   C11       1.0  0.00147  0.71500  0.94800  1.0000
  C   C12       1.0  0.28500  0.99900  0.94800  1.0000
  La  La1       1.0  0.28700  0.71300  0.25000  1.0000
  La  La2       1.0  0.71300  0.28700  0.75000  1.0000
  N   N1        1.0  0.16300  0.83700  0.00623  1.0000
  N   N2        1.0  0.14700  0.40600  0.09410  1.0000
  N   N3        1.0  0.59400  0.85300  0.09410  1.0000
  N   N4        1.0  0.35700  0.09790  0.25000  1.0000
  N   N5        1.0  0.53000  0.47000  0.25000  1.0000
  N   N6        1.0  0.90200  0.64300  0.25000  1.0000
  N   N7        1.0  0.14700  0.40600  0.40600  1.0000
  N   N8        1.0  0.59400  0.85300  0.40600  1.0000
  N   N9        1.0  0.16300  0.83700  0.49400  1.0000
  N   N10       1.0  0.83700  0.16300  0.50600  1.0000
  N   N11       1.0  0.40600  0.14700  0.59400  1.0000
  N   N12       1.0  0.85300  0.59400  0.59400  1.0000
  N   N13       1.0  0.09790  0.35700  0.75000  1.0000
  N   N14       1.0  0.47000  0.53000  0.75000  1.0000
  N   N15       1.0  0.64300  0.90200  0.75000  1.0000
  N   N16       1.0  0.40600  0.14700  0.90600  1.0000
  N   N17       1.0  0.85300  0.59400  0.90600  1.0000
  N   N18       1.0  0.83700  0.16300  0.99400  1.0000
