data_image0
_chemical_formula_structural       CsK5S17Sn5Zn4
_chemical_formula_sum              "Cs1 K5 S17 Sn5 Zn4"
_cell_length_a       9.64783
_cell_length_b       10.9696
_cell_length_c       10.9696
_cell_angle_alpha    101.15
_cell_angle_beta     63.9118
_cell_angle_gamma    116.088

_space_group_name_H-M_alt    "P 1"
_space_group_IT_number       1

loop_
  _space_group_symop_operation_xyz
  'x, y, z'

loop_
  _atom_site_type_symbol
  _atom_site_label
  _atom_site_symmetry_multiplicity
  _atom_site_fract_x
  _atom_site_fract_y
  _atom_site_fract_z
  _atom_site_occupancy
  Cs  Cs1       1.0  0.50000  0.00000  0.00000  1.0000
  K   K1        1.0  0.48900  0.50000  0.02170  1.0000
  K   K2        1.0  0.01080  0.02170  0.50000  1.0000
  K   K3        1.0  0.75000  0.50000  0.50000  1.0000
  K   K4        1.0  0.48900  0.97800  0.50000  1.0000
  K   K5        1.0  0.01080  0.50000  0.97800  1.0000
  S   S1        1.0  0.85400  0.14300  0.14300  1.0000
  S   S2        1.0  0.00280  0.85700  0.14300  1.0000
  S   S3        1.0  0.26000  0.21800  0.21800  1.0000
  S   S4        1.0  0.52200  0.78200  0.21800  1.0000
  S   S5        1.0  0.11100  0.50600  0.22100  1.0000
  S   S6        1.0  0.66900  0.49400  0.22100  1.0000
  S   S7        1.0  0.39600  0.22100  0.49400  1.0000
  S   S8        1.0  0.11100  0.77900  0.49400  1.0000
  S   S9        1.0  0.25000  0.50000  0.50000  1.0000
  S   S10       1.0  0.82500  0.22100  0.50600  1.0000
  S   S11       1.0  0.66900  0.77900  0.50600  1.0000
  S   S12       1.0  0.82500  0.49400  0.77900  1.0000
  S   S13       1.0  0.39600  0.50600  0.77900  1.0000
  S   S14       1.0  0.95800  0.21800  0.78200  1.0000
  S   S15       1.0  0.26000  0.78200  0.78200  1.0000
  S   S16       1.0  0.28800  0.14300  0.85700  1.0000
  S   S17       1.0  0.85400  0.85700  0.85700  1.0000
  Sn  Sn1       1.0  0.00000  0.00000  0.00000  1.0000
  Sn  Sn2       1.0  0.02570  0.27600  0.27600  1.0000
  Sn  Sn3       1.0  0.69800  0.72400  0.27600  1.0000
  Sn  Sn4       1.0  0.02570  0.72400  0.72400  1.0000
  Sn  Sn5       1.0  0.25000  0.27600  0.72400  1.0000
  Zn  Zn1       1.0  0.38900  0.36200  0.36200  1.0000
  Zn  Zn2       1.0  0.24900  0.63800  0.36200  1.0000
  Zn  Zn3       1.0  0.97200  0.36200  0.63800  1.0000
  Zn  Zn4       1.0  0.38900  0.63800  0.63800  1.0000
