data_image0
_chemical_formula_structural       C12Cs4Fe2N12Na2
_chemical_formula_sum              "C12 Cs4 Fe2 N12 Na2"
_cell_length_a       7.49787
_cell_length_b       7.62799
_cell_length_c       10.7613
_cell_angle_alpha    90
_cell_angle_beta     89.9541
_cell_angle_gamma    90

_space_group_name_H-M_alt    "P 1"
_space_group_IT_number       1

loop_
  _space_group_symop_operation_xyz
  'x, y, z'

loop_
  _atom_site_type_symbol
  _atom_site_label
  _atom_site_symmetry_multiplicity
  _atom_site_fract_x
  _atom_site_fract_y
  _atom_site_fract_z
  _atom_site_occupancy
  C   C1        1.0  0.79500  0.14200  0.01990  1.0000
  C   C2        1.0  0.85800  0.79700  0.02290  1.0000
  C   C3        1.0  0.04190  0.00733  0.17400  1.0000
  C   C4        1.0  0.45800  0.50700  0.32600  1.0000
  C   C5        1.0  0.64200  0.29700  0.47700  1.0000
  C   C6        1.0  0.70500  0.64200  0.48000  1.0000
  C   C7        1.0  0.29500  0.35800  0.52000  1.0000
  C   C8        1.0  0.35800  0.70300  0.52300  1.0000
  C   C9        1.0  0.54200  0.49300  0.67400  1.0000
  C   C10       1.0  0.95800  0.99300  0.82600  1.0000
  C   C11       1.0  0.14200  0.20300  0.97700  1.0000
  C   C12       1.0  0.20500  0.85800  0.98000  1.0000
  Cs  Cs1       1.0  0.99100  0.45900  0.25000  1.0000
  Cs  Cs2       1.0  0.50900  0.95900  0.25000  1.0000
  Cs  Cs3       1.0  0.49100  0.04080  0.75000  1.0000
  Cs  Cs4       1.0  0.00879  0.54100  0.75000  1.0000
  Fe  Fe1       1.0  0.00000  0.00000  0.00000  1.0000
  Fe  Fe2       1.0  0.50000  0.50000  0.50000  1.0000
  N   N1        1.0  0.66600  0.22900  0.03320  1.0000
  N   N2        1.0  0.77000  0.67100  0.03880  1.0000
  N   N3        1.0  0.43000  0.51400  0.21900  1.0000
  N   N4        1.0  0.06970  0.01400  0.28100  1.0000
  N   N5        1.0  0.73000  0.17100  0.46100  1.0000
  N   N6        1.0  0.83400  0.72900  0.46700  1.0000
  N   N7        1.0  0.16600  0.27100  0.53300  1.0000
  N   N8        1.0  0.27000  0.82900  0.53900  1.0000
  N   N9        1.0  0.93000  0.98600  0.71900  1.0000
  N   N10       1.0  0.57000  0.48600  0.78100  1.0000
  N   N11       1.0  0.23000  0.32900  0.96100  1.0000
  N   N12       1.0  0.33400  0.77100  0.96700  1.0000
  Na  Na1       1.0  0.50000  0.50000  0.00000  1.0000
  Na  Na2       1.0  0.00000  0.00000  0.50000  1.0000
