data_image0
_chemical_formula_structural       Cl8F8I8O8
_chemical_formula_sum              "Cl8 F8 I8 O8"
_cell_length_a       12.6154
_cell_length_b       6.88955
_cell_length_c       7.44501
_cell_angle_alpha    90
_cell_angle_beta     94.9823
_cell_angle_gamma    90

_space_group_name_H-M_alt    "P 1"
_space_group_IT_number       1

loop_
  _space_group_symop_operation_xyz
  'x, y, z'

loop_
  _atom_site_type_symbol
  _atom_site_label
  _atom_site_symmetry_multiplicity
  _atom_site_fract_x
  _atom_site_fract_y
  _atom_site_fract_z
  _atom_site_occupancy
  Cl  Cl1       1.0  0.14900  0.73500  0.03960  1.0000
  Cl  Cl2       1.0  0.93800  0.62900  0.21300  1.0000
  Cl  Cl3       1.0  0.06150  0.12900  0.28700  1.0000
  Cl  Cl4       1.0  0.85100  0.23500  0.46000  1.0000
  Cl  Cl5       1.0  0.14900  0.76500  0.54000  1.0000
  Cl  Cl6       1.0  0.93800  0.87100  0.71300  1.0000
  Cl  Cl7       1.0  0.06150  0.37100  0.78700  1.0000
  Cl  Cl8       1.0  0.85100  0.26500  0.96000  1.0000
  F   F1        1.0  0.57600  0.62900  0.08250  1.0000
  F   F2        1.0  0.39000  0.67100  0.24200  1.0000
  F   F3        1.0  0.61000  0.17100  0.25800  1.0000
  F   F4        1.0  0.42400  0.12900  0.41800  1.0000
  F   F5        1.0  0.57600  0.87100  0.58200  1.0000
  F   F6        1.0  0.39000  0.82900  0.74200  1.0000
  F   F7        1.0  0.61000  0.32900  0.75800  1.0000
  F   F8        1.0  0.42400  0.37100  0.91800  1.0000
  I   I1        1.0  0.21500  0.04110  0.14500  1.0000
  I   I2        1.0  0.58700  0.89800  0.19000  1.0000
  I   I3        1.0  0.41300  0.39800  0.31000  1.0000
  I   I4        1.0  0.78500  0.54100  0.35500  1.0000
  I   I5        1.0  0.21500  0.45900  0.64500  1.0000
  I   I6        1.0  0.58700  0.60200  0.69000  1.0000
  I   I7        1.0  0.41300  0.10200  0.81000  1.0000
  I   I8        1.0  0.78500  0.95900  0.85500  1.0000
  O   O1        1.0  0.39400  0.02250  0.04230  1.0000
  O   O2        1.0  0.27500  0.35100  0.23100  1.0000
  O   O3        1.0  0.72500  0.85100  0.26900  1.0000
  O   O4        1.0  0.60600  0.52200  0.45800  1.0000
  O   O5        1.0  0.39400  0.47800  0.54200  1.0000
  O   O6        1.0  0.27500  0.14900  0.73100  1.0000
  O   O7        1.0  0.72500  0.64900  0.76900  1.0000
  O   O8        1.0  0.60600  0.97800  0.95800  1.0000
