data_image0
_chemical_formula_structural       B4Br8Cl12N4P4
_chemical_formula_sum              "B4 Br8 Cl12 N4 P4"
_cell_length_a       9.08921
_cell_length_b       9.08921
_cell_length_c       10.3777
_cell_angle_alpha    90
_cell_angle_beta     90
_cell_angle_gamma    96.0941

_space_group_name_H-M_alt    "P 1"
_space_group_IT_number       1

loop_
  _space_group_symop_operation_xyz
  'x, y, z'

loop_
  _atom_site_type_symbol
  _atom_site_label
  _atom_site_symmetry_multiplicity
  _atom_site_fract_x
  _atom_site_fract_y
  _atom_site_fract_z
  _atom_site_occupancy
  B   B1        1.0  0.58100  0.41900  0.00000  1.0000
  B   B2        1.0  0.41900  0.58100  0.00000  1.0000
  B   B3        1.0  0.91900  0.08120  0.50000  1.0000
  B   B4        1.0  0.08120  0.91900  0.50000  1.0000
  Br  Br1       1.0  0.53300  0.19700  0.02190  1.0000
  Br  Br2       1.0  0.19700  0.53300  0.02190  1.0000
  Br  Br3       1.0  0.69700  0.03290  0.47800  1.0000
  Br  Br4       1.0  0.03290  0.69700  0.47800  1.0000
  Br  Br5       1.0  0.96700  0.30300  0.52200  1.0000
  Br  Br6       1.0  0.30300  0.96700  0.52200  1.0000
  Br  Br7       1.0  0.80300  0.46700  0.97800  1.0000
  Br  Br8       1.0  0.46700  0.80300  0.97800  1.0000
  Cl  Cl1       1.0  0.95200  0.19000  0.16800  1.0000
  Cl  Cl2       1.0  0.19000  0.95200  0.16800  1.0000
  Cl  Cl3       1.0  0.84800  0.84800  0.17200  1.0000
  Cl  Cl4       1.0  0.34800  0.34800  0.32800  1.0000
  Cl  Cl5       1.0  0.69000  0.45200  0.33200  1.0000
  Cl  Cl6       1.0  0.45200  0.69000  0.33200  1.0000
  Cl  Cl7       1.0  0.54800  0.31000  0.66800  1.0000
  Cl  Cl8       1.0  0.31000  0.54800  0.66800  1.0000
  Cl  Cl9       1.0  0.65200  0.65200  0.67200  1.0000
  Cl  Cl10      1.0  0.15200  0.15200  0.82800  1.0000
  Cl  Cl11      1.0  0.81000  0.04760  0.83200  1.0000
  Cl  Cl12      1.0  0.04760  0.81000  0.83200  1.0000
  N   N1        1.0  0.51300  0.51300  0.10500  1.0000
  N   N2        1.0  0.01260  0.01260  0.39500  1.0000
  N   N3        1.0  0.98700  0.98700  0.60500  1.0000
  N   N4        1.0  0.48700  0.48700  0.89500  1.0000
  P   P1        1.0  0.00102  0.00102  0.24400  1.0000
  P   P2        1.0  0.50100  0.50100  0.25600  1.0000
  P   P3        1.0  0.49900  0.49900  0.74400  1.0000
  P   P4        1.0  0.99900  0.99900  0.75600  1.0000
