data_image0
_chemical_formula_structural       Cs12S16Sb4
_chemical_formula_sum              "Cs12 S16 Sb4"
_cell_length_a       10.0606
_cell_length_b       11.8468
_cell_length_c       10.2454
_cell_angle_alpha    90
_cell_angle_beta     90
_cell_angle_gamma    90

_space_group_name_H-M_alt    "P 1"
_space_group_IT_number       1

loop_
  _space_group_symop_operation_xyz
  'x, y, z'

loop_
  _atom_site_type_symbol
  _atom_site_label
  _atom_site_symmetry_multiplicity
  _atom_site_fract_x
  _atom_site_fract_y
  _atom_site_fract_z
  _atom_site_occupancy
  Cs  Cs1       1.0  0.14600  0.75000  0.08220  1.0000
  Cs  Cs2       1.0  0.54800  0.04280  0.20500  1.0000
  Cs  Cs3       1.0  0.54800  0.45700  0.20500  1.0000
  Cs  Cs4       1.0  0.04840  0.04280  0.29500  1.0000
  Cs  Cs5       1.0  0.04840  0.45700  0.29500  1.0000
  Cs  Cs6       1.0  0.64600  0.75000  0.41800  1.0000
  Cs  Cs7       1.0  0.35400  0.25000  0.58200  1.0000
  Cs  Cs8       1.0  0.95200  0.54300  0.70500  1.0000
  Cs  Cs9       1.0  0.95200  0.95700  0.70500  1.0000
  Cs  Cs10      1.0  0.45200  0.54300  0.79500  1.0000
  Cs  Cs11      1.0  0.45200  0.95700  0.79500  1.0000
  Cs  Cs12      1.0  0.85400  0.25000  0.91800  1.0000
  S   S1        1.0  0.84000  0.58400  0.04280  1.0000
  S   S2        1.0  0.84000  0.91600  0.04280  1.0000
  S   S3        1.0  0.51200  0.75000  0.07980  1.0000
  S   S4        1.0  0.29800  0.25000  0.24800  1.0000
  S   S5        1.0  0.79800  0.25000  0.25200  1.0000
  S   S6        1.0  0.01210  0.75000  0.42000  1.0000
  S   S7        1.0  0.34000  0.58400  0.45700  1.0000
  S   S8        1.0  0.34000  0.91600  0.45700  1.0000
  S   S9        1.0  0.66000  0.08410  0.54300  1.0000
  S   S10       1.0  0.66000  0.41600  0.54300  1.0000
  S   S11       1.0  0.98800  0.25000  0.58000  1.0000
  S   S12       1.0  0.20200  0.75000  0.74800  1.0000
  S   S13       1.0  0.70200  0.75000  0.75200  1.0000
  S   S14       1.0  0.48800  0.25000  0.92000  1.0000
  S   S15       1.0  0.16000  0.08410  0.95700  1.0000
  S   S16       1.0  0.16000  0.41600  0.95700  1.0000
  Sb  Sb1       1.0  0.27400  0.25000  0.01780  1.0000
  Sb  Sb2       1.0  0.77400  0.25000  0.48200  1.0000
  Sb  Sb3       1.0  0.22600  0.75000  0.51800  1.0000
  Sb  Sb4       1.0  0.72600  0.75000  0.98200  1.0000
