data_image0
_chemical_formula_structural       As12O4Sr12Ta4
_chemical_formula_sum              "As12 O4 Sr12 Ta4"
_cell_length_a       6.43251
_cell_length_b       10.7571
_cell_length_c       13.0211
_cell_angle_alpha    90
_cell_angle_beta     90
_cell_angle_gamma    90

_space_group_name_H-M_alt    "P 1"
_space_group_IT_number       1

loop_
  _space_group_symop_operation_xyz
  'x, y, z'

loop_
  _atom_site_type_symbol
  _atom_site_label
  _atom_site_symmetry_multiplicity
  _atom_site_fract_x
  _atom_site_fract_y
  _atom_site_fract_z
  _atom_site_occupancy
  As  As1       1.0  0.76400  0.54800  0.12400  1.0000
  As  As2       1.0  0.76400  0.95200  0.12400  1.0000
  As  As3       1.0  0.26400  0.25000  0.13700  1.0000
  As  As4       1.0  0.76400  0.25000  0.36300  1.0000
  As  As5       1.0  0.26400  0.54800  0.37600  1.0000
  As  As6       1.0  0.26400  0.95200  0.37600  1.0000
  As  As7       1.0  0.73600  0.04800  0.62400  1.0000
  As  As8       1.0  0.73600  0.45200  0.62400  1.0000
  As  As9       1.0  0.23600  0.75000  0.63700  1.0000
  As  As10      1.0  0.73600  0.75000  0.86300  1.0000
  As  As11      1.0  0.23600  0.04800  0.87600  1.0000
  As  As12      1.0  0.23600  0.45200  0.87600  1.0000
  O   O1        1.0  0.36500  0.75000  0.05510  1.0000
  O   O2        1.0  0.86500  0.75000  0.44500  1.0000
  O   O3        1.0  0.13500  0.25000  0.55500  1.0000
  O   O4        1.0  0.63500  0.25000  0.94500  1.0000
  Sr  Sr1       1.0  0.76800  0.25000  0.12800  1.0000
  Sr  Sr2       1.0  0.25400  0.54300  0.12800  1.0000
  Sr  Sr3       1.0  0.25400  0.95700  0.12800  1.0000
  Sr  Sr4       1.0  0.75400  0.54300  0.37200  1.0000
  Sr  Sr5       1.0  0.75400  0.95700  0.37200  1.0000
  Sr  Sr6       1.0  0.26800  0.25000  0.37200  1.0000
  Sr  Sr7       1.0  0.73200  0.75000  0.62800  1.0000
  Sr  Sr8       1.0  0.24600  0.04300  0.62800  1.0000
  Sr  Sr9       1.0  0.24600  0.45700  0.62800  1.0000
  Sr  Sr10      1.0  0.74600  0.04300  0.87200  1.0000
  Sr  Sr11      1.0  0.74600  0.45700  0.87200  1.0000
  Sr  Sr12      1.0  0.23200  0.75000  0.87200  1.0000
  Ta  Ta1       1.0  0.65900  0.75000  0.04860  1.0000
  Ta  Ta2       1.0  0.15900  0.75000  0.45100  1.0000
  Ta  Ta3       1.0  0.84100  0.25000  0.54900  1.0000
  Ta  Ta4       1.0  0.34100  0.25000  0.95100  1.0000
