data_image0
_chemical_formula_structural       F6Na2O16Pr4S4
_chemical_formula_sum              "F6 Na2 O16 Pr4 S4"
_cell_length_a       6.869
_cell_length_b       8.15566
_cell_length_c       8.474
_cell_angle_alpha    113.314
_cell_angle_beta     113.91
_cell_angle_gamma    90

_space_group_name_H-M_alt    "P 1"
_space_group_IT_number       1

loop_
  _space_group_symop_operation_xyz
  'x, y, z'

loop_
  _atom_site_type_symbol
  _atom_site_label
  _atom_site_symmetry_multiplicity
  _atom_site_fract_x
  _atom_site_fract_y
  _atom_site_fract_z
  _atom_site_occupancy
  F   F1        1.0  0.29100  0.25000  0.00000  1.0000
  F   F2        1.0  0.70900  0.75000  0.00000  1.0000
  F   F3        1.0  0.10300  0.66000  0.08810  1.0000
  F   F4        1.0  0.98500  0.16000  0.08810  1.0000
  F   F5        1.0  0.89700  0.34000  0.91200  1.0000
  F   F6        1.0  0.01500  0.84000  0.91200  1.0000
  Na  Na1       1.0  0.62300  0.25000  0.00000  1.0000
  Na  Na2       1.0  0.37700  0.75000  0.00000  1.0000
  O   O1        1.0  0.70900  0.11300  0.23500  1.0000
  O   O2        1.0  0.52600  0.61300  0.23500  1.0000
  O   O3        1.0  0.86700  0.52300  0.26000  1.0000
  O   O4        1.0  0.39300  0.02280  0.26000  1.0000
  O   O5        1.0  0.54300  0.34700  0.38800  1.0000
  O   O6        1.0  0.84500  0.84700  0.38800  1.0000
  O   O7        1.0  0.17800  0.32100  0.44800  1.0000
  O   O8        1.0  0.27000  0.82100  0.44800  1.0000
  O   O9        1.0  0.73000  0.17900  0.55200  1.0000
  O   O10       1.0  0.82200  0.67900  0.55200  1.0000
  O   O11       1.0  0.45700  0.65300  0.61200  1.0000
  O   O12       1.0  0.15500  0.15300  0.61200  1.0000
  O   O13       1.0  0.13300  0.47700  0.74000  1.0000
  O   O14       1.0  0.60700  0.97700  0.74000  1.0000
  O   O15       1.0  0.47400  0.38700  0.76500  1.0000
  O   O16       1.0  0.29100  0.88700  0.76500  1.0000
  Pr  Pr1       1.0  0.21200  0.46200  0.24000  1.0000
  Pr  Pr2       1.0  0.02780  0.96200  0.24000  1.0000
  Pr  Pr3       1.0  0.97200  0.03750  0.76000  1.0000
  Pr  Pr4       1.0  0.78800  0.53800  0.76000  1.0000
  S   S1        1.0  0.59300  0.16100  0.35600  1.0000
  S   S2        1.0  0.76300  0.66100  0.35600  1.0000
  S   S3        1.0  0.40700  0.83900  0.64400  1.0000
  S   S4        1.0  0.23700  0.33900  0.64400  1.0000
