data_image0
_chemical_formula_structural       Co4Er20Sb8
_chemical_formula_sum              "Co4 Er20 Sb8"
_cell_length_a       12.0852
_cell_length_b       8.71011
_cell_length_c       7.80195
_cell_angle_alpha    90
_cell_angle_beta     90
_cell_angle_gamma    90

_space_group_name_H-M_alt    "P 1"
_space_group_IT_number       1

loop_
  _space_group_symop_operation_xyz
  'x, y, z'

loop_
  _atom_site_type_symbol
  _atom_site_label
  _atom_site_symmetry_multiplicity
  _atom_site_fract_x
  _atom_site_fract_y
  _atom_site_fract_z
  _atom_site_occupancy
  Co  Co1       1.0  0.00998  0.75000  0.07010  1.0000
  Co  Co2       1.0  0.51000  0.75000  0.43000  1.0000
  Co  Co3       1.0  0.49000  0.25000  0.57000  1.0000
  Co  Co4       1.0  0.99000  0.25000  0.93000  1.0000
  Er  Er1       1.0  0.50200  0.75000  0.04910  1.0000
  Er  Er2       1.0  0.80800  0.25000  0.12200  1.0000
  Er  Er3       1.0  0.79600  0.75000  0.15600  1.0000
  Er  Er4       1.0  0.06530  0.03780  0.17600  1.0000
  Er  Er5       1.0  0.06530  0.46200  0.17600  1.0000
  Er  Er6       1.0  0.56500  0.03780  0.32400  1.0000
  Er  Er7       1.0  0.56500  0.46200  0.32400  1.0000
  Er  Er8       1.0  0.29600  0.75000  0.34400  1.0000
  Er  Er9       1.0  0.30800  0.25000  0.37800  1.0000
  Er  Er10      1.0  0.00201  0.75000  0.45100  1.0000
  Er  Er11      1.0  0.99800  0.25000  0.54900  1.0000
  Er  Er12      1.0  0.69200  0.75000  0.62200  1.0000
  Er  Er13      1.0  0.70400  0.25000  0.65600  1.0000
  Er  Er14      1.0  0.43500  0.53800  0.67600  1.0000
  Er  Er15      1.0  0.43500  0.96200  0.67600  1.0000
  Er  Er16      1.0  0.93500  0.53800  0.82400  1.0000
  Er  Er17      1.0  0.93500  0.96200  0.82400  1.0000
  Er  Er18      1.0  0.20400  0.25000  0.84400  1.0000
  Er  Er19      1.0  0.19200  0.75000  0.87800  1.0000
  Er  Er20      1.0  0.49800  0.25000  0.95100  1.0000
  Sb  Sb1       1.0  0.32700  0.00833  0.06910  1.0000
  Sb  Sb2       1.0  0.32700  0.49200  0.06910  1.0000
  Sb  Sb3       1.0  0.82700  0.00833  0.43100  1.0000
  Sb  Sb4       1.0  0.82700  0.49200  0.43100  1.0000
  Sb  Sb5       1.0  0.17300  0.50800  0.56900  1.0000
  Sb  Sb6       1.0  0.17300  0.99200  0.56900  1.0000
  Sb  Sb7       1.0  0.67300  0.50800  0.93100  1.0000
  Sb  Sb8       1.0  0.67300  0.99200  0.93100  1.0000
