data_image0
_chemical_formula_structural       Ca5FeO18Si6
_chemical_formula_sum              "Ca5 Fe1 O18 Si6"
_cell_length_a       7.24019
_cell_length_b       7.83795
_cell_length_c       7.82818
_cell_angle_alpha    91.4189
_cell_angle_beta     103.591
_cell_angle_gamma    62.6659

_space_group_name_H-M_alt    "P 1"
_space_group_IT_number       1

loop_
  _space_group_symop_operation_xyz
  'x, y, z'

loop_
  _atom_site_type_symbol
  _atom_site_label
  _atom_site_symmetry_multiplicity
  _atom_site_fract_x
  _atom_site_fract_y
  _atom_site_fract_z
  _atom_site_occupancy
  Ca  Ca1       1.0  0.30900  0.24900  0.19900  1.0000
  Ca  Ca2       1.0  0.79500  0.24500  0.20200  1.0000
  Ca  Ca3       1.0  0.00000  0.50000  0.50000  1.0000
  Ca  Ca4       1.0  0.20500  0.75500  0.79800  1.0000
  Ca  Ca5       1.0  0.69100  0.75100  0.80100  1.0000
  Fe  Fe1       1.0  0.50000  0.50000  0.50000  1.0000
  O   O1        1.0  0.50900  0.25200  0.01600  1.0000
  O   O2        1.0  0.97700  0.29000  0.01840  1.0000
  O   O3        1.0  0.80600  0.76300  0.22500  1.0000
  O   O4        1.0  0.05960  0.91600  0.26200  1.0000
  O   O5        1.0  0.42400  0.92300  0.27900  1.0000
  O   O6        1.0  0.65700  0.54000  0.31000  1.0000
  O   O7        1.0  0.21600  0.53500  0.31900  1.0000
  O   O8        1.0  0.13100  0.18800  0.40300  1.0000
  O   O9        1.0  0.63700  0.19400  0.42600  1.0000
  O   O10       1.0  0.36300  0.80600  0.57400  1.0000
  O   O11       1.0  0.86900  0.81200  0.59700  1.0000
  O   O12       1.0  0.78400  0.46500  0.68100  1.0000
  O   O13       1.0  0.34300  0.46000  0.69000  1.0000
  O   O14       1.0  0.57600  0.07710  0.72100  1.0000
  O   O15       1.0  0.94000  0.08390  0.73800  1.0000
  O   O16       1.0  0.19400  0.23700  0.77500  1.0000
  O   O17       1.0  0.02280  0.71000  0.98200  1.0000
  O   O18       1.0  0.49100  0.74800  0.98400  1.0000
  Si  Si1       1.0  0.03400  0.72600  0.18800  1.0000
  Si  Si2       1.0  0.58800  0.73700  0.19200  1.0000
  Si  Si3       1.0  0.24900  0.95600  0.39900  1.0000
  Si  Si4       1.0  0.75100  0.04400  0.60100  1.0000
  Si  Si5       1.0  0.41200  0.26300  0.80800  1.0000
  Si  Si6       1.0  0.96600  0.27400  0.81200  1.0000
