data_image0
_chemical_formula_structural       O16Se4Si4Sm8
_chemical_formula_sum              "O16 Se4 Si4 Sm8"
_cell_length_a       6.11984
_cell_length_b       7.0862
_cell_length_c       10.9101
_cell_angle_alpha    90
_cell_angle_beta     90
_cell_angle_gamma    90

_space_group_name_H-M_alt    "P 1"
_space_group_IT_number       1

loop_
  _space_group_symop_operation_xyz
  'x, y, z'

loop_
  _atom_site_type_symbol
  _atom_site_label
  _atom_site_symmetry_multiplicity
  _atom_site_fract_x
  _atom_site_fract_y
  _atom_site_fract_z
  _atom_site_occupancy
  O   O1        1.0  0.27200  0.42800  0.03260  1.0000
  O   O2        1.0  0.72800  0.92800  0.03260  1.0000
  O   O3        1.0  0.94800  0.23600  0.11900  1.0000
  O   O4        1.0  0.05240  0.73600  0.11900  1.0000
  O   O5        1.0  0.94800  0.23600  0.38100  1.0000
  O   O6        1.0  0.05240  0.73600  0.38100  1.0000
  O   O7        1.0  0.27200  0.42800  0.46700  1.0000
  O   O8        1.0  0.72800  0.92800  0.46700  1.0000
  O   O9        1.0  0.27200  0.07170  0.53300  1.0000
  O   O10       1.0  0.72800  0.57200  0.53300  1.0000
  O   O11       1.0  0.94800  0.26400  0.61900  1.0000
  O   O12       1.0  0.05240  0.76400  0.61900  1.0000
  O   O13       1.0  0.94800  0.26400  0.88100  1.0000
  O   O14       1.0  0.05240  0.76400  0.88100  1.0000
  O   O15       1.0  0.27200  0.07170  0.96700  1.0000
  O   O16       1.0  0.72800  0.57200  0.96700  1.0000
  Se  Se1       1.0  0.42100  0.11300  0.25000  1.0000
  Se  Se2       1.0  0.57900  0.61300  0.25000  1.0000
  Se  Se3       1.0  0.42100  0.38700  0.75000  1.0000
  Se  Se4       1.0  0.57900  0.88700  0.75000  1.0000
  Si  Si1       1.0  0.11200  0.25000  0.00000  1.0000
  Si  Si2       1.0  0.88800  0.75000  0.00000  1.0000
  Si  Si3       1.0  0.11200  0.25000  0.50000  1.0000
  Si  Si4       1.0  0.88800  0.75000  0.50000  1.0000
  Sm  Sm1       1.0  0.60700  0.25000  0.00000  1.0000
  Sm  Sm2       1.0  0.39300  0.75000  0.00000  1.0000
  Sm  Sm3       1.0  0.13000  0.46700  0.25000  1.0000
  Sm  Sm4       1.0  0.87000  0.96700  0.25000  1.0000
  Sm  Sm5       1.0  0.60700  0.25000  0.50000  1.0000
  Sm  Sm6       1.0  0.39300  0.75000  0.50000  1.0000
  Sm  Sm7       1.0  0.13000  0.03340  0.75000  1.0000
  Sm  Sm8       1.0  0.87000  0.53300  0.75000  1.0000
