data_image0
_chemical_formula_structural       Au4Bi4Br24
_chemical_formula_sum              "Au4 Bi4 Br24"
_cell_length_a       7.65431
_cell_length_b       10.6777
_cell_length_c       14.8332
_cell_angle_alpha    104.758
_cell_angle_beta     94.7206
_cell_angle_gamma    110.711

_space_group_name_H-M_alt    "P 1"
_space_group_IT_number       1

loop_
  _space_group_symop_operation_xyz
  'x, y, z'

loop_
  _atom_site_type_symbol
  _atom_site_label
  _atom_site_symmetry_multiplicity
  _atom_site_fract_x
  _atom_site_fract_y
  _atom_site_fract_z
  _atom_site_occupancy
  Au  Au1       1.0  0.00000  0.00000  0.00000  1.0000
  Au  Au2       1.0  0.70300  0.37000  0.23600  1.0000
  Au  Au3       1.0  0.50000  0.50000  0.50000  1.0000
  Au  Au4       1.0  0.29700  0.63000  0.76400  1.0000
  Bi  Bi1       1.0  0.02680  0.68800  0.12900  1.0000
  Bi  Bi2       1.0  0.40400  0.07520  0.38000  1.0000
  Bi  Bi3       1.0  0.59600  0.92500  0.62000  1.0000
  Bi  Bi4       1.0  0.97300  0.31200  0.87100  1.0000
  Br  Br1       1.0  0.25900  0.56400  0.02240  1.0000
  Br  Br2       1.0  0.74900  0.80000  0.02910  1.0000
  Br  Br3       1.0  0.23400  0.89800  0.03020  1.0000
  Br  Br4       1.0  0.03900  0.47100  0.22100  1.0000
  Br  Br5       1.0  0.66700  0.58700  0.22200  1.0000
  Br  Br6       1.0  0.36800  0.26700  0.25000  1.0000
  Br  Br7       1.0  0.74200  0.15900  0.25500  1.0000
  Br  Br8       1.0  0.40000  0.81600  0.25800  1.0000
  Br  Br9       1.0  0.02220  0.94600  0.27600  1.0000
  Br  Br10      1.0  0.74800  0.04670  0.48200  1.0000
  Br  Br11      1.0  0.22200  0.28300  0.48500  1.0000
  Br  Br12      1.0  0.29100  0.63000  0.49300  1.0000
  Br  Br13      1.0  0.70900  0.37000  0.50700  1.0000
  Br  Br14      1.0  0.77800  0.71700  0.51500  1.0000
  Br  Br15      1.0  0.25200  0.95300  0.51800  1.0000
  Br  Br16      1.0  0.97800  0.05370  0.72400  1.0000
  Br  Br17      1.0  0.60000  0.18400  0.74200  1.0000
  Br  Br18      1.0  0.25800  0.84100  0.74500  1.0000
  Br  Br19      1.0  0.63200  0.73300  0.75000  1.0000
  Br  Br20      1.0  0.33300  0.41300  0.77800  1.0000
  Br  Br21      1.0  0.96100  0.52900  0.77900  1.0000
  Br  Br22      1.0  0.76600  0.10200  0.97000  1.0000
  Br  Br23      1.0  0.25100  0.20000  0.97100  1.0000
  Br  Br24      1.0  0.74100  0.43600  0.97800  1.0000
