data_image0
_chemical_formula_structural       Be4H8O16Se4
_chemical_formula_sum              "Be4 H8 O16 Se4"
_cell_length_a       5.42024
_cell_length_b       7.39963
_cell_length_c       7.71096
_cell_angle_alpha    90
_cell_angle_beta     90
_cell_angle_gamma    90

_space_group_name_H-M_alt    "P 1"
_space_group_IT_number       1

loop_
  _space_group_symop_operation_xyz
  'x, y, z'

loop_
  _atom_site_type_symbol
  _atom_site_label
  _atom_site_symmetry_multiplicity
  _atom_site_fract_x
  _atom_site_fract_y
  _atom_site_fract_z
  _atom_site_occupancy
  Be  Be1       1.0  0.89000  0.75400  0.22700  1.0000
  Be  Be2       1.0  0.11000  0.25400  0.27300  1.0000
  Be  Be3       1.0  0.61000  0.24600  0.72700  1.0000
  Be  Be4       1.0  0.39000  0.74600  0.77300  1.0000
  H   H1        1.0  0.62500  0.58500  0.05140  1.0000
  H   H2        1.0  0.77000  0.45000  0.18300  1.0000
  H   H3        1.0  0.23000  0.95000  0.31700  1.0000
  H   H4        1.0  0.37500  0.08550  0.44900  1.0000
  H   H5        1.0  0.87500  0.41500  0.55100  1.0000
  H   H6        1.0  0.73000  0.55000  0.68300  1.0000
  H   H7        1.0  0.27000  0.05030  0.81700  1.0000
  H   H8        1.0  0.12500  0.91500  0.94900  1.0000
  O   O1        1.0  0.90600  0.91000  0.07950  1.0000
  O   O2        1.0  0.28500  0.31800  0.11300  1.0000
  O   O3        1.0  0.76800  0.57600  0.13700  1.0000
  O   O4        1.0  0.82100  0.23200  0.22500  1.0000
  O   O5        1.0  0.17900  0.73200  0.27500  1.0000
  O   O6        1.0  0.23200  0.07620  0.36300  1.0000
  O   O7        1.0  0.71500  0.81800  0.38700  1.0000
  O   O8        1.0  0.09400  0.41000  0.42000  1.0000
  O   O9        1.0  0.59400  0.08970  0.58000  1.0000
  O   O10       1.0  0.21500  0.68200  0.61300  1.0000
  O   O11       1.0  0.73200  0.42400  0.63700  1.0000
  O   O12       1.0  0.67900  0.76800  0.72500  1.0000
  O   O13       1.0  0.32100  0.26800  0.77500  1.0000
  O   O14       1.0  0.26800  0.92400  0.86300  1.0000
  O   O15       1.0  0.78500  0.18200  0.88700  1.0000
  O   O16       1.0  0.40600  0.59000  0.92000  1.0000
  Se  Se1       1.0  0.68900  0.08330  0.07800  1.0000
  Se  Se2       1.0  0.31100  0.58300  0.42200  1.0000
  Se  Se3       1.0  0.81100  0.91700  0.57800  1.0000
  Se  Se4       1.0  0.18900  0.41700  0.92200  1.0000
