data_image0
_chemical_formula_structural       As12Cs14In6
_chemical_formula_sum              "As12 Cs14 In6"
_cell_length_a       8.86918
_cell_length_b       9.81289
_cell_length_c       14.9359
_cell_angle_alpha    85.4644
_cell_angle_beta     84.8826
_cell_angle_gamma    86.4259

_space_group_name_H-M_alt    "P 1"
_space_group_IT_number       1

loop_
  _space_group_symop_operation_xyz
  'x, y, z'

loop_
  _atom_site_type_symbol
  _atom_site_label
  _atom_site_symmetry_multiplicity
  _atom_site_fract_x
  _atom_site_fract_y
  _atom_site_fract_z
  _atom_site_occupancy
  As  As1       1.0  0.63100  0.20400  0.12500  1.0000
  As  As2       1.0  0.48200  0.59700  0.19300  1.0000
  As  As3       1.0  0.91200  0.44600  0.21300  1.0000
  As  As4       1.0  0.64100  0.39800  0.22700  1.0000
  As  As5       1.0  0.97000  0.00189  0.29900  1.0000
  As  As6       1.0  0.59200  0.29700  0.38600  1.0000
  As  As7       1.0  0.40800  0.70300  0.61400  1.0000
  As  As8       1.0  0.03010  0.99800  0.70100  1.0000
  As  As9       1.0  0.35900  0.60200  0.77300  1.0000
  As  As10      1.0  0.08820  0.55400  0.78700  1.0000
  As  As11      1.0  0.51800  0.40300  0.80700  1.0000
  As  As12      1.0  0.36900  0.79600  0.87500  1.0000
  Cs  Cs1       1.0  0.25400  0.49900  0.01670  1.0000
  Cs  Cs2       1.0  0.31800  0.91300  0.12200  1.0000
  Cs  Cs3       1.0  0.81700  0.81200  0.12900  1.0000
  Cs  Cs4       1.0  0.28100  0.26600  0.25000  1.0000
  Cs  Cs5       1.0  0.15100  0.63400  0.36200  1.0000
  Cs  Cs6       1.0  0.67600  0.65000  0.39700  1.0000
  Cs  Cs7       1.0  0.25000  0.01140  0.46700  1.0000
  Cs  Cs8       1.0  0.75000  0.98900  0.53300  1.0000
  Cs  Cs9       1.0  0.32400  0.35000  0.60300  1.0000
  Cs  Cs10      1.0  0.84900  0.36600  0.63800  1.0000
  Cs  Cs11      1.0  0.71900  0.73400  0.75000  1.0000
  Cs  Cs12      1.0  0.18300  0.18800  0.87100  1.0000
  Cs  Cs13      1.0  0.68200  0.08680  0.87800  1.0000
  Cs  Cs14      1.0  0.74600  0.50100  0.98300  1.0000
  In  In1       1.0  0.95400  0.17700  0.13300  1.0000
  In  In2       1.0  0.64300  0.03920  0.29700  1.0000
  In  In3       1.0  0.91900  0.26600  0.37800  1.0000
  In  In4       1.0  0.08100  0.73400  0.62200  1.0000
  In  In5       1.0  0.35700  0.96100  0.70300  1.0000
  In  In6       1.0  0.04650  0.82300  0.86700  1.0000
