data_image0
_chemical_formula_structural       As4Cs12O16
_chemical_formula_sum              "As4 Cs12 O16"
_cell_length_a       12.4891
_cell_length_b       9.00063
_cell_length_c       6.59073
_cell_angle_alpha    90
_cell_angle_beta     90
_cell_angle_gamma    90

_space_group_name_H-M_alt    "P 1"
_space_group_IT_number       1

loop_
  _space_group_symop_operation_xyz
  'x, y, z'

loop_
  _atom_site_type_symbol
  _atom_site_label
  _atom_site_symmetry_multiplicity
  _atom_site_fract_x
  _atom_site_fract_y
  _atom_site_fract_z
  _atom_site_occupancy
  As  As1       1.0  0.38700  0.75000  0.22700  1.0000
  As  As2       1.0  0.88700  0.75000  0.27300  1.0000
  As  As3       1.0  0.11300  0.25000  0.72700  1.0000
  As  As4       1.0  0.61300  0.25000  0.77300  1.0000
  Cs  Cs1       1.0  0.92400  0.25000  0.14600  1.0000
  Cs  Cs2       1.0  0.64500  0.50600  0.18900  1.0000
  Cs  Cs3       1.0  0.64500  0.99400  0.18900  1.0000
  Cs  Cs4       1.0  0.14500  0.50600  0.31100  1.0000
  Cs  Cs5       1.0  0.14500  0.99400  0.31100  1.0000
  Cs  Cs6       1.0  0.42400  0.25000  0.35400  1.0000
  Cs  Cs7       1.0  0.57600  0.75000  0.64600  1.0000
  Cs  Cs8       1.0  0.85500  0.00627  0.68900  1.0000
  Cs  Cs9       1.0  0.85500  0.49400  0.68900  1.0000
  Cs  Cs10      1.0  0.35500  0.00627  0.81100  1.0000
  Cs  Cs11      1.0  0.35500  0.49400  0.81100  1.0000
  Cs  Cs12      1.0  0.07640  0.75000  0.85400  1.0000
  O   O1        1.0  0.49300  0.75000  0.05840  1.0000
  O   O2        1.0  0.26900  0.75000  0.08710  1.0000
  O   O3        1.0  0.89200  0.59200  0.12400  1.0000
  O   O4        1.0  0.89200  0.90800  0.12400  1.0000
  O   O5        1.0  0.39200  0.59200  0.37600  1.0000
  O   O6        1.0  0.39200  0.90800  0.37600  1.0000
  O   O7        1.0  0.76900  0.75000  0.41300  1.0000
  O   O8        1.0  0.99300  0.75000  0.44200  1.0000
  O   O9        1.0  0.00689  0.25000  0.55800  1.0000
  O   O10       1.0  0.23100  0.25000  0.58700  1.0000
  O   O11       1.0  0.60800  0.09210  0.62400  1.0000
  O   O12       1.0  0.60800  0.40800  0.62400  1.0000
  O   O13       1.0  0.10800  0.09210  0.87600  1.0000
  O   O14       1.0  0.10800  0.40800  0.87600  1.0000
  O   O15       1.0  0.73100  0.25000  0.91300  1.0000
  O   O16       1.0  0.50700  0.25000  0.94200  1.0000
