data_image0
_chemical_formula_structural       As8Cs8Se16
_chemical_formula_sum              "As8 Cs8 Se16"
_cell_length_a       6.89452
_cell_length_b       9.90668
_cell_length_c       17.0561
_cell_angle_alpha    90
_cell_angle_beta     90
_cell_angle_gamma    90

_space_group_name_H-M_alt    "P 1"
_space_group_IT_number       1

loop_
  _space_group_symop_operation_xyz
  'x, y, z'

loop_
  _atom_site_type_symbol
  _atom_site_label
  _atom_site_symmetry_multiplicity
  _atom_site_fract_x
  _atom_site_fract_y
  _atom_site_fract_z
  _atom_site_occupancy
  As  As1       1.0  0.26700  0.03060  0.21200  1.0000
  As  As2       1.0  0.23300  0.53100  0.21200  1.0000
  As  As3       1.0  0.76700  0.03060  0.28800  1.0000
  As  As4       1.0  0.73300  0.53100  0.28800  1.0000
  As  As5       1.0  0.26700  0.46900  0.71200  1.0000
  As  As6       1.0  0.23300  0.96900  0.71200  1.0000
  As  As7       1.0  0.76700  0.46900  0.78800  1.0000
  As  As8       1.0  0.73300  0.96900  0.78800  1.0000
  Cs  Cs1       1.0  0.86200  0.19700  0.07780  1.0000
  Cs  Cs2       1.0  0.63800  0.69700  0.07780  1.0000
  Cs  Cs3       1.0  0.36200  0.19700  0.42200  1.0000
  Cs  Cs4       1.0  0.13800  0.69700  0.42200  1.0000
  Cs  Cs5       1.0  0.86200  0.30300  0.57800  1.0000
  Cs  Cs6       1.0  0.63800  0.80300  0.57800  1.0000
  Cs  Cs7       1.0  0.36200  0.30300  0.92200  1.0000
  Cs  Cs8       1.0  0.13800  0.80300  0.92200  1.0000
  Se  Se1       1.0  0.36200  0.02560  0.07990  1.0000
  Se  Se2       1.0  0.13800  0.52600  0.07990  1.0000
  Se  Se3       1.0  0.51400  0.37300  0.21700  1.0000
  Se  Se4       1.0  0.98600  0.87300  0.21700  1.0000
  Se  Se5       1.0  0.01360  0.37300  0.28300  1.0000
  Se  Se6       1.0  0.48600  0.87300  0.28300  1.0000
  Se  Se7       1.0  0.86200  0.02560  0.42000  1.0000
  Se  Se8       1.0  0.63800  0.52600  0.42000  1.0000
  Se  Se9       1.0  0.36200  0.47400  0.58000  1.0000
  Se  Se10      1.0  0.13800  0.97400  0.58000  1.0000
  Se  Se11      1.0  0.51400  0.12700  0.71700  1.0000
  Se  Se12      1.0  0.98600  0.62700  0.71700  1.0000
  Se  Se13      1.0  0.01360  0.12700  0.78300  1.0000
  Se  Se14      1.0  0.48600  0.62700  0.78300  1.0000
  Se  Se15      1.0  0.86200  0.47400  0.92000  1.0000
  Se  Se16      1.0  0.63800  0.97400  0.92000  1.0000
