data_image0
_chemical_formula_structural       Er8O16S4Si4
_chemical_formula_sum              "Er8 O16 S4 Si4"
_cell_length_a       6.8146
_cell_length_b       8.12467
_cell_length_c       8.12467
_cell_angle_alpha    98.1583
_cell_angle_beta     90
_cell_angle_gamma    90

_space_group_name_H-M_alt    "P 1"
_space_group_IT_number       1

loop_
  _space_group_symop_operation_xyz
  'x, y, z'

loop_
  _atom_site_type_symbol
  _atom_site_label
  _atom_site_symmetry_multiplicity
  _atom_site_fract_x
  _atom_site_fract_y
  _atom_site_fract_z
  _atom_site_occupancy
  Er  Er1       1.0  0.52300  0.82800  0.17200  1.0000
  Er  Er2       1.0  0.75000  0.31000  0.19000  1.0000
  Er  Er3       1.0  0.25000  0.19000  0.31000  1.0000
  Er  Er4       1.0  0.02340  0.67200  0.32800  1.0000
  Er  Er5       1.0  0.97700  0.32800  0.67200  1.0000
  Er  Er6       1.0  0.75000  0.81000  0.69000  1.0000
  Er  Er7       1.0  0.25000  0.69000  0.81000  1.0000
  Er  Er8       1.0  0.47700  0.17200  0.82800  1.0000
  O   O1        1.0  0.26500  0.63800  0.11000  1.0000
  O   O2        1.0  0.43700  0.33000  0.11900  1.0000
  O   O3        1.0  0.76500  0.61000  0.13800  1.0000
  O   O4        1.0  0.06340  0.38100  0.17000  1.0000
  O   O5        1.0  0.56300  0.11900  0.33000  1.0000
  O   O6        1.0  0.26500  0.89000  0.36200  1.0000
  O   O7        1.0  0.93700  0.17000  0.38100  1.0000
  O   O8        1.0  0.76500  0.86200  0.39000  1.0000
  O   O9        1.0  0.23500  0.13800  0.61000  1.0000
  O   O10       1.0  0.06340  0.83000  0.61900  1.0000
  O   O11       1.0  0.73500  0.11000  0.63800  1.0000
  O   O12       1.0  0.43700  0.88100  0.67000  1.0000
  O   O13       1.0  0.93700  0.61900  0.83000  1.0000
  O   O14       1.0  0.23500  0.39000  0.86200  1.0000
  O   O15       1.0  0.56300  0.67000  0.88100  1.0000
  O   O16       1.0  0.73500  0.36200  0.89000  1.0000
  S   S1        1.0  0.24500  0.99100  0.00869  1.0000
  S   S2        1.0  0.74500  0.50900  0.49100  1.0000
  S   S3        1.0  0.25500  0.49100  0.50900  1.0000
  S   S4        1.0  0.75500  0.00869  0.99100  1.0000
  Si  Si1       1.0  0.25000  0.43600  0.06370  1.0000
  Si  Si2       1.0  0.75000  0.06370  0.43600  1.0000
  Si  Si3       1.0  0.25000  0.93600  0.56400  1.0000
  Si  Si4       1.0  0.75000  0.56400  0.93600  1.0000
