data_image0
_chemical_formula_structural       K4N12O16
_chemical_formula_sum              "K4 N12 O16"
_cell_length_a       6.47194
_cell_length_b       8.72938
_cell_length_c       7.01408
_cell_angle_alpha    90
_cell_angle_beta     98.1147
_cell_angle_gamma    90

_space_group_name_H-M_alt    "P 1"
_space_group_IT_number       1

loop_
  _space_group_symop_operation_xyz
  'x, y, z'

loop_
  _atom_site_type_symbol
  _atom_site_label
  _atom_site_symmetry_multiplicity
  _atom_site_fract_x
  _atom_site_fract_y
  _atom_site_fract_z
  _atom_site_occupancy
  K   K1        1.0  0.13500  0.65500  0.16500  1.0000
  K   K2        1.0  0.36500  0.15500  0.33500  1.0000
  K   K3        1.0  0.63500  0.84500  0.66500  1.0000
  K   K4        1.0  0.86500  0.34500  0.83500  1.0000
  N   N1        1.0  0.74100  0.87700  0.09230  1.0000
  N   N2        1.0  0.54600  0.84000  0.12700  1.0000
  N   N3        1.0  0.85600  0.96400  0.23300  1.0000
  N   N4        1.0  0.64400  0.46400  0.26700  1.0000
  N   N5        1.0  0.95400  0.34000  0.37300  1.0000
  N   N6        1.0  0.75900  0.37700  0.40800  1.0000
  N   N7        1.0  0.24100  0.62300  0.59200  1.0000
  N   N8        1.0  0.04580  0.66000  0.62700  1.0000
  N   N9        1.0  0.35600  0.53600  0.73300  1.0000
  N   N10       1.0  0.14400  0.03630  0.76700  1.0000
  N   N11       1.0  0.45400  0.16000  0.87300  1.0000
  N   N12       1.0  0.25900  0.12300  0.90800  1.0000
  O   O1        1.0  0.57100  0.20400  0.02150  1.0000
  O   O2        1.0  0.72000  0.54200  0.14700  1.0000
  O   O3        1.0  0.01400  0.33900  0.21100  1.0000
  O   O4        1.0  0.04600  0.96400  0.21600  1.0000
  O   O5        1.0  0.45400  0.46400  0.28400  1.0000
  O   O6        1.0  0.48600  0.83900  0.28900  1.0000
  O   O7        1.0  0.78000  0.04200  0.35300  1.0000
  O   O8        1.0  0.92900  0.70400  0.47900  1.0000
  O   O9        1.0  0.07120  0.29600  0.52100  1.0000
  O   O10       1.0  0.22000  0.95800  0.64700  1.0000
  O   O11       1.0  0.51400  0.16100  0.71100  1.0000
  O   O12       1.0  0.54600  0.53600  0.71600  1.0000
  O   O13       1.0  0.95400  0.03640  0.78400  1.0000
  O   O14       1.0  0.98600  0.66100  0.78900  1.0000
  O   O15       1.0  0.28000  0.45800  0.85300  1.0000
  O   O16       1.0  0.42900  0.79600  0.97900  1.0000
