data_image0
_chemical_formula_structural       C4Fe2N14Sr12
_chemical_formula_sum              "C4 Fe2 N14 Sr12"
_cell_length_a       9.90534
_cell_length_b       14.7275
_cell_length_c       3.81698
_cell_angle_alpha    90
_cell_angle_beta     90
_cell_angle_gamma    90

_space_group_name_H-M_alt    "P 1"
_space_group_IT_number       1

loop_
  _space_group_symop_operation_xyz
  'x, y, z'

loop_
  _atom_site_type_symbol
  _atom_site_label
  _atom_site_symmetry_multiplicity
  _atom_site_fract_x
  _atom_site_fract_y
  _atom_site_fract_z
  _atom_site_occupancy
  C   C1        1.0  0.22500  0.21900  0.17900  1.0000
  C   C2        1.0  0.77500  0.78100  0.17900  1.0000
  C   C3        1.0  0.72500  0.28100  0.82100  1.0000
  C   C4        1.0  0.27500  0.71900  0.82100  1.0000
  Fe  Fe1       1.0  0.00000  0.00000  0.02100  1.0000
  Fe  Fe2       1.0  0.50000  0.50000  0.97900  1.0000
  N   N1        1.0  0.83200  0.05530  0.02480  1.0000
  N   N2        1.0  0.16800  0.94500  0.02480  1.0000
  N   N3        1.0  0.32900  0.19200  0.02750  1.0000
  N   N4        1.0  0.67100  0.80800  0.02750  1.0000
  N   N5        1.0  0.13100  0.24900  0.36100  1.0000
  N   N6        1.0  0.86900  0.75100  0.36100  1.0000
  N   N7        1.0  0.00000  0.50000  0.43600  1.0000
  N   N8        1.0  0.50000  0.00000  0.56400  1.0000
  N   N9        1.0  0.63100  0.25100  0.63900  1.0000
  N   N10       1.0  0.36900  0.74900  0.63900  1.0000
  N   N11       1.0  0.82900  0.30800  0.97300  1.0000
  N   N12       1.0  0.17100  0.69200  0.97300  1.0000
  N   N13       1.0  0.33200  0.44500  0.97500  1.0000
  N   N14       1.0  0.66800  0.55500  0.97500  1.0000
  Sr  Sr1       1.0  0.57000  0.11000  0.05800  1.0000
  Sr  Sr2       1.0  0.43000  0.89000  0.05800  1.0000
  Sr  Sr3       1.0  0.75500  0.44300  0.44400  1.0000
  Sr  Sr4       1.0  0.24500  0.55700  0.44400  1.0000
  Sr  Sr5       1.0  0.90200  0.16700  0.49000  1.0000
  Sr  Sr6       1.0  0.09810  0.83300  0.49000  1.0000
  Sr  Sr7       1.0  0.40200  0.33300  0.51000  1.0000
  Sr  Sr8       1.0  0.59800  0.66700  0.51000  1.0000
  Sr  Sr9       1.0  0.25500  0.05740  0.55600  1.0000
  Sr  Sr10      1.0  0.74500  0.94300  0.55600  1.0000
  Sr  Sr11      1.0  0.07040  0.39000  0.94200  1.0000
  Sr  Sr12      1.0  0.93000  0.61000  0.94200  1.0000
