data_image0
_chemical_formula_structural       Eu4Sb16Sn12
_chemical_formula_sum              "Eu4 Sb16 Sn12"
_cell_length_a       10.0474
_cell_length_b       4.41095
_cell_length_c       22.8382
_cell_angle_alpha    90
_cell_angle_beta     90
_cell_angle_gamma    90

_space_group_name_H-M_alt    "P 1"
_space_group_IT_number       1

loop_
  _space_group_symop_operation_xyz
  'x, y, z'

loop_
  _atom_site_type_symbol
  _atom_site_label
  _atom_site_symmetry_multiplicity
  _atom_site_fract_x
  _atom_site_fract_y
  _atom_site_fract_z
  _atom_site_occupancy
  Eu  Eu1       1.0  0.06170  0.25000  0.13000  1.0000
  Eu  Eu2       1.0  0.56200  0.25000  0.37000  1.0000
  Eu  Eu3       1.0  0.43800  0.75000  0.63000  1.0000
  Eu  Eu4       1.0  0.93800  0.75000  0.87000  1.0000
  Sb  Sb1       1.0  0.93000  0.75000  0.03030  1.0000
  Sb  Sb2       1.0  0.29200  0.75000  0.09410  1.0000
  Sb  Sb3       1.0  0.71700  0.25000  0.12300  1.0000
  Sb  Sb4       1.0  0.97000  0.75000  0.23000  1.0000
  Sb  Sb5       1.0  0.47000  0.75000  0.27000  1.0000
  Sb  Sb6       1.0  0.21700  0.25000  0.37700  1.0000
  Sb  Sb7       1.0  0.79200  0.75000  0.40600  1.0000
  Sb  Sb8       1.0  0.43000  0.75000  0.47000  1.0000
  Sb  Sb9       1.0  0.57000  0.25000  0.53000  1.0000
  Sb  Sb10      1.0  0.20800  0.25000  0.59400  1.0000
  Sb  Sb11      1.0  0.78300  0.75000  0.62300  1.0000
  Sb  Sb12      1.0  0.53000  0.25000  0.73000  1.0000
  Sb  Sb13      1.0  0.02990  0.25000  0.77000  1.0000
  Sb  Sb14      1.0  0.28300  0.75000  0.87700  1.0000
  Sb  Sb15      1.0  0.70800  0.25000  0.90600  1.0000
  Sb  Sb16      1.0  0.07040  0.25000  0.97000  1.0000
  Sn  Sn1       1.0  0.35200  0.25000  0.01100  1.0000
  Sn  Sn2       1.0  0.54500  0.75000  0.15000  1.0000
  Sn  Sn3       1.0  0.27800  0.25000  0.24900  1.0000
  Sn  Sn4       1.0  0.77800  0.25000  0.25100  1.0000
  Sn  Sn5       1.0  0.04470  0.75000  0.35000  1.0000
  Sn  Sn6       1.0  0.85200  0.25000  0.48900  1.0000
  Sn  Sn7       1.0  0.14800  0.75000  0.51100  1.0000
  Sn  Sn8       1.0  0.95500  0.25000  0.65000  1.0000
  Sn  Sn9       1.0  0.22200  0.75000  0.74900  1.0000
  Sn  Sn10      1.0  0.72200  0.75000  0.75100  1.0000
  Sn  Sn11      1.0  0.45500  0.25000  0.85000  1.0000
  Sn  Sn12      1.0  0.64800  0.75000  0.98900  1.0000
