data_image0
_chemical_formula_structural       C12Cr2N12Na2Rb4
_chemical_formula_sum              "C12 Cr2 N12 Na2 Rb4"
_cell_length_a       7.22969
_cell_length_b       7.77871
_cell_length_c       10.5734
_cell_angle_alpha    90
_cell_angle_beta     90.6672
_cell_angle_gamma    90

_space_group_name_H-M_alt    "P 1"
_space_group_IT_number       1

loop_
  _space_group_symop_operation_xyz
  'x, y, z'

loop_
  _atom_site_type_symbol
  _atom_site_label
  _atom_site_symmetry_multiplicity
  _atom_site_fract_x
  _atom_site_fract_y
  _atom_site_fract_z
  _atom_site_occupancy
  C   C1        1.0  0.77000  0.14000  0.03620  1.0000
  C   C2        1.0  0.86300  0.78100  0.04360  1.0000
  C   C3        1.0  0.07990  0.02270  0.18300  1.0000
  C   C4        1.0  0.42000  0.52300  0.31700  1.0000
  C   C5        1.0  0.63700  0.28100  0.45600  1.0000
  C   C6        1.0  0.73000  0.64000  0.46400  1.0000
  C   C7        1.0  0.27000  0.36000  0.53600  1.0000
  C   C8        1.0  0.36300  0.71900  0.54400  1.0000
  C   C9        1.0  0.58000  0.47700  0.68300  1.0000
  C   C10       1.0  0.92000  0.97700  0.81700  1.0000
  C   C11       1.0  0.13700  0.21900  0.95600  1.0000
  C   C12       1.0  0.23000  0.86000  0.96400  1.0000
  Cr  Cr1       1.0  0.00000  0.00000  0.00000  1.0000
  Cr  Cr2       1.0  0.50000  0.50000  0.50000  1.0000
  N   N1        1.0  0.63800  0.22100  0.05890  1.0000
  N   N2        1.0  0.78100  0.65600  0.07040  1.0000
  N   N3        1.0  0.37400  0.53900  0.21100  1.0000
  N   N4        1.0  0.12600  0.03930  0.28900  1.0000
  N   N5        1.0  0.71900  0.15600  0.43000  1.0000
  N   N6        1.0  0.86200  0.72100  0.44100  1.0000
  N   N7        1.0  0.13800  0.27900  0.55900  1.0000
  N   N8        1.0  0.28100  0.84400  0.57000  1.0000
  N   N9        1.0  0.87400  0.96100  0.71100  1.0000
  N   N10       1.0  0.62600  0.46100  0.78900  1.0000
  N   N11       1.0  0.21900  0.34400  0.93000  1.0000
  N   N12       1.0  0.36200  0.77900  0.94100  1.0000
  Na  Na1       1.0  0.50000  0.50000  0.00000  1.0000
  Na  Na2       1.0  0.00000  0.00000  0.50000  1.0000
  Rb  Rb1       1.0  0.52400  0.92300  0.24900  1.0000
  Rb  Rb2       1.0  0.97600  0.42300  0.25100  1.0000
  Rb  Rb3       1.0  0.02440  0.57700  0.74900  1.0000
  Rb  Rb4       1.0  0.47600  0.07670  0.75100  1.0000
