data_image0
_chemical_formula_structural       Mo8S8Sb16
_chemical_formula_sum              "Mo8 S8 Sb16"
_cell_length_a       6.4313
_cell_length_b       6.60936
_cell_length_c       18.7607
_cell_angle_alpha    95.0349
_cell_angle_beta     99.8694
_cell_angle_gamma    90

_space_group_name_H-M_alt    "P 1"
_space_group_IT_number       1

loop_
  _space_group_symop_operation_xyz
  'x, y, z'

loop_
  _atom_site_type_symbol
  _atom_site_label
  _atom_site_symmetry_multiplicity
  _atom_site_fract_x
  _atom_site_fract_y
  _atom_site_fract_z
  _atom_site_occupancy
  Mo  Mo1       1.0  0.62200  0.32800  0.24400  1.0000
  Mo  Mo2       1.0  0.12200  0.32900  0.24400  1.0000
  Mo  Mo3       1.0  0.37800  0.67100  0.25600  1.0000
  Mo  Mo4       1.0  0.87800  0.67100  0.25600  1.0000
  Mo  Mo5       1.0  0.12200  0.32900  0.74400  1.0000
  Mo  Mo6       1.0  0.62200  0.32900  0.74400  1.0000
  Mo  Mo7       1.0  0.87800  0.67100  0.75600  1.0000
  Mo  Mo8       1.0  0.37800  0.67200  0.75600  1.0000
  S   S1        1.0  0.32800  0.41200  0.15700  1.0000
  S   S2        1.0  0.82800  0.41200  0.15700  1.0000
  S   S3        1.0  0.67200  0.58800  0.34300  1.0000
  S   S4        1.0  0.17200  0.58800  0.34400  1.0000
  S   S5        1.0  0.82800  0.41200  0.65600  1.0000
  S   S6        1.0  0.32800  0.41200  0.65700  1.0000
  S   S7        1.0  0.17200  0.58800  0.84300  1.0000
  S   S8        1.0  0.67200  0.58800  0.84300  1.0000
  Sb  Sb1       1.0  0.00982  0.79300  0.01960  1.0000
  Sb  Sb2       1.0  0.51000  0.79300  0.01980  1.0000
  Sb  Sb3       1.0  0.08640  0.92200  0.17300  1.0000
  Sb  Sb4       1.0  0.58600  0.92200  0.17300  1.0000
  Sb  Sb5       1.0  0.41300  0.07650  0.32700  1.0000
  Sb  Sb6       1.0  0.91400  0.07650  0.32700  1.0000
  Sb  Sb7       1.0  0.50900  0.20700  0.48000  1.0000
  Sb  Sb8       1.0  0.97100  0.20700  0.48000  1.0000
  Sb  Sb9       1.0  0.02900  0.79300  0.52000  1.0000
  Sb  Sb10      1.0  0.49100  0.79300  0.52000  1.0000
  Sb  Sb11      1.0  0.08650  0.92300  0.67300  1.0000
  Sb  Sb12      1.0  0.58700  0.92300  0.67300  1.0000
  Sb  Sb13      1.0  0.41400  0.07750  0.82700  1.0000
  Sb  Sb14      1.0  0.91400  0.07760  0.82700  1.0000
  Sb  Sb15      1.0  0.49000  0.20700  0.98000  1.0000
  Sb  Sb16      1.0  0.99000  0.20700  0.98000  1.0000
