data_image0
_chemical_formula_structural       C12Cr2Cs4N12Na2
_chemical_formula_sum              "C12 Cr2 Cs4 N12 Na2"
_cell_length_a       7.55992
_cell_length_b       7.82591
_cell_length_c       10.923
_cell_angle_alpha    90
_cell_angle_beta     90.1033
_cell_angle_gamma    90

_space_group_name_H-M_alt    "P 1"
_space_group_IT_number       1

loop_
  _space_group_symop_operation_xyz
  'x, y, z'

loop_
  _atom_site_type_symbol
  _atom_site_label
  _atom_site_symmetry_multiplicity
  _atom_site_fract_x
  _atom_site_fract_y
  _atom_site_fract_z
  _atom_site_occupancy
  C   C1        1.0  0.78300  0.14600  0.02470  1.0000
  C   C2        1.0  0.85400  0.78700  0.02770  1.0000
  C   C3        1.0  0.05180  0.01070  0.18100  1.0000
  C   C4        1.0  0.44800  0.51100  0.31900  1.0000
  C   C5        1.0  0.64600  0.28700  0.47200  1.0000
  C   C6        1.0  0.71700  0.64600  0.47500  1.0000
  C   C7        1.0  0.28300  0.35400  0.52500  1.0000
  C   C8        1.0  0.35400  0.71300  0.52800  1.0000
  C   C9        1.0  0.55200  0.48900  0.68100  1.0000
  C   C10       1.0  0.94800  0.98900  0.81900  1.0000
  C   C11       1.0  0.14600  0.21300  0.97200  1.0000
  C   C12       1.0  0.21700  0.85400  0.97500  1.0000
  Cr  Cr1       1.0  0.00000  0.00000  0.00000  1.0000
  Cr  Cr2       1.0  0.50000  0.50000  0.50000  1.0000
  Cs  Cs1       1.0  0.98600  0.44700  0.25000  1.0000
  Cs  Cs2       1.0  0.51400  0.94700  0.25000  1.0000
  Cs  Cs3       1.0  0.48600  0.05290  0.75000  1.0000
  Cs  Cs4       1.0  0.01420  0.55300  0.75000  1.0000
  N   N1        1.0  0.65700  0.23100  0.03980  1.0000
  N   N2        1.0  0.77000  0.66400  0.04580  1.0000
  N   N3        1.0  0.41800  0.52000  0.21400  1.0000
  N   N4        1.0  0.08220  0.02050  0.28600  1.0000
  N   N5        1.0  0.73000  0.16400  0.45400  1.0000
  N   N6        1.0  0.84300  0.73100  0.46000  1.0000
  N   N7        1.0  0.15700  0.26900  0.54000  1.0000
  N   N8        1.0  0.27000  0.83600  0.54600  1.0000
  N   N9        1.0  0.91800  0.98000  0.71400  1.0000
  N   N10       1.0  0.58200  0.48000  0.78600  1.0000
  N   N11       1.0  0.23000  0.33600  0.95400  1.0000
  N   N12       1.0  0.34300  0.76900  0.96000  1.0000
  Na  Na1       1.0  0.50000  0.50000  0.00000  1.0000
  Na  Na2       1.0  0.00000  0.00000  0.50000  1.0000
