data_image0
_chemical_formula_structural       Ce11O20
_chemical_formula_sum              "Ce11 O20"
_cell_length_a       6.99651
_cell_length_b       10.6865
_cell_length_c       6.9465
_cell_angle_alpha    90.8825
_cell_angle_beta     99.421
_cell_angle_gamma    95.638

_space_group_name_H-M_alt    "P 1"
_space_group_IT_number       1

loop_
  _space_group_symop_operation_xyz
  'x, y, z'

loop_
  _atom_site_type_symbol
  _atom_site_label
  _atom_site_symmetry_multiplicity
  _atom_site_fract_x
  _atom_site_fract_y
  _atom_site_fract_z
  _atom_site_occupancy
  Ce  Ce1       1.0  0.00000  0.00000  0.00000  1.0000
  Ce  Ce2       1.0  0.55600  0.17300  0.12400  1.0000
  Ce  Ce3       1.0  0.10900  0.36400  0.18400  1.0000
  Ce  Ce4       1.0  0.63800  0.52300  0.27500  1.0000
  Ce  Ce5       1.0  0.14100  0.72300  0.36100  1.0000
  Ce  Ce6       1.0  0.73300  0.91800  0.47100  1.0000
  Ce  Ce7       1.0  0.26700  0.08180  0.52900  1.0000
  Ce  Ce8       1.0  0.85900  0.27700  0.63900  1.0000
  Ce  Ce9       1.0  0.36200  0.47700  0.72500  1.0000
  Ce  Ce10      1.0  0.89100  0.63600  0.81600  1.0000
  Ce  Ce11      1.0  0.44400  0.82700  0.87600  1.0000
  O   O1        1.0  0.15500  0.79700  0.03310  1.0000
  O   O2        1.0  0.42500  0.37100  0.04010  1.0000
  O   O3        1.0  0.66200  0.96100  0.12700  1.0000
  O   O4        1.0  0.94300  0.56100  0.14900  1.0000
  O   O5        1.0  0.22700  0.15700  0.20000  1.0000
  O   O6        1.0  0.79700  0.33300  0.30000  1.0000
  O   O7        1.0  0.03320  0.93300  0.33500  1.0000
  O   O8        1.0  0.32600  0.54000  0.36900  1.0000
  O   O9        1.0  0.82100  0.70200  0.46000  1.0000
  O   O10       1.0  0.59600  0.12700  0.46900  1.0000
  O   O11       1.0  0.40400  0.87300  0.53100  1.0000
  O   O12       1.0  0.17900  0.29800  0.54000  1.0000
  O   O13       1.0  0.67400  0.46000  0.63100  1.0000
  O   O14       1.0  0.96700  0.06730  0.66500  1.0000
  O   O15       1.0  0.20300  0.66700  0.70000  1.0000
  O   O16       1.0  0.77300  0.84300  0.80000  1.0000
  O   O17       1.0  0.05740  0.43900  0.85100  1.0000
  O   O18       1.0  0.33800  0.03890  0.87300  1.0000
  O   O19       1.0  0.57500  0.62900  0.96000  1.0000
  O   O20       1.0  0.84500  0.20300  0.96700  1.0000
