data_image0
_chemical_formula_structural       Cl8Eu8O12Si4
_chemical_formula_sum              "Cl8 Eu8 O12 Si4"
_cell_length_a       9.00779
_cell_length_b       9.00779
_cell_length_c       9.00779
_cell_angle_alpha    117.799
_cell_angle_beta     105.475
_cell_angle_gamma    105.475

_space_group_name_H-M_alt    "P 1"
_space_group_IT_number       1

loop_
  _space_group_symop_operation_xyz
  'x, y, z'

loop_
  _atom_site_type_symbol
  _atom_site_label
  _atom_site_symmetry_multiplicity
  _atom_site_fract_x
  _atom_site_fract_y
  _atom_site_fract_z
  _atom_site_occupancy
  Cl  Cl1       1.0  0.35100  0.25300  0.09810  1.0000
  Cl  Cl2       1.0  0.00000  0.20300  0.20300  1.0000
  Cl  Cl3       1.0  0.50000  0.75000  0.25000  1.0000
  Cl  Cl4       1.0  0.15500  0.90200  0.25300  1.0000
  Cl  Cl5       1.0  0.84500  0.09810  0.74700  1.0000
  Cl  Cl6       1.0  0.50000  0.25000  0.75000  1.0000
  Cl  Cl7       1.0  0.00000  0.79700  0.79700  1.0000
  Cl  Cl8       1.0  0.64900  0.74700  0.90200  1.0000
  Eu  Eu1       1.0  0.33100  0.84900  0.01800  1.0000
  Eu  Eu2       1.0  0.16900  0.48200  0.15100  1.0000
  Eu  Eu3       1.0  0.83100  0.98200  0.31300  1.0000
  Eu  Eu4       1.0  0.33100  0.31300  0.48200  1.0000
  Eu  Eu5       1.0  0.66900  0.68700  0.51800  1.0000
  Eu  Eu6       1.0  0.16900  0.01800  0.68700  1.0000
  Eu  Eu7       1.0  0.83100  0.51800  0.84900  1.0000
  Eu  Eu8       1.0  0.66900  0.15100  0.98200  1.0000
  O   O1        1.0  0.88100  0.47800  0.09840  1.0000
  O   O2        1.0  0.62000  0.09840  0.21700  1.0000
  O   O3        1.0  0.77800  0.44800  0.33000  1.0000
  O   O4        1.0  0.88100  0.78300  0.40300  1.0000
  O   O5        1.0  0.11700  0.67000  0.44800  1.0000
  O   O6        1.0  0.38000  0.59700  0.47800  1.0000
  O   O7        1.0  0.62000  0.40300  0.52200  1.0000
  O   O8        1.0  0.88300  0.33000  0.55200  1.0000
  O   O9        1.0  0.11900  0.21700  0.59700  1.0000
  O   O10       1.0  0.22200  0.55200  0.67000  1.0000
  O   O11       1.0  0.38000  0.90200  0.78300  1.0000
  O   O12       1.0  0.11900  0.52200  0.90200  1.0000
  Si  Si1       1.0  0.91200  0.59900  0.31300  1.0000
  Si  Si2       1.0  0.71400  0.31300  0.40100  1.0000
  Si  Si3       1.0  0.28600  0.68700  0.59900  1.0000
  Si  Si4       1.0  0.08840  0.40100  0.68700  1.0000
