data_image0
_chemical_formula_structural       Ba20Si12
_chemical_formula_sum              "Ba20 Si12"
_cell_length_a       8.49319
_cell_length_b       8.49319
_cell_length_c       16.6766
_cell_angle_alpha    90
_cell_angle_beta     90
_cell_angle_gamma    90

_space_group_name_H-M_alt    "P 1"
_space_group_IT_number       1

loop_
  _space_group_symop_operation_xyz
  'x, y, z'

loop_
  _atom_site_type_symbol
  _atom_site_label
  _atom_site_symmetry_multiplicity
  _atom_site_fract_x
  _atom_site_fract_y
  _atom_site_fract_z
  _atom_site_occupancy
  Ba  Ba1       1.0  0.58200  0.05310  0.10900  1.0000
  Ba  Ba2       1.0  0.91800  0.44700  0.10900  1.0000
  Ba  Ba3       1.0  0.44700  0.58200  0.10900  1.0000
  Ba  Ba4       1.0  0.05310  0.91800  0.10900  1.0000
  Ba  Ba5       1.0  0.25000  0.25000  0.22000  1.0000
  Ba  Ba6       1.0  0.75000  0.75000  0.28000  1.0000
  Ba  Ba7       1.0  0.55300  0.08180  0.39100  1.0000
  Ba  Ba8       1.0  0.94700  0.41800  0.39100  1.0000
  Ba  Ba9       1.0  0.41800  0.55300  0.39100  1.0000
  Ba  Ba10      1.0  0.08180  0.94700  0.39100  1.0000
  Ba  Ba11      1.0  0.91800  0.05310  0.60900  1.0000
  Ba  Ba12      1.0  0.58200  0.44700  0.60900  1.0000
  Ba  Ba13      1.0  0.05310  0.58200  0.60900  1.0000
  Ba  Ba14      1.0  0.44700  0.91800  0.60900  1.0000
  Ba  Ba15      1.0  0.25000  0.25000  0.72000  1.0000
  Ba  Ba16      1.0  0.75000  0.75000  0.78000  1.0000
  Ba  Ba17      1.0  0.94700  0.08180  0.89100  1.0000
  Ba  Ba18      1.0  0.55300  0.41800  0.89100  1.0000
  Ba  Ba19      1.0  0.08180  0.55300  0.89100  1.0000
  Ba  Ba20      1.0  0.41800  0.94700  0.89100  1.0000
  Si  Si1       1.0  0.25000  0.25000  0.01170  1.0000
  Si  Si2       1.0  0.85200  0.14800  0.25000  1.0000
  Si  Si3       1.0  0.64800  0.35200  0.25000  1.0000
  Si  Si4       1.0  0.14800  0.64800  0.25000  1.0000
  Si  Si5       1.0  0.35200  0.85200  0.25000  1.0000
  Si  Si6       1.0  0.75000  0.75000  0.48800  1.0000
  Si  Si7       1.0  0.25000  0.25000  0.51200  1.0000
  Si  Si8       1.0  0.64800  0.14800  0.75000  1.0000
  Si  Si9       1.0  0.85200  0.35200  0.75000  1.0000
  Si  Si10      1.0  0.35200  0.64800  0.75000  1.0000
  Si  Si11      1.0  0.14800  0.85200  0.75000  1.0000
  Si  Si12      1.0  0.75000  0.75000  0.98800  1.0000
