data_image0
_chemical_formula_structural       Ho8O16Se4Si4
_chemical_formula_sum              "Ho8 O16 Se4 Si4"
_cell_length_a       5.98461
_cell_length_b       6.90054
_cell_length_c       10.7209
_cell_angle_alpha    90
_cell_angle_beta     90
_cell_angle_gamma    90

_space_group_name_H-M_alt    "P 1"
_space_group_IT_number       1

loop_
  _space_group_symop_operation_xyz
  'x, y, z'

loop_
  _atom_site_type_symbol
  _atom_site_label
  _atom_site_symmetry_multiplicity
  _atom_site_fract_x
  _atom_site_fract_y
  _atom_site_fract_z
  _atom_site_occupancy
  Ho  Ho1       1.0  0.60700  0.25000  0.00000  1.0000
  Ho  Ho2       1.0  0.39300  0.75000  0.00000  1.0000
  Ho  Ho3       1.0  0.13300  0.47200  0.25000  1.0000
  Ho  Ho4       1.0  0.86700  0.97200  0.25000  1.0000
  Ho  Ho5       1.0  0.60700  0.25000  0.50000  1.0000
  Ho  Ho6       1.0  0.39300  0.75000  0.50000  1.0000
  Ho  Ho7       1.0  0.13300  0.02830  0.75000  1.0000
  Ho  Ho8       1.0  0.86700  0.52800  0.75000  1.0000
  O   O1        1.0  0.27700  0.43300  0.03200  1.0000
  O   O2        1.0  0.72300  0.93300  0.03200  1.0000
  O   O3        1.0  0.94400  0.24100  0.12200  1.0000
  O   O4        1.0  0.05570  0.74100  0.12200  1.0000
  O   O5        1.0  0.94400  0.24100  0.37800  1.0000
  O   O6        1.0  0.05570  0.74100  0.37800  1.0000
  O   O7        1.0  0.27700  0.43300  0.46800  1.0000
  O   O8        1.0  0.72300  0.93300  0.46800  1.0000
  O   O9        1.0  0.27700  0.06710  0.53200  1.0000
  O   O10       1.0  0.72300  0.56700  0.53200  1.0000
  O   O11       1.0  0.94400  0.25900  0.62200  1.0000
  O   O12       1.0  0.05570  0.75900  0.62200  1.0000
  O   O13       1.0  0.94400  0.25900  0.87800  1.0000
  O   O14       1.0  0.05570  0.75900  0.87800  1.0000
  O   O15       1.0  0.27700  0.06710  0.96800  1.0000
  O   O16       1.0  0.72300  0.56700  0.96800  1.0000
  Se  Se1       1.0  0.42300  0.12500  0.25000  1.0000
  Se  Se2       1.0  0.57700  0.62500  0.25000  1.0000
  Se  Se3       1.0  0.42300  0.37500  0.75000  1.0000
  Se  Se4       1.0  0.57700  0.87500  0.75000  1.0000
  Si  Si1       1.0  0.11300  0.25000  0.00000  1.0000
  Si  Si2       1.0  0.88700  0.75000  0.00000  1.0000
  Si  Si3       1.0  0.11300  0.25000  0.50000  1.0000
  Si  Si4       1.0  0.88700  0.75000  0.50000  1.0000
