data_image0
_chemical_formula_structural       Ag4As4Hg8O16
_chemical_formula_sum              "Ag4 As4 Hg8 O16"
_cell_length_a       8.70728
_cell_length_b       9.66209
_cell_length_c       6.34917
_cell_angle_alpha    90
_cell_angle_beta     90
_cell_angle_gamma    90

_space_group_name_H-M_alt    "P 1"
_space_group_IT_number       1

loop_
  _space_group_symop_operation_xyz
  'x, y, z'

loop_
  _atom_site_type_symbol
  _atom_site_label
  _atom_site_symmetry_multiplicity
  _atom_site_fract_x
  _atom_site_fract_y
  _atom_site_fract_z
  _atom_site_occupancy
  Ag  Ag1       1.0  0.97300  0.14600  0.50000  1.0000
  Ag  Ag2       1.0  0.47300  0.35400  0.50000  1.0000
  Ag  Ag3       1.0  0.52700  0.64600  0.50000  1.0000
  Ag  Ag4       1.0  0.02660  0.85400  0.50000  1.0000
  As  As1       1.0  0.53500  0.21500  0.00000  1.0000
  As  As2       1.0  0.03470  0.28500  0.00000  1.0000
  As  As3       1.0  0.96500  0.71500  0.00000  1.0000
  As  As4       1.0  0.46500  0.78500  0.00000  1.0000
  Hg  Hg1       1.0  0.24100  0.02760  0.29000  1.0000
  Hg  Hg2       1.0  0.74100  0.47200  0.29000  1.0000
  Hg  Hg3       1.0  0.25900  0.52800  0.29000  1.0000
  Hg  Hg4       1.0  0.75900  0.97200  0.29000  1.0000
  Hg  Hg5       1.0  0.24100  0.02760  0.71000  1.0000
  Hg  Hg6       1.0  0.74100  0.47200  0.71000  1.0000
  Hg  Hg7       1.0  0.25900  0.52800  0.71000  1.0000
  Hg  Hg8       1.0  0.75900  0.97200  0.71000  1.0000
  O   O1        1.0  0.67900  0.09110  0.00000  1.0000
  O   O2        1.0  0.11100  0.12100  0.00000  1.0000
  O   O3        1.0  0.61100  0.37900  0.00000  1.0000
  O   O4        1.0  0.17900  0.40900  0.00000  1.0000
  O   O5        1.0  0.82100  0.59100  0.00000  1.0000
  O   O6        1.0  0.38900  0.62100  0.00000  1.0000
  O   O7        1.0  0.88900  0.87900  0.00000  1.0000
  O   O8        1.0  0.32100  0.90900  0.00000  1.0000
  O   O9        1.0  0.43700  0.19500  0.23300  1.0000
  O   O10       1.0  0.93700  0.30500  0.23300  1.0000
  O   O11       1.0  0.06340  0.69500  0.23300  1.0000
  O   O12       1.0  0.56300  0.80500  0.23300  1.0000
  O   O13       1.0  0.43700  0.19500  0.76700  1.0000
  O   O14       1.0  0.93700  0.30500  0.76700  1.0000
  O   O15       1.0  0.06340  0.69500  0.76700  1.0000
  O   O16       1.0  0.56300  0.80500  0.76700  1.0000
