data_image0
_chemical_formula_structural       Bi8O20Se4
_chemical_formula_sum              "Bi8 O20 Se4"
_cell_length_a       5.48843
_cell_length_b       8.56991
_cell_length_c       11.2767
_cell_angle_alpha    90
_cell_angle_beta     90
_cell_angle_gamma    108.676

_space_group_name_H-M_alt    "P 1"
_space_group_IT_number       1

loop_
  _space_group_symop_operation_xyz
  'x, y, z'

loop_
  _atom_site_type_symbol
  _atom_site_label
  _atom_site_symmetry_multiplicity
  _atom_site_fract_x
  _atom_site_fract_y
  _atom_site_fract_z
  _atom_site_occupancy
  Bi  Bi1       1.0  0.74600  0.50000  0.12100  1.0000
  Bi  Bi2       1.0  0.26400  0.50000  0.38200  1.0000
  Bi  Bi3       1.0  0.57500  0.17000  0.38600  1.0000
  Bi  Bi4       1.0  0.90400  0.83000  0.38600  1.0000
  Bi  Bi5       1.0  0.07460  0.17000  0.61400  1.0000
  Bi  Bi6       1.0  0.40400  0.83000  0.61400  1.0000
  Bi  Bi7       1.0  0.76400  0.50000  0.61800  1.0000
  Bi  Bi8       1.0  0.24600  0.50000  0.87900  1.0000
  O   O1        1.0  0.34500  0.29100  0.06960  1.0000
  O   O2        1.0  0.55400  0.70900  0.06960  1.0000
  O   O3        1.0  0.94000  0.31200  0.20100  1.0000
  O   O4        1.0  0.12800  0.68800  0.20100  1.0000
  O   O5        1.0  0.16700  0.09700  0.26000  1.0000
  O   O6        1.0  0.57000  0.90300  0.26000  1.0000
  O   O7        1.0  0.63900  0.50000  0.29700  1.0000
  O   O8        1.0  0.38800  0.32700  0.49200  1.0000
  O   O9        1.0  0.56100  0.67300  0.49200  1.0000
  O   O10       1.0  0.26600  0.00000  0.50000  1.0000
  O   O11       1.0  0.76600  0.00000  0.50000  1.0000
  O   O12       1.0  0.88800  0.32700  0.50800  1.0000
  O   O13       1.0  0.06080  0.67300  0.50800  1.0000
  O   O14       1.0  0.13900  0.50000  0.70300  1.0000
  O   O15       1.0  0.66700  0.09700  0.74000  1.0000
  O   O16       1.0  0.06990  0.90300  0.74000  1.0000
  O   O17       1.0  0.44000  0.31200  0.79900  1.0000
  O   O18       1.0  0.62800  0.68800  0.79900  1.0000
  O   O19       1.0  0.84500  0.29100  0.93000  1.0000
  O   O20       1.0  0.05370  0.70900  0.93000  1.0000
  Se  Se1       1.0  0.06220  0.16800  0.13400  1.0000
  Se  Se2       1.0  0.39400  0.83200  0.13400  1.0000
  Se  Se3       1.0  0.56200  0.16800  0.86600  1.0000
  Se  Se4       1.0  0.89400  0.83200  0.86600  1.0000
