data_image0
_chemical_formula_structural       Gd8O16Si4Te4
_chemical_formula_sum              "Gd8 O16 Si4 Te4"
_cell_length_a       6.1679
_cell_length_b       7.02948
_cell_length_c       11.0271
_cell_angle_alpha    90
_cell_angle_beta     90
_cell_angle_gamma    90

_space_group_name_H-M_alt    "P 1"
_space_group_IT_number       1

loop_
  _space_group_symop_operation_xyz
  'x, y, z'

loop_
  _atom_site_type_symbol
  _atom_site_label
  _atom_site_symmetry_multiplicity
  _atom_site_fract_x
  _atom_site_fract_y
  _atom_site_fract_z
  _atom_site_occupancy
  Gd  Gd1       1.0  0.61100  0.25000  0.00000  1.0000
  Gd  Gd2       1.0  0.38900  0.75000  0.00000  1.0000
  Gd  Gd3       1.0  0.11200  0.03390  0.25000  1.0000
  Gd  Gd4       1.0  0.88800  0.53400  0.25000  1.0000
  Gd  Gd5       1.0  0.61100  0.25000  0.50000  1.0000
  Gd  Gd6       1.0  0.38900  0.75000  0.50000  1.0000
  Gd  Gd7       1.0  0.11200  0.46600  0.75000  1.0000
  Gd  Gd8       1.0  0.88800  0.96600  0.75000  1.0000
  O   O1        1.0  0.27300  0.07160  0.03500  1.0000
  O   O2        1.0  0.72700  0.57200  0.03500  1.0000
  O   O3        1.0  0.94700  0.26400  0.11800  1.0000
  O   O4        1.0  0.05350  0.76400  0.11800  1.0000
  O   O5        1.0  0.94700  0.26400  0.38200  1.0000
  O   O6        1.0  0.05350  0.76400  0.38200  1.0000
  O   O7        1.0  0.27300  0.07160  0.46500  1.0000
  O   O8        1.0  0.72700  0.57200  0.46500  1.0000
  O   O9        1.0  0.27300  0.42800  0.53500  1.0000
  O   O10       1.0  0.72700  0.92800  0.53500  1.0000
  O   O11       1.0  0.94700  0.23600  0.61800  1.0000
  O   O12       1.0  0.05350  0.73600  0.61800  1.0000
  O   O13       1.0  0.94700  0.23600  0.88200  1.0000
  O   O14       1.0  0.05350  0.73600  0.88200  1.0000
  O   O15       1.0  0.27300  0.42800  0.96500  1.0000
  O   O16       1.0  0.72700  0.92800  0.96500  1.0000
  Si  Si1       1.0  0.11300  0.25000  0.00000  1.0000
  Si  Si2       1.0  0.88700  0.75000  0.00000  1.0000
  Si  Si3       1.0  0.11300  0.25000  0.50000  1.0000
  Si  Si4       1.0  0.88700  0.75000  0.50000  1.0000
  Te  Te1       1.0  0.40400  0.41200  0.25000  1.0000
  Te  Te2       1.0  0.59600  0.91200  0.25000  1.0000
  Te  Te3       1.0  0.40400  0.08810  0.75000  1.0000
  Te  Te4       1.0  0.59600  0.58800  0.75000  1.0000
