data_image0
_chemical_formula_structural       Cs4H8N4O12S4
_chemical_formula_sum              "Cs4 H8 N4 O12 S4"
_cell_length_a       8.09632
_cell_length_b       7.50729
_cell_length_c       8.23985
_cell_angle_alpha    90
_cell_angle_beta     115.714
_cell_angle_gamma    90

_space_group_name_H-M_alt    "P 1"
_space_group_IT_number       1

loop_
  _space_group_symop_operation_xyz
  'x, y, z'

loop_
  _atom_site_type_symbol
  _atom_site_label
  _atom_site_symmetry_multiplicity
  _atom_site_fract_x
  _atom_site_fract_y
  _atom_site_fract_z
  _atom_site_occupancy
  Cs  Cs1       1.0  0.81400  0.85500  0.05590  1.0000
  Cs  Cs2       1.0  0.18600  0.35500  0.44400  1.0000
  Cs  Cs3       1.0  0.81400  0.64500  0.55600  1.0000
  Cs  Cs4       1.0  0.18600  0.14500  0.94400  1.0000
  H   H1        1.0  0.48200  0.48600  0.17100  1.0000
  H   H2        1.0  0.63800  0.11000  0.24900  1.0000
  H   H3        1.0  0.36200  0.61000  0.25100  1.0000
  H   H4        1.0  0.51800  0.98600  0.32900  1.0000
  H   H5        1.0  0.48200  0.01440  0.67100  1.0000
  H   H6        1.0  0.63800  0.39000  0.74900  1.0000
  H   H7        1.0  0.36200  0.89000  0.75100  1.0000
  H   H8        1.0  0.51800  0.51400  0.82900  1.0000
  N   N1        1.0  0.35200  0.53000  0.14500  1.0000
  N   N2        1.0  0.64800  0.03020  0.35500  1.0000
  N   N3        1.0  0.35200  0.97000  0.64500  1.0000
  N   N4        1.0  0.64800  0.47000  0.85500  1.0000
  O   O1        1.0  0.59200  0.21000  0.02730  1.0000
  O   O2        1.0  0.90100  0.27600  0.06220  1.0000
  O   O3        1.0  0.74500  0.47900  0.18500  1.0000
  O   O4        1.0  0.25500  0.97900  0.31500  1.0000
  O   O5        1.0  0.09930  0.77600  0.43800  1.0000
  O   O6        1.0  0.40800  0.71000  0.47300  1.0000
  O   O7        1.0  0.59200  0.29000  0.52700  1.0000
  O   O8        1.0  0.90100  0.22400  0.56200  1.0000
  O   O9        1.0  0.74500  0.02050  0.68500  1.0000
  O   O10       1.0  0.25500  0.52100  0.81500  1.0000
  O   O11       1.0  0.09930  0.72400  0.93800  1.0000
  O   O12       1.0  0.40800  0.79000  0.97300  1.0000
  S   S1        1.0  0.72600  0.35100  0.04350  1.0000
  S   S2        1.0  0.27400  0.85100  0.45600  1.0000
  S   S3        1.0  0.72600  0.14900  0.54400  1.0000
  S   S4        1.0  0.27400  0.64900  0.95600  1.0000
