data_image0
_chemical_formula_structural       Cl12H12N4Sc4
_chemical_formula_sum              "Cl12 H12 N4 Sc4"
_cell_length_a       6.99566
_cell_length_b       9.1878
_cell_length_c       9.25199
_cell_angle_alpha    72.2944
_cell_angle_beta     78.0363
_cell_angle_gamma    79.6268

_space_group_name_H-M_alt    "P 1"
_space_group_IT_number       1

loop_
  _space_group_symop_operation_xyz
  'x, y, z'

loop_
  _atom_site_type_symbol
  _atom_site_label
  _atom_site_symmetry_multiplicity
  _atom_site_fract_x
  _atom_site_fract_y
  _atom_site_fract_z
  _atom_site_occupancy
  Cl  Cl1       1.0  0.79600  0.82000  0.06630  1.0000
  Cl  Cl2       1.0  0.10600  0.45600  0.16000  1.0000
  Cl  Cl3       1.0  0.60300  0.41500  0.21100  1.0000
  Cl  Cl4       1.0  0.91100  0.08440  0.29800  1.0000
  Cl  Cl5       1.0  0.41300  0.04890  0.33400  1.0000
  Cl  Cl6       1.0  0.23400  0.69100  0.42300  1.0000
  Cl  Cl7       1.0  0.76600  0.30900  0.57700  1.0000
  Cl  Cl8       1.0  0.58700  0.95100  0.66600  1.0000
  Cl  Cl9       1.0  0.08940  0.91600  0.70200  1.0000
  Cl  Cl10      1.0  0.39700  0.58500  0.78900  1.0000
  Cl  Cl11      1.0  0.89400  0.54400  0.84000  1.0000
  Cl  Cl12      1.0  0.20400  0.18000  0.93400  1.0000
  H   H1        1.0  0.26100  0.90900  0.00525  1.0000
  H   H2        1.0  0.56600  0.23700  0.00736  1.0000
  H   H3        1.0  0.27400  0.75300  0.15300  1.0000
  H   H4        1.0  0.72900  0.73900  0.34100  1.0000
  H   H5        1.0  0.70400  0.58200  0.48600  1.0000
  H   H6        1.0  0.18800  0.28100  0.49900  1.0000
  H   H7        1.0  0.81200  0.71900  0.50100  1.0000
  H   H8        1.0  0.29600  0.41800  0.51400  1.0000
  H   H9        1.0  0.27100  0.26100  0.65900  1.0000
  H   H10       1.0  0.72600  0.24700  0.84700  1.0000
  H   H11       1.0  0.43400  0.76300  0.99300  1.0000
  H   H12       1.0  0.73900  0.09090  0.99500  1.0000
  N   N1        1.0  0.28800  0.79000  0.03390  1.0000
  N   N2        1.0  0.69700  0.70000  0.45900  1.0000
  N   N3        1.0  0.30300  0.30000  0.54100  1.0000
  N   N4        1.0  0.71200  0.21000  0.96600  1.0000
  Sc  Sc1       1.0  0.92000  0.30500  0.06070  1.0000
  Sc  Sc2       1.0  0.60100  0.19100  0.44900  1.0000
  Sc  Sc3       1.0  0.39900  0.80900  0.55100  1.0000
  Sc  Sc4       1.0  0.08010  0.69500  0.93900  1.0000
