data_image0
_chemical_formula_structural       B6Cs6Se20
_chemical_formula_sum              "B6 Cs6 Se20"
_cell_length_a       7.83508
_cell_length_b       8.72719
_cell_length_c       15.5832
_cell_angle_alpha    106.065
_cell_angle_beta     89.0765
_cell_angle_gamma    102.002

_space_group_name_H-M_alt    "P 1"
_space_group_IT_number       1

loop_
  _space_group_symop_operation_xyz
  'x, y, z'

loop_
  _atom_site_type_symbol
  _atom_site_label
  _atom_site_symmetry_multiplicity
  _atom_site_fract_x
  _atom_site_fract_y
  _atom_site_fract_z
  _atom_site_occupancy
  B   B1        1.0  0.38800  0.89800  0.09360  1.0000
  B   B2        1.0  0.27100  0.69500  0.23700  1.0000
  B   B3        1.0  0.09840  0.60200  0.40800  1.0000
  B   B4        1.0  0.90200  0.39800  0.59200  1.0000
  B   B5        1.0  0.72900  0.30500  0.76300  1.0000
  B   B6        1.0  0.61200  0.10200  0.90600  1.0000
  Cs  Cs1       1.0  0.74400  0.47900  0.14100  1.0000
  Cs  Cs2       1.0  0.95700  0.06300  0.21600  1.0000
  Cs  Cs3       1.0  0.33500  0.17100  0.48400  1.0000
  Cs  Cs4       1.0  0.66500  0.82900  0.51600  1.0000
  Cs  Cs5       1.0  0.04290  0.93700  0.78400  1.0000
  Cs  Cs6       1.0  0.25600  0.52100  0.85900  1.0000
  Se  Se1       1.0  0.23400  0.98400  0.01960  1.0000
  Se  Se2       1.0  0.58200  0.79600  0.02650  1.0000
  Se  Se3       1.0  0.20600  0.69800  0.10900  1.0000
  Se  Se4       1.0  0.46100  0.06020  0.21800  1.0000
  Se  Se5       1.0  0.29000  0.45800  0.22100  1.0000
  Se  Se6       1.0  0.51000  0.85200  0.28200  1.0000
  Se  Se7       1.0  0.07640  0.75200  0.32800  1.0000
  Se  Se8       1.0  0.30800  0.49100  0.37800  1.0000
  Se  Se9       1.0  0.85600  0.44900  0.37900  1.0000
  Se  Se10      1.0  0.85400  0.25000  0.46300  1.0000
  Se  Se11      1.0  0.14600  0.75000  0.53700  1.0000
  Se  Se12      1.0  0.14400  0.55100  0.62100  1.0000
  Se  Se13      1.0  0.69200  0.50900  0.62200  1.0000
  Se  Se14      1.0  0.92400  0.24800  0.67200  1.0000
  Se  Se15      1.0  0.49000  0.14800  0.71800  1.0000
  Se  Se16      1.0  0.71000  0.54200  0.77900  1.0000
  Se  Se17      1.0  0.53900  0.94000  0.78200  1.0000
  Se  Se18      1.0  0.79400  0.30200  0.89100  1.0000
  Se  Se19      1.0  0.41800  0.20400  0.97400  1.0000
  Se  Se20      1.0  0.76600  0.01600  0.98000  1.0000
