data_image0
_chemical_formula_structural       Cl8Cs4O12Se4Y4
_chemical_formula_sum              "Cl8 Cs4 O12 Se4 Y4"
_cell_length_a       6.6709
_cell_length_b       7.01307
_cell_length_c       17.3369
_cell_angle_alpha    90
_cell_angle_beta     98.5543
_cell_angle_gamma    90

_space_group_name_H-M_alt    "P 1"
_space_group_IT_number       1

loop_
  _space_group_symop_operation_xyz
  'x, y, z'

loop_
  _atom_site_type_symbol
  _atom_site_label
  _atom_site_symmetry_multiplicity
  _atom_site_fract_x
  _atom_site_fract_y
  _atom_site_fract_z
  _atom_site_occupancy
  Cl  Cl1       1.0  0.32200  0.84500  0.08760  1.0000
  Cl  Cl2       1.0  0.98100  0.31500  0.10700  1.0000
  Cl  Cl3       1.0  0.51900  0.81500  0.39300  1.0000
  Cl  Cl4       1.0  0.17800  0.34500  0.41200  1.0000
  Cl  Cl5       1.0  0.82200  0.65500  0.58800  1.0000
  Cl  Cl6       1.0  0.48100  0.18500  0.60700  1.0000
  Cl  Cl7       1.0  0.01930  0.68500  0.89300  1.0000
  Cl  Cl8       1.0  0.67800  0.15500  0.91200  1.0000
  Cs  Cs1       1.0  0.81000  0.79300  0.05470  1.0000
  Cs  Cs2       1.0  0.69000  0.29300  0.44500  1.0000
  Cs  Cs3       1.0  0.31000  0.70700  0.55500  1.0000
  Cs  Cs4       1.0  0.19000  0.20700  0.94500  1.0000
  O   O1        1.0  0.71800  0.83100  0.22600  1.0000
  O   O2        1.0  0.41800  0.50200  0.23400  1.0000
  O   O3        1.0  0.42300  0.15000  0.24400  1.0000
  O   O4        1.0  0.07710  0.65000  0.25600  1.0000
  O   O5        1.0  0.08160  0.00187  0.26600  1.0000
  O   O6        1.0  0.78200  0.33100  0.27400  1.0000
  O   O7        1.0  0.21800  0.66900  0.72600  1.0000
  O   O8        1.0  0.91800  0.99800  0.73400  1.0000
  O   O9        1.0  0.92300  0.35000  0.74400  1.0000
  O   O10       1.0  0.57700  0.85000  0.75600  1.0000
  O   O11       1.0  0.58200  0.49800  0.76600  1.0000
  O   O12       1.0  0.28200  0.16900  0.77400  1.0000
  Se  Se1       1.0  0.57100  0.32100  0.20600  1.0000
  Se  Se2       1.0  0.92900  0.82100  0.29400  1.0000
  Se  Se3       1.0  0.07110  0.17900  0.70600  1.0000
  Se  Se4       1.0  0.42900  0.67900  0.79400  1.0000
  Y   Y1        1.0  0.38000  0.82600  0.24200  1.0000
  Y   Y2        1.0  0.12000  0.32600  0.25800  1.0000
  Y   Y3        1.0  0.88000  0.67400  0.74200  1.0000
  Y   Y4        1.0  0.62000  0.17400  0.75800  1.0000
