data_image0
_chemical_formula_structural       O16Se4Si4Tb8
_chemical_formula_sum              "O16 Se4 Si4 Tb8"
_cell_length_a       6.0297
_cell_length_b       6.96138
_cell_length_c       10.78
_cell_angle_alpha    90
_cell_angle_beta     90
_cell_angle_gamma    90

_space_group_name_H-M_alt    "P 1"
_space_group_IT_number       1

loop_
  _space_group_symop_operation_xyz
  'x, y, z'

loop_
  _atom_site_type_symbol
  _atom_site_label
  _atom_site_symmetry_multiplicity
  _atom_site_fract_x
  _atom_site_fract_y
  _atom_site_fract_z
  _atom_site_occupancy
  O   O1        1.0  0.27500  0.06860  0.03230  1.0000
  O   O2        1.0  0.72500  0.56900  0.03230  1.0000
  O   O3        1.0  0.94500  0.26000  0.12100  1.0000
  O   O4        1.0  0.05500  0.76000  0.12100  1.0000
  O   O5        1.0  0.94500  0.26000  0.37900  1.0000
  O   O6        1.0  0.05500  0.76000  0.37900  1.0000
  O   O7        1.0  0.27500  0.06860  0.46800  1.0000
  O   O8        1.0  0.72500  0.56900  0.46800  1.0000
  O   O9        1.0  0.27500  0.43100  0.53200  1.0000
  O   O10       1.0  0.72500  0.93100  0.53200  1.0000
  O   O11       1.0  0.94500  0.24000  0.62100  1.0000
  O   O12       1.0  0.05500  0.74000  0.62100  1.0000
  O   O13       1.0  0.94500  0.24000  0.87900  1.0000
  O   O14       1.0  0.05500  0.74000  0.87900  1.0000
  O   O15       1.0  0.27500  0.43100  0.96800  1.0000
  O   O16       1.0  0.72500  0.93100  0.96800  1.0000
  Se  Se1       1.0  0.42200  0.37800  0.25000  1.0000
  Se  Se2       1.0  0.57800  0.87800  0.25000  1.0000
  Se  Se3       1.0  0.42200  0.12200  0.75000  1.0000
  Se  Se4       1.0  0.57800  0.62200  0.75000  1.0000
  Si  Si1       1.0  0.11200  0.25000  0.00000  1.0000
  Si  Si2       1.0  0.88800  0.75000  0.00000  1.0000
  Si  Si3       1.0  0.11200  0.25000  0.50000  1.0000
  Si  Si4       1.0  0.88800  0.75000  0.50000  1.0000
  Tb  Tb1       1.0  0.60700  0.25000  0.00000  1.0000
  Tb  Tb2       1.0  0.39300  0.75000  0.00000  1.0000
  Tb  Tb3       1.0  0.13200  0.02950  0.25000  1.0000
  Tb  Tb4       1.0  0.86800  0.53000  0.25000  1.0000
  Tb  Tb5       1.0  0.60700  0.25000  0.50000  1.0000
  Tb  Tb6       1.0  0.39300  0.75000  0.50000  1.0000
  Tb  Tb7       1.0  0.13200  0.47000  0.75000  1.0000
  Tb  Tb8       1.0  0.86800  0.97000  0.75000  1.0000
