data_image0
_chemical_formula_structural       Ag4O20Te4V4
_chemical_formula_sum              "Ag4 O20 Te4 V4"
_cell_length_a       5.7902
_cell_length_b       11.2672
_cell_length_c       6.77667
_cell_angle_alpha    90
_cell_angle_beta     101.963
_cell_angle_gamma    90

_space_group_name_H-M_alt    "P 1"
_space_group_IT_number       1

loop_
  _space_group_symop_operation_xyz
  'x, y, z'

loop_
  _atom_site_type_symbol
  _atom_site_label
  _atom_site_symmetry_multiplicity
  _atom_site_fract_x
  _atom_site_fract_y
  _atom_site_fract_z
  _atom_site_occupancy
  Ag  Ag1       1.0  0.20600  0.29200  0.19400  1.0000
  Ag  Ag2       1.0  0.79400  0.79200  0.30600  1.0000
  Ag  Ag3       1.0  0.20600  0.20800  0.69400  1.0000
  Ag  Ag4       1.0  0.79400  0.70800  0.80600  1.0000
  O   O1        1.0  0.12500  0.09330  0.01510  1.0000
  O   O2        1.0  0.53600  0.70000  0.02720  1.0000
  O   O3        1.0  0.83900  0.45500  0.14000  1.0000
  O   O4        1.0  0.13500  0.71700  0.17800  1.0000
  O   O5        1.0  0.57100  0.01770  0.21600  1.0000
  O   O6        1.0  0.42900  0.51800  0.28400  1.0000
  O   O7        1.0  0.86500  0.21700  0.32200  1.0000
  O   O8        1.0  0.16100  0.95500  0.36000  1.0000
  O   O9        1.0  0.46400  0.20000  0.47300  1.0000
  O   O10       1.0  0.87500  0.59300  0.48500  1.0000
  O   O11       1.0  0.12500  0.40700  0.51500  1.0000
  O   O12       1.0  0.53600  0.80000  0.52700  1.0000
  O   O13       1.0  0.83900  0.04510  0.64000  1.0000
  O   O14       1.0  0.13500  0.78300  0.67800  1.0000
  O   O15       1.0  0.57100  0.48200  0.71600  1.0000
  O   O16       1.0  0.42900  0.98200  0.78400  1.0000
  O   O17       1.0  0.86500  0.28300  0.82200  1.0000
  O   O18       1.0  0.16100  0.54500  0.86000  1.0000
  O   O19       1.0  0.46400  0.30000  0.97300  1.0000
  O   O20       1.0  0.87500  0.90700  0.98500  1.0000
  Te  Te1       1.0  0.23800  0.93300  0.09420  1.0000
  Te  Te2       1.0  0.76200  0.43300  0.40600  1.0000
  Te  Te3       1.0  0.23800  0.56700  0.59400  1.0000
  Te  Te4       1.0  0.76200  0.06650  0.90600  1.0000
  V   V1        1.0  0.31600  0.62100  0.08900  1.0000
  V   V2        1.0  0.68400  0.12100  0.41100  1.0000
  V   V3        1.0  0.31600  0.87900  0.58900  1.0000
  V   V4        1.0  0.68400  0.37900  0.91100  1.0000
