data_image0
_chemical_formula_structural       B10Gd3Ni19
_chemical_formula_sum              "B10 Gd3 Ni19"
_cell_length_a       5.79391
_cell_length_b       7.92016
_cell_length_c       7.92016
_cell_angle_alpha    67.1857
_cell_angle_beta     91.188
_cell_angle_gamma    91.188

_space_group_name_H-M_alt    "P 1"
_space_group_IT_number       1

loop_
  _space_group_symop_operation_xyz
  'x, y, z'

loop_
  _atom_site_type_symbol
  _atom_site_label
  _atom_site_symmetry_multiplicity
  _atom_site_fract_x
  _atom_site_fract_y
  _atom_site_fract_z
  _atom_site_occupancy
  B   B1        1.0  0.56800  0.70000  0.06370  1.0000
  B   B2        1.0  0.97500  0.34800  0.14300  1.0000
  B   B3        1.0  0.43200  0.93600  0.30000  1.0000
  B   B4        1.0  0.97500  0.14300  0.34800  1.0000
  B   B5        1.0  0.00000  0.61700  0.38300  1.0000
  B   B6        1.0  0.00000  0.38300  0.61700  1.0000
  B   B7        1.0  0.02460  0.85700  0.65200  1.0000
  B   B8        1.0  0.56800  0.06370  0.70000  1.0000
  B   B9        1.0  0.02460  0.65200  0.85700  1.0000
  B   B10       1.0  0.43200  0.30000  0.93600  1.0000
  Gd  Gd1       1.0  0.00000  0.00000  0.00000  1.0000
  Gd  Gd2       1.0  0.61100  0.37400  0.37400  1.0000
  Gd  Gd3       1.0  0.38900  0.62600  0.62600  1.0000
  Ni  Ni1       1.0  0.50000  0.00000  0.00000  1.0000
  Ni  Ni2       1.0  0.30100  0.51800  0.04490  1.0000
  Ni  Ni3       1.0  0.92600  0.62200  0.12200  1.0000
  Ni  Ni4       1.0  0.70200  0.16300  0.16300  1.0000
  Ni  Ni5       1.0  0.27200  0.18300  0.18300  1.0000
  Ni  Ni6       1.0  0.30100  0.71200  0.22900  1.0000
  Ni  Ni7       1.0  0.69900  0.77100  0.28800  1.0000
  Ni  Ni8       1.0  0.12300  0.37800  0.37800  1.0000
  Ni  Ni9       1.0  0.07440  0.87800  0.37800  1.0000
  Ni  Ni10      1.0  0.69900  0.95500  0.48200  1.0000
  Ni  Ni11      1.0  0.30100  0.04490  0.51800  1.0000
  Ni  Ni12      1.0  0.92600  0.12200  0.62200  1.0000
  Ni  Ni13      1.0  0.87700  0.62200  0.62200  1.0000
  Ni  Ni14      1.0  0.30100  0.22900  0.71200  1.0000
  Ni  Ni15      1.0  0.69900  0.28800  0.77100  1.0000
  Ni  Ni16      1.0  0.72800  0.81700  0.81700  1.0000
  Ni  Ni17      1.0  0.29800  0.83700  0.83700  1.0000
  Ni  Ni18      1.0  0.07440  0.37800  0.87800  1.0000
  Ni  Ni19      1.0  0.69900  0.48200  0.95500  1.0000
