data_image0
_chemical_formula_structural       In8Rb8S16
_chemical_formula_sum              "In8 Rb8 S16"
_cell_length_a       7.95583
_cell_length_b       7.95583
_cell_length_c       15.823
_cell_angle_alpha    97.2213
_cell_angle_beta     82.7787
_cell_angle_gamma    89.9937

_space_group_name_H-M_alt    "P 1"
_space_group_IT_number       1

loop_
  _space_group_symop_operation_xyz
  'x, y, z'

loop_
  _atom_site_type_symbol
  _atom_site_label
  _atom_site_symmetry_multiplicity
  _atom_site_fract_x
  _atom_site_fract_y
  _atom_site_fract_z
  _atom_site_occupancy
  In  In1       1.0  0.21000  0.91700  0.16000  1.0000
  In  In2       1.0  0.21000  0.41300  0.16000  1.0000
  In  In3       1.0  0.41300  0.21000  0.34000  1.0000
  In  In4       1.0  0.91700  0.21000  0.34000  1.0000
  In  In5       1.0  0.08310  0.79000  0.66000  1.0000
  In  In6       1.0  0.58700  0.79000  0.66000  1.0000
  In  In7       1.0  0.79000  0.58700  0.84000  1.0000
  In  In8       1.0  0.79000  0.08310  0.84000  1.0000
  Rb  Rb1       1.0  0.72300  0.65300  0.11200  1.0000
  Rb  Rb2       1.0  0.72200  0.15300  0.11200  1.0000
  Rb  Rb3       1.0  0.15300  0.72200  0.38800  1.0000
  Rb  Rb4       1.0  0.65300  0.72300  0.38800  1.0000
  Rb  Rb5       1.0  0.34700  0.27700  0.61200  1.0000
  Rb  Rb6       1.0  0.84700  0.27800  0.61200  1.0000
  Rb  Rb7       1.0  0.27800  0.84700  0.88800  1.0000
  Rb  Rb8       1.0  0.27700  0.34700  0.88800  1.0000
  S   S1        1.0  0.23400  0.14100  0.06260  1.0000
  S   S2        1.0  0.23300  0.64100  0.06430  1.0000
  S   S3        1.0  0.44600  0.92800  0.25000  1.0000
  S   S4        1.0  0.44600  0.44600  0.25000  1.0000
  S   S5        1.0  0.92900  0.92900  0.25000  1.0000
  S   S6        1.0  0.92800  0.44600  0.25000  1.0000
  S   S7        1.0  0.64100  0.23300  0.43600  1.0000
  S   S8        1.0  0.14100  0.23400  0.43700  1.0000
  S   S9        1.0  0.85900  0.76600  0.56300  1.0000
  S   S10       1.0  0.35900  0.76700  0.56400  1.0000
  S   S11       1.0  0.07170  0.55400  0.75000  1.0000
  S   S12       1.0  0.07120  0.07120  0.75000  1.0000
  S   S13       1.0  0.55400  0.55400  0.75000  1.0000
  S   S14       1.0  0.55400  0.07170  0.75000  1.0000
  S   S15       1.0  0.76700  0.35900  0.93600  1.0000
  S   S16       1.0  0.76600  0.85900  0.93700  1.0000
