data_image0
_chemical_formula_structural       Bi4I4In8Se16
_chemical_formula_sum              "Bi4 I4 In8 Se16"
_cell_length_a       13.886
_cell_length_b       4.14841
_cell_length_c       17.0091
_cell_angle_alpha    90
_cell_angle_beta     90
_cell_angle_gamma    90

_space_group_name_H-M_alt    "P 1"
_space_group_IT_number       1

loop_
  _space_group_symop_operation_xyz
  'x, y, z'

loop_
  _atom_site_type_symbol
  _atom_site_label
  _atom_site_symmetry_multiplicity
  _atom_site_fract_x
  _atom_site_fract_y
  _atom_site_fract_z
  _atom_site_occupancy
  Bi  Bi1       1.0  0.96100  0.75000  0.11000  1.0000
  Bi  Bi2       1.0  0.46100  0.75000  0.39000  1.0000
  Bi  Bi3       1.0  0.53900  0.25000  0.61000  1.0000
  Bi  Bi4       1.0  0.03930  0.25000  0.89000  1.0000
  I   I1        1.0  0.56100  0.25000  0.22400  1.0000
  I   I2        1.0  0.06100  0.25000  0.27600  1.0000
  I   I3        1.0  0.93900  0.75000  0.72400  1.0000
  I   I4        1.0  0.43900  0.75000  0.77600  1.0000
  In  In1       1.0  0.25800  0.75000  0.00241  1.0000
  In  In2       1.0  0.39300  0.25000  0.13900  1.0000
  In  In3       1.0  0.89300  0.25000  0.36100  1.0000
  In  In4       1.0  0.75800  0.75000  0.49800  1.0000
  In  In5       1.0  0.24200  0.25000  0.50200  1.0000
  In  In6       1.0  0.10700  0.75000  0.63900  1.0000
  In  In7       1.0  0.60700  0.75000  0.86100  1.0000
  In  In8       1.0  0.74200  0.25000  0.99800  1.0000
  Se  Se1       1.0  0.61400  0.75000  0.01590  1.0000
  Se  Se2       1.0  0.10600  0.25000  0.04160  1.0000
  Se  Se3       1.0  0.82400  0.25000  0.14100  1.0000
  Se  Se4       1.0  0.27900  0.75000  0.16600  1.0000
  Se  Se5       1.0  0.77900  0.75000  0.33400  1.0000
  Se  Se6       1.0  0.32400  0.25000  0.35900  1.0000
  Se  Se7       1.0  0.60600  0.25000  0.45800  1.0000
  Se  Se8       1.0  0.11400  0.75000  0.48400  1.0000
  Se  Se9       1.0  0.88600  0.25000  0.51600  1.0000
  Se  Se10      1.0  0.39400  0.75000  0.54200  1.0000
  Se  Se11      1.0  0.67600  0.75000  0.64100  1.0000
  Se  Se12      1.0  0.22100  0.25000  0.66600  1.0000
  Se  Se13      1.0  0.72100  0.25000  0.83400  1.0000
  Se  Se14      1.0  0.17600  0.75000  0.85900  1.0000
  Se  Se15      1.0  0.89400  0.75000  0.95800  1.0000
  Se  Se16      1.0  0.38600  0.25000  0.98400  1.0000
