data_image0
_chemical_formula_structural       Ga12Na8Sb12
_chemical_formula_sum              "Ga12 Na8 Sb12"
_cell_length_a       27.1164
_cell_length_b       4.33732
_cell_length_c       7.32348
_cell_angle_alpha    90
_cell_angle_beta     90
_cell_angle_gamma    90

_space_group_name_H-M_alt    "P 1"
_space_group_IT_number       1

loop_
  _space_group_symop_operation_xyz
  'x, y, z'

loop_
  _atom_site_type_symbol
  _atom_site_label
  _atom_site_symmetry_multiplicity
  _atom_site_fract_x
  _atom_site_fract_y
  _atom_site_fract_z
  _atom_site_occupancy
  Ga  Ga1       1.0  0.88200  0.75000  0.04760  1.0000
  Ga  Ga2       1.0  0.20700  0.25000  0.07150  1.0000
  Ga  Ga3       1.0  0.62300  0.75000  0.10300  1.0000
  Ga  Ga4       1.0  0.12300  0.75000  0.39700  1.0000
  Ga  Ga5       1.0  0.70700  0.25000  0.42800  1.0000
  Ga  Ga6       1.0  0.38200  0.75000  0.45200  1.0000
  Ga  Ga7       1.0  0.61800  0.25000  0.54800  1.0000
  Ga  Ga8       1.0  0.29300  0.75000  0.57200  1.0000
  Ga  Ga9       1.0  0.87700  0.25000  0.60300  1.0000
  Ga  Ga10      1.0  0.37700  0.25000  0.89700  1.0000
  Ga  Ga11      1.0  0.79300  0.75000  0.92800  1.0000
  Ga  Ga12      1.0  0.11800  0.25000  0.95200  1.0000
  Na  Na1       1.0  0.49600  0.25000  0.22100  1.0000
  Na  Na2       1.0  0.81600  0.25000  0.24900  1.0000
  Na  Na3       1.0  0.31600  0.25000  0.25100  1.0000
  Na  Na4       1.0  0.99600  0.25000  0.27900  1.0000
  Na  Na5       1.0  0.00384  0.75000  0.72100  1.0000
  Na  Na6       1.0  0.68400  0.75000  0.74900  1.0000
  Na  Na7       1.0  0.18400  0.75000  0.75100  1.0000
  Na  Na8       1.0  0.50400  0.75000  0.77900  1.0000
  Sb  Sb1       1.0  0.07170  0.75000  0.08720  1.0000
  Sb  Sb2       1.0  0.40700  0.75000  0.09040  1.0000
  Sb  Sb3       1.0  0.72000  0.75000  0.20500  1.0000
  Sb  Sb4       1.0  0.22000  0.75000  0.29500  1.0000
  Sb  Sb5       1.0  0.90700  0.75000  0.41000  1.0000
  Sb  Sb6       1.0  0.57200  0.75000  0.41300  1.0000
  Sb  Sb7       1.0  0.42800  0.25000  0.58700  1.0000
  Sb  Sb8       1.0  0.09280  0.25000  0.59000  1.0000
  Sb  Sb9       1.0  0.78000  0.25000  0.70500  1.0000
  Sb  Sb10      1.0  0.28000  0.25000  0.79500  1.0000
  Sb  Sb11      1.0  0.59300  0.25000  0.91000  1.0000
  Sb  Sb12      1.0  0.92800  0.25000  0.91300  1.0000
