data_image0
_chemical_formula_structural       Al8S16Tl8
_chemical_formula_sum              "Al8 S16 Tl8"
_cell_length_a       7.33521
_cell_length_b       7.33521
_cell_length_c       15.3386
_cell_angle_alpha    96.9777
_cell_angle_beta     83.0223
_cell_angle_gamma    89.9883

_space_group_name_H-M_alt    "P 1"
_space_group_IT_number       1

loop_
  _space_group_symop_operation_xyz
  'x, y, z'

loop_
  _atom_site_type_symbol
  _atom_site_label
  _atom_site_symmetry_multiplicity
  _atom_site_fract_x
  _atom_site_fract_y
  _atom_site_fract_z
  _atom_site_occupancy
  Al  Al1       1.0  0.58100  0.29100  0.16300  1.0000
  Al  Al2       1.0  0.08700  0.29100  0.16400  1.0000
  Al  Al3       1.0  0.29100  0.08700  0.33600  1.0000
  Al  Al4       1.0  0.29100  0.58100  0.33700  1.0000
  Al  Al5       1.0  0.70900  0.41900  0.66300  1.0000
  Al  Al6       1.0  0.70900  0.91300  0.66400  1.0000
  Al  Al7       1.0  0.91300  0.70900  0.83600  1.0000
  Al  Al8       1.0  0.41900  0.70900  0.83700  1.0000
  S   S1        1.0  0.35600  0.27000  0.07320  1.0000
  S   S2        1.0  0.85700  0.27100  0.07710  1.0000
  S   S3        1.0  0.56600  0.05770  0.24800  1.0000
  S   S4        1.0  0.05850  0.05850  0.25000  1.0000
  S   S5        1.0  0.56600  0.56600  0.25000  1.0000
  S   S6        1.0  0.05770  0.56600  0.25200  1.0000
  S   S7        1.0  0.27100  0.85700  0.42300  1.0000
  S   S8        1.0  0.27000  0.35600  0.42700  1.0000
  S   S9        1.0  0.73000  0.64400  0.57300  1.0000
  S   S10       1.0  0.72900  0.14300  0.57700  1.0000
  S   S11       1.0  0.94200  0.43400  0.74800  1.0000
  S   S12       1.0  0.43400  0.43400  0.75000  1.0000
  S   S13       1.0  0.94200  0.94200  0.75000  1.0000
  S   S14       1.0  0.43400  0.94200  0.75200  1.0000
  S   S15       1.0  0.14300  0.72900  0.92300  1.0000
  S   S16       1.0  0.64400  0.73000  0.92700  1.0000
  Tl  Tl1       1.0  0.84900  0.77500  0.11100  1.0000
  Tl  Tl2       1.0  0.34600  0.77700  0.11400  1.0000
  Tl  Tl3       1.0  0.77700  0.34600  0.38600  1.0000
  Tl  Tl4       1.0  0.77500  0.84900  0.38900  1.0000
  Tl  Tl5       1.0  0.22500  0.15100  0.61100  1.0000
  Tl  Tl6       1.0  0.22300  0.65400  0.61400  1.0000
  Tl  Tl7       1.0  0.65400  0.22300  0.88600  1.0000
  Tl  Tl8       1.0  0.15100  0.22500  0.88900  1.0000
