data_image0
_chemical_formula_structural       Li4Rb8S16Ta4
_chemical_formula_sum              "Li4 Rb8 S16 Ta4"
_cell_length_a       7.11137
_cell_length_b       11.4771
_cell_length_c       11.9587
_cell_angle_alpha    71.6057
_cell_angle_beta     87.7406
_cell_angle_gamma    83.6658

_space_group_name_H-M_alt    "P 1"
_space_group_IT_number       1

loop_
  _space_group_symop_operation_xyz
  'x, y, z'

loop_
  _atom_site_type_symbol
  _atom_site_label
  _atom_site_symmetry_multiplicity
  _atom_site_fract_x
  _atom_site_fract_y
  _atom_site_fract_z
  _atom_site_occupancy
  Li  Li1       1.0  0.77800  0.47700  0.07130  1.0000
  Li  Li2       1.0  0.17700  0.01140  0.41500  1.0000
  Li  Li3       1.0  0.82300  0.98900  0.58500  1.0000
  Li  Li4       1.0  0.22200  0.52300  0.92900  1.0000
  Rb  Rb1       1.0  0.24900  0.84500  0.14400  1.0000
  Rb  Rb2       1.0  0.68300  0.09750  0.25000  1.0000
  Rb  Rb3       1.0  0.26600  0.37600  0.27700  1.0000
  Rb  Rb4       1.0  0.75100  0.65000  0.34900  1.0000
  Rb  Rb5       1.0  0.24900  0.35000  0.65100  1.0000
  Rb  Rb6       1.0  0.73400  0.62400  0.72300  1.0000
  Rb  Rb7       1.0  0.31700  0.90200  0.75000  1.0000
  Rb  Rb8       1.0  0.75100  0.15500  0.85600  1.0000
  S   S1        1.0  0.46900  0.34000  0.00522  1.0000
  S   S2        1.0  0.03440  0.62600  0.06060  1.0000
  S   S3        1.0  0.73300  0.89600  0.09950  1.0000
  S   S4        1.0  0.16900  0.11700  0.20600  1.0000
  S   S5        1.0  0.76300  0.37900  0.28900  1.0000
  S   S6        1.0  0.25300  0.59900  0.40200  1.0000
  S   S7        1.0  0.94500  0.85400  0.46700  1.0000
  S   S8        1.0  0.45600  0.85600  0.46800  1.0000
  S   S9        1.0  0.54400  0.14400  0.53200  1.0000
  S   S10       1.0  0.05450  0.14600  0.53300  1.0000
  S   S11       1.0  0.74700  0.40100  0.59800  1.0000
  S   S12       1.0  0.23700  0.62100  0.71100  1.0000
  S   S13       1.0  0.83100  0.88300  0.79400  1.0000
  S   S14       1.0  0.26700  0.10400  0.90100  1.0000
  S   S15       1.0  0.96600  0.37400  0.93900  1.0000
  S   S16       1.0  0.53100  0.66000  0.99500  1.0000
  Ta  Ta1       1.0  0.21700  0.23100  0.01440  1.0000
  Ta  Ta2       1.0  0.77600  0.27300  0.48600  1.0000
  Ta  Ta3       1.0  0.22400  0.72700  0.51400  1.0000
  Ta  Ta4       1.0  0.78300  0.76900  0.98600  1.0000
