data_image0
_chemical_formula_structural       Al6C6Co2W18
_chemical_formula_sum              "Al6 C6 Co2 W18"
_cell_length_a       7.94151
_cell_length_b       7.94151
_cell_length_c       7.85151
_cell_angle_alpha    90
_cell_angle_beta     90
_cell_angle_gamma    120

_space_group_name_H-M_alt    "P 1"
_space_group_IT_number       1

loop_
  _space_group_symop_operation_xyz
  'x, y, z'

loop_
  _atom_site_type_symbol
  _atom_site_label
  _atom_site_symmetry_multiplicity
  _atom_site_fract_x
  _atom_site_fract_y
  _atom_site_fract_z
  _atom_site_occupancy
  Al  Al1       1.0  0.11000  0.22000  0.25000  1.0000
  Al  Al2       1.0  0.11000  0.89000  0.25000  1.0000
  Al  Al3       1.0  0.78000  0.89000  0.25000  1.0000
  Al  Al4       1.0  0.22000  0.11000  0.75000  1.0000
  Al  Al5       1.0  0.89000  0.11000  0.75000  1.0000
  Al  Al6       1.0  0.89000  0.78000  0.75000  1.0000
  C   C1        1.0  0.50000  0.00000  0.00000  1.0000
  C   C2        1.0  0.50000  0.50000  0.00000  1.0000
  C   C3        1.0  0.00000  0.50000  0.00000  1.0000
  C   C4        1.0  0.50000  0.00000  0.50000  1.0000
  C   C5        1.0  0.50000  0.50000  0.50000  1.0000
  C   C6        1.0  0.00000  0.50000  0.50000  1.0000
  Co  Co1       1.0  0.00000  0.00000  0.00000  1.0000
  Co  Co2       1.0  0.00000  0.00000  0.50000  1.0000
  W   W1        1.0  0.40800  0.20400  0.07060  1.0000
  W   W2        1.0  0.79600  0.20400  0.07060  1.0000
  W   W3        1.0  0.79600  0.59200  0.07060  1.0000
  W   W4        1.0  0.10300  0.55100  0.25000  1.0000
  W   W5        1.0  0.44900  0.55100  0.25000  1.0000
  W   W6        1.0  0.44900  0.89700  0.25000  1.0000
  W   W7        1.0  0.40800  0.20400  0.42900  1.0000
  W   W8        1.0  0.79600  0.20400  0.42900  1.0000
  W   W9        1.0  0.79600  0.59200  0.42900  1.0000
  W   W10       1.0  0.20400  0.40800  0.57100  1.0000
  W   W11       1.0  0.20400  0.79600  0.57100  1.0000
  W   W12       1.0  0.59200  0.79600  0.57100  1.0000
  W   W13       1.0  0.55100  0.10300  0.75000  1.0000
  W   W14       1.0  0.55100  0.44900  0.75000  1.0000
  W   W15       1.0  0.89700  0.44900  0.75000  1.0000
  W   W16       1.0  0.20400  0.40800  0.92900  1.0000
  W   W17       1.0  0.20400  0.79600  0.92900  1.0000
  W   W18       1.0  0.59200  0.79600  0.92900  1.0000
