data_image0
_chemical_formula_structural       Gd2H4I6O20
_chemical_formula_sum              "Gd2 H4 I6 O20"
_cell_length_a       7.1519
_cell_length_b       6.42391
_cell_length_c       9.78879
_cell_angle_alpha    90
_cell_angle_beta     109.983
_cell_angle_gamma    90

_space_group_name_H-M_alt    "P 1"
_space_group_IT_number       1

loop_
  _space_group_symop_operation_xyz
  'x, y, z'

loop_
  _atom_site_type_symbol
  _atom_site_label
  _atom_site_symmetry_multiplicity
  _atom_site_fract_x
  _atom_site_fract_y
  _atom_site_fract_z
  _atom_site_occupancy
  Gd  Gd1       1.0  0.74000  0.84900  0.31100  1.0000
  Gd  Gd2       1.0  0.26000  0.34900  0.68900  1.0000
  H   H1        1.0  0.89100  0.62400  0.02270  1.0000
  H   H2        1.0  0.28500  0.01140  0.09970  1.0000
  H   H3        1.0  0.71500  0.51100  0.90000  1.0000
  H   H4        1.0  0.10900  0.12400  0.97700  1.0000
  I   I1        1.0  0.36700  0.49700  0.09200  1.0000
  I   I2        1.0  0.98000  0.31800  0.27000  1.0000
  I   I3        1.0  0.34100  0.85600  0.47000  1.0000
  I   I4        1.0  0.65900  0.35600  0.53000  1.0000
  I   I5        1.0  0.01960  0.81800  0.73000  1.0000
  I   I6        1.0  0.63300  0.99700  0.90800  1.0000
  O   O1        1.0  0.20500  0.14100  0.07680  1.0000
  O   O2        1.0  0.45800  0.76900  0.10100  1.0000
  O   O3        1.0  0.77300  0.01020  0.10300  1.0000
  O   O4        1.0  0.16300  0.55500  0.15800  1.0000
  O   O5        1.0  0.83300  0.55600  0.21500  1.0000
  O   O6        1.0  0.45600  0.98900  0.35100  1.0000
  O   O7        1.0  0.80000  0.20800  0.35300  1.0000
  O   O8        1.0  0.08640  0.93800  0.36800  1.0000
  O   O9        1.0  0.58200  0.56000  0.38800  1.0000
  O   O10       1.0  0.17300  0.40100  0.43700  1.0000
  O   O11       1.0  0.82700  0.90100  0.56300  1.0000
  O   O12       1.0  0.41800  0.06020  0.61200  1.0000
  O   O13       1.0  0.91400  0.43800  0.63200  1.0000
  O   O14       1.0  0.20000  0.70800  0.64700  1.0000
  O   O15       1.0  0.54400  0.48900  0.64900  1.0000
  O   O16       1.0  0.16700  0.05610  0.78500  1.0000
  O   O17       1.0  0.83700  0.05530  0.84200  1.0000
  O   O18       1.0  0.22700  0.51000  0.89700  1.0000
  O   O19       1.0  0.54200  0.26900  0.89900  1.0000
  O   O20       1.0  0.79500  0.64100  0.92300  1.0000
