data_image0
_chemical_formula_structural       B2La12N6O12
_chemical_formula_sum              "B2 La12 N6 O12"
_cell_length_a       3.65229
_cell_length_b       10.9237
_cell_length_c       12.578
_cell_angle_alpha    90
_cell_angle_beta     81.6519
_cell_angle_gamma    90

_space_group_name_H-M_alt    "P 1"
_space_group_IT_number       1

loop_
  _space_group_symop_operation_xyz
  'x, y, z'

loop_
  _atom_site_type_symbol
  _atom_site_label
  _atom_site_symmetry_multiplicity
  _atom_site_fract_x
  _atom_site_fract_y
  _atom_site_fract_z
  _atom_site_occupancy
  B   B1        1.0  0.86000  0.25000  0.28100  1.0000
  B   B2        1.0  0.14000  0.75000  0.71900  1.0000
  La  La1       1.0  0.45200  0.25000  0.09560  1.0000
  La  La2       1.0  0.93200  0.56600  0.13600  1.0000
  La  La3       1.0  0.93200  0.93400  0.13600  1.0000
  La  La4       1.0  0.31300  0.06910  0.37400  1.0000
  La  La5       1.0  0.31300  0.43100  0.37400  1.0000
  La  La6       1.0  0.30100  0.75000  0.39800  1.0000
  La  La7       1.0  0.69900  0.25000  0.60200  1.0000
  La  La8       1.0  0.68700  0.56900  0.62600  1.0000
  La  La9       1.0  0.68700  0.93100  0.62600  1.0000
  La  La10      1.0  0.06780  0.06600  0.86400  1.0000
  La  La11      1.0  0.06780  0.43400  0.86400  1.0000
  La  La12      1.0  0.54800  0.75000  0.90400  1.0000
  N   N1        1.0  0.88900  0.13300  0.22100  1.0000
  N   N2        1.0  0.88900  0.36700  0.22100  1.0000
  N   N3        1.0  0.80000  0.25000  0.39900  1.0000
  N   N4        1.0  0.20000  0.75000  0.60100  1.0000
  N   N5        1.0  0.11100  0.63300  0.77900  1.0000
  N   N6        1.0  0.11100  0.86700  0.77900  1.0000
  O   O1        1.0  0.50000  0.00000  0.00000  1.0000
  O   O2        1.0  0.50000  0.50000  0.00000  1.0000
  O   O3        1.0  0.98700  0.75000  0.02580  1.0000
  O   O4        1.0  0.37600  0.60700  0.24700  1.0000
  O   O5        1.0  0.37600  0.89300  0.24700  1.0000
  O   O6        1.0  0.78300  0.59100  0.43400  1.0000
  O   O7        1.0  0.78300  0.90900  0.43400  1.0000
  O   O8        1.0  0.21700  0.09130  0.56600  1.0000
  O   O9        1.0  0.21700  0.40900  0.56600  1.0000
  O   O10       1.0  0.62400  0.10700  0.75300  1.0000
  O   O11       1.0  0.62400  0.39300  0.75300  1.0000
  O   O12       1.0  0.01290  0.25000  0.97400  1.0000
