data_image0
_chemical_formula_structural       Cl10O12Si4Sm6
_chemical_formula_sum              "Cl10 O12 Si4 Sm6"
_cell_length_a       7.50037
_cell_length_b       7.50037
_cell_length_c       11.8523
_cell_angle_alpha    99.3949
_cell_angle_beta     80.6051
_cell_angle_gamma    91.0147

_space_group_name_H-M_alt    "P 1"
_space_group_IT_number       1

loop_
  _space_group_symop_operation_xyz
  'x, y, z'

loop_
  _atom_site_type_symbol
  _atom_site_label
  _atom_site_symmetry_multiplicity
  _atom_site_fract_x
  _atom_site_fract_y
  _atom_site_fract_z
  _atom_site_occupancy
  Cl  Cl1       1.0  0.68000  0.32000  0.00353  1.0000
  Cl  Cl2       1.0  0.23300  0.76700  0.33300  1.0000
  Cl  Cl3       1.0  0.61500  0.38500  0.36100  1.0000
  Cl  Cl4       1.0  0.10600  0.31800  0.42100  1.0000
  Cl  Cl5       1.0  0.68200  0.89400  0.42100  1.0000
  Cl  Cl6       1.0  0.31800  0.10600  0.57900  1.0000
  Cl  Cl7       1.0  0.89400  0.68200  0.57900  1.0000
  Cl  Cl8       1.0  0.38500  0.61500  0.63900  1.0000
  Cl  Cl9       1.0  0.76700  0.23300  0.66700  1.0000
  Cl  Cl10      1.0  0.32000  0.68000  0.99600  1.0000
  O   O1        1.0  0.14500  0.14500  0.00000  1.0000
  O   O2        1.0  0.85500  0.85500  0.00000  1.0000
  O   O3        1.0  0.04300  0.39100  0.17300  1.0000
  O   O4        1.0  0.60900  0.95700  0.17300  1.0000
  O   O5        1.0  0.30400  0.13200  0.17300  1.0000
  O   O6        1.0  0.86800  0.69600  0.17300  1.0000
  O   O7        1.0  0.95300  0.04740  0.19100  1.0000
  O   O8        1.0  0.04740  0.95300  0.80900  1.0000
  O   O9        1.0  0.13200  0.30400  0.82700  1.0000
  O   O10       1.0  0.69600  0.86800  0.82700  1.0000
  O   O11       1.0  0.39100  0.04300  0.82700  1.0000
  O   O12       1.0  0.95700  0.60900  0.82700  1.0000
  Si  Si1       1.0  0.10900  0.18200  0.14400  1.0000
  Si  Si2       1.0  0.81800  0.89100  0.14400  1.0000
  Si  Si3       1.0  0.18200  0.10900  0.85600  1.0000
  Si  Si4       1.0  0.89100  0.81800  0.85600  1.0000
  Sm  Sm1       1.0  0.50000  0.00000  0.00000  1.0000
  Sm  Sm2       1.0  0.00000  0.50000  0.00000  1.0000
  Sm  Sm3       1.0  0.41400  0.08280  0.33300  1.0000
  Sm  Sm4       1.0  0.91700  0.58600  0.33300  1.0000
  Sm  Sm5       1.0  0.08280  0.41400  0.66700  1.0000
  Sm  Sm6       1.0  0.58600  0.91700  0.66700  1.0000
