data_image0
_chemical_formula_structural       Cd8Eu8K4Sb12
_chemical_formula_sum              "Cd8 Eu8 K4 Sb12"
_cell_length_a       12.5832
_cell_length_b       4.83723
_cell_length_c       16.2143
_cell_angle_alpha    90
_cell_angle_beta     90
_cell_angle_gamma    90

_space_group_name_H-M_alt    "P 1"
_space_group_IT_number       1

loop_
  _space_group_symop_operation_xyz
  'x, y, z'

loop_
  _atom_site_type_symbol
  _atom_site_label
  _atom_site_symmetry_multiplicity
  _atom_site_fract_x
  _atom_site_fract_y
  _atom_site_fract_z
  _atom_site_occupancy
  Cd  Cd1       1.0  0.30400  0.25000  0.07530  1.0000
  Cd  Cd2       1.0  0.63100  0.75000  0.21800  1.0000
  Cd  Cd3       1.0  0.13100  0.75000  0.28200  1.0000
  Cd  Cd4       1.0  0.80400  0.25000  0.42500  1.0000
  Cd  Cd5       1.0  0.19600  0.75000  0.57500  1.0000
  Cd  Cd6       1.0  0.86900  0.25000  0.71800  1.0000
  Cd  Cd7       1.0  0.36900  0.25000  0.78200  1.0000
  Cd  Cd8       1.0  0.69600  0.75000  0.92500  1.0000
  Eu  Eu1       1.0  0.60200  0.25000  0.07670  1.0000
  Eu  Eu2       1.0  0.86200  0.25000  0.22100  1.0000
  Eu  Eu3       1.0  0.36200  0.25000  0.27900  1.0000
  Eu  Eu4       1.0  0.10200  0.25000  0.42300  1.0000
  Eu  Eu5       1.0  0.89800  0.75000  0.57700  1.0000
  Eu  Eu6       1.0  0.63800  0.75000  0.72100  1.0000
  Eu  Eu7       1.0  0.13800  0.75000  0.77900  1.0000
  Eu  Eu8       1.0  0.39800  0.75000  0.92300  1.0000
  K   K1        1.0  0.09170  0.75000  0.04520  1.0000
  K   K2        1.0  0.59200  0.75000  0.45500  1.0000
  K   K3        1.0  0.40800  0.25000  0.54500  1.0000
  K   K4        1.0  0.90800  0.25000  0.95500  1.0000
  Sb  Sb1       1.0  0.79200  0.75000  0.08710  1.0000
  Sb  Sb2       1.0  0.42200  0.75000  0.12700  1.0000
  Sb  Sb3       1.0  0.12100  0.25000  0.19100  1.0000
  Sb  Sb4       1.0  0.62100  0.25000  0.30900  1.0000
  Sb  Sb5       1.0  0.92200  0.75000  0.37300  1.0000
  Sb  Sb6       1.0  0.29200  0.75000  0.41300  1.0000
  Sb  Sb7       1.0  0.70800  0.25000  0.58700  1.0000
  Sb  Sb8       1.0  0.07810  0.25000  0.62700  1.0000
  Sb  Sb9       1.0  0.37900  0.75000  0.69100  1.0000
  Sb  Sb10      1.0  0.87900  0.75000  0.80900  1.0000
  Sb  Sb11      1.0  0.57800  0.25000  0.87300  1.0000
  Sb  Sb12      1.0  0.20800  0.25000  0.91300  1.0000
