data_image0
_chemical_formula_structural       Bi4F20K8
_chemical_formula_sum              "Bi4 F20 K8"
_cell_length_a       10.8953
_cell_length_b       7.37828
_cell_length_c       6.4176
_cell_angle_alpha    90
_cell_angle_beta     90
_cell_angle_gamma    90

_space_group_name_H-M_alt    "P 1"
_space_group_IT_number       1

loop_
  _space_group_symop_operation_xyz
  'x, y, z'

loop_
  _atom_site_type_symbol
  _atom_site_label
  _atom_site_symmetry_multiplicity
  _atom_site_fract_x
  _atom_site_fract_y
  _atom_site_fract_z
  _atom_site_occupancy
  Bi  Bi1       1.0  0.04120  0.25000  0.06820  1.0000
  Bi  Bi2       1.0  0.54100  0.25000  0.43200  1.0000
  Bi  Bi3       1.0  0.45900  0.75000  0.56800  1.0000
  Bi  Bi4       1.0  0.95900  0.75000  0.93200  1.0000
  F   F1        1.0  0.49200  0.25000  0.08410  1.0000
  F   F2        1.0  0.09570  0.55100  0.12000  1.0000
  F   F3        1.0  0.09570  0.94900  0.12000  1.0000
  F   F4        1.0  0.82500  0.75000  0.19100  1.0000
  F   F5        1.0  0.22600  0.25000  0.23500  1.0000
  F   F6        1.0  0.72600  0.25000  0.26500  1.0000
  F   F7        1.0  0.32500  0.75000  0.30900  1.0000
  F   F8        1.0  0.59600  0.55100  0.38000  1.0000
  F   F9        1.0  0.59600  0.94900  0.38000  1.0000
  F   F10       1.0  0.99200  0.25000  0.41600  1.0000
  F   F11       1.0  0.00790  0.75000  0.58400  1.0000
  F   F12       1.0  0.40400  0.05100  0.62000  1.0000
  F   F13       1.0  0.40400  0.44900  0.62000  1.0000
  F   F14       1.0  0.67500  0.25000  0.69100  1.0000
  F   F15       1.0  0.27400  0.75000  0.73500  1.0000
  F   F16       1.0  0.77400  0.75000  0.76500  1.0000
  F   F17       1.0  0.17500  0.25000  0.80900  1.0000
  F   F18       1.0  0.90400  0.05100  0.88000  1.0000
  F   F19       1.0  0.90400  0.44900  0.88000  1.0000
  F   F20       1.0  0.50800  0.75000  0.91600  1.0000
  K   K1        1.0  0.33200  0.50200  0.01100  1.0000
  K   K2        1.0  0.33200  0.99800  0.01100  1.0000
  K   K3        1.0  0.83200  0.50200  0.48900  1.0000
  K   K4        1.0  0.83200  0.99800  0.48900  1.0000
  K   K5        1.0  0.16800  0.00230  0.51100  1.0000
  K   K6        1.0  0.16800  0.49800  0.51100  1.0000
  K   K7        1.0  0.66800  0.00230  0.98900  1.0000
  K   K8        1.0  0.66800  0.49800  0.98900  1.0000
