data_image0
_chemical_formula_structural       B8O20Zr4
_chemical_formula_sum              "B8 O20 Zr4"
_cell_length_a       4.39957
_cell_length_b       6.94494
_cell_length_c       8.98186
_cell_angle_alpha    90
_cell_angle_beta     91.0375
_cell_angle_gamma    90

_space_group_name_H-M_alt    "P 1"
_space_group_IT_number       1

loop_
  _space_group_symop_operation_xyz
  'x, y, z'

loop_
  _atom_site_type_symbol
  _atom_site_label
  _atom_site_symmetry_multiplicity
  _atom_site_fract_x
  _atom_site_fract_y
  _atom_site_fract_z
  _atom_site_occupancy
  B   B1        1.0  0.47400  0.73000  0.07740  1.0000
  B   B2        1.0  0.46400  0.08660  0.16500  1.0000
  B   B3        1.0  0.53600  0.58700  0.33500  1.0000
  B   B4        1.0  0.52600  0.23000  0.42300  1.0000
  B   B5        1.0  0.47400  0.77000  0.57700  1.0000
  B   B6        1.0  0.46400  0.41300  0.66500  1.0000
  B   B7        1.0  0.53600  0.91300  0.83500  1.0000
  B   B8        1.0  0.52600  0.27000  0.92300  1.0000
  O   O1        1.0  0.23400  0.59600  0.03290  1.0000
  O   O2        1.0  0.34600  0.22000  0.05220  1.0000
  O   O3        1.0  0.32900  0.89500  0.14900  1.0000
  O   O4        1.0  0.78600  0.08970  0.17700  1.0000
  O   O5        1.0  0.69400  0.65500  0.19400  1.0000
  O   O6        1.0  0.30600  0.15500  0.30600  1.0000
  O   O7        1.0  0.21400  0.59000  0.32300  1.0000
  O   O8        1.0  0.67100  0.39500  0.35100  1.0000
  O   O9        1.0  0.65400  0.72000  0.44800  1.0000
  O   O10       1.0  0.76600  0.09650  0.46700  1.0000
  O   O11       1.0  0.23400  0.90400  0.53300  1.0000
  O   O12       1.0  0.34600  0.28000  0.55200  1.0000
  O   O13       1.0  0.32900  0.60500  0.64900  1.0000
  O   O14       1.0  0.78600  0.41000  0.67700  1.0000
  O   O15       1.0  0.69400  0.84500  0.69400  1.0000
  O   O16       1.0  0.30600  0.34500  0.80600  1.0000
  O   O17       1.0  0.21400  0.91000  0.82300  1.0000
  O   O18       1.0  0.67100  0.10500  0.85100  1.0000
  O   O19       1.0  0.65400  0.78000  0.94800  1.0000
  O   O20       1.0  0.76600  0.40400  0.96700  1.0000
  Zr  Zr1       1.0  0.00244  0.38600  0.17200  1.0000
  Zr  Zr2       1.0  0.99800  0.88600  0.32800  1.0000
  Zr  Zr3       1.0  0.00244  0.11400  0.67200  1.0000
  Zr  Zr4       1.0  0.99800  0.61400  0.82800  1.0000
