data_image0
_chemical_formula_structural       C12Cl8La12
_chemical_formula_sum              "C12 Cl8 La12"
_cell_length_a       7.80629
_cell_length_b       12.9589
_cell_length_c       6.945
_cell_angle_alpha    90
_cell_angle_beta     104.433
_cell_angle_gamma    90

_space_group_name_H-M_alt    "P 1"
_space_group_IT_number       1

loop_
  _space_group_symop_operation_xyz
  'x, y, z'

loop_
  _atom_site_type_symbol
  _atom_site_label
  _atom_site_symmetry_multiplicity
  _atom_site_fract_x
  _atom_site_fract_y
  _atom_site_fract_z
  _atom_site_occupancy
  C   C1        1.0  0.88700  0.29600  0.02290  1.0000
  C   C2        1.0  0.00538  0.63200  0.02670  1.0000
  C   C3        1.0  0.94200  0.03030  0.02960  1.0000
  C   C4        1.0  0.05810  0.53000  0.47000  1.0000
  C   C5        1.0  0.99500  0.13200  0.47300  1.0000
  C   C6        1.0  0.11300  0.79600  0.47700  1.0000
  C   C7        1.0  0.88700  0.20400  0.52300  1.0000
  C   C8        1.0  0.00538  0.86800  0.52700  1.0000
  C   C9        1.0  0.94200  0.47000  0.53000  1.0000
  C   C10       1.0  0.05810  0.97000  0.97000  1.0000
  C   C11       1.0  0.99500  0.36800  0.97300  1.0000
  C   C12       1.0  0.11300  0.70400  0.97700  1.0000
  Cl  Cl1       1.0  0.61500  0.68600  0.23200  1.0000
  Cl  Cl2       1.0  0.55000  0.94300  0.23800  1.0000
  Cl  Cl3       1.0  0.45000  0.44300  0.26200  1.0000
  Cl  Cl4       1.0  0.38500  0.18600  0.26800  1.0000
  Cl  Cl5       1.0  0.61500  0.81400  0.73200  1.0000
  Cl  Cl6       1.0  0.55000  0.55700  0.73800  1.0000
  Cl  Cl7       1.0  0.45000  0.05710  0.76200  1.0000
  Cl  Cl8       1.0  0.38500  0.31400  0.76800  1.0000
  La  La1       1.0  0.80900  0.50800  0.12400  1.0000
  La  La2       1.0  0.88200  0.82200  0.13100  1.0000
  La  La3       1.0  0.73600  0.15000  0.13700  1.0000
  La  La4       1.0  0.26400  0.65000  0.36300  1.0000
  La  La5       1.0  0.11800  0.32200  0.36900  1.0000
  La  La6       1.0  0.19100  0.00785  0.37600  1.0000
  La  La7       1.0  0.80900  0.99200  0.62400  1.0000
  La  La8       1.0  0.88200  0.67800  0.63100  1.0000
  La  La9       1.0  0.73600  0.35000  0.63700  1.0000
  La  La10      1.0  0.26400  0.85000  0.86300  1.0000
  La  La11      1.0  0.11800  0.17800  0.86900  1.0000
  La  La12      1.0  0.19100  0.49200  0.87600  1.0000
