data_image0
_chemical_formula_structural       K2N6O22U2
_chemical_formula_sum              "K2 N6 O22 U2"
_cell_length_a       7.6535
_cell_length_b       7.94694
_cell_length_c       7.94694
_cell_angle_alpha    108.659
_cell_angle_beta     110.319
_cell_angle_gamma    69.681

_space_group_name_H-M_alt    "P 1"
_space_group_IT_number       1

loop_
  _space_group_symop_operation_xyz
  'x, y, z'

loop_
  _atom_site_type_symbol
  _atom_site_label
  _atom_site_symmetry_multiplicity
  _atom_site_fract_x
  _atom_site_fract_y
  _atom_site_fract_z
  _atom_site_occupancy
  K   K1        1.0  0.50000  0.50000  0.00000  1.0000
  K   K2        1.0  0.00000  0.00000  0.50000  1.0000
  N   N1        1.0  0.07870  0.75500  0.08920  1.0000
  N   N2        1.0  0.57900  0.91100  0.24500  1.0000
  N   N3        1.0  0.75000  0.44600  0.44600  1.0000
  N   N4        1.0  0.25000  0.55400  0.55400  1.0000
  N   N5        1.0  0.42100  0.08920  0.75500  1.0000
  N   N6        1.0  0.92100  0.24500  0.91100  1.0000
  O   O1        1.0  0.91600  0.36900  0.06220  1.0000
  O   O2        1.0  0.92200  0.88800  0.08360  1.0000
  O   O3        1.0  0.42200  0.91600  0.11200  1.0000
  O   O4        1.0  0.34800  0.34000  0.13800  1.0000
  O   O5        1.0  0.21400  0.74700  0.22800  1.0000
  O   O6        1.0  0.71400  0.77200  0.25300  1.0000
  O   O7        1.0  0.75000  0.31400  0.31400  1.0000
  O   O8        1.0  0.15200  0.13800  0.34000  1.0000
  O   O9        1.0  0.58400  0.06220  0.36900  1.0000
  O   O10       1.0  0.10900  0.55400  0.40600  1.0000
  O   O11       1.0  0.60900  0.59400  0.44600  1.0000
  O   O12       1.0  0.39100  0.40600  0.55400  1.0000
  O   O13       1.0  0.89100  0.44600  0.59400  1.0000
  O   O14       1.0  0.41600  0.93800  0.63100  1.0000
  O   O15       1.0  0.84800  0.86200  0.66000  1.0000
  O   O16       1.0  0.25000  0.68600  0.68600  1.0000
  O   O17       1.0  0.28600  0.22800  0.74700  1.0000
  O   O18       1.0  0.78600  0.25300  0.77200  1.0000
  O   O19       1.0  0.65200  0.66000  0.86200  1.0000
  O   O20       1.0  0.57800  0.08360  0.88800  1.0000
  O   O21       1.0  0.07840  0.11200  0.91600  1.0000
  O   O22       1.0  0.08370  0.63100  0.93800  1.0000
  U   U1        1.0  0.25000  0.23900  0.23900  1.0000
  U   U2        1.0  0.75000  0.76100  0.76100  1.0000
