data_image0
_chemical_formula_structural       B6Se20Tl6
_chemical_formula_sum              "B6 Se20 Tl6"
_cell_length_a       7.31324
_cell_length_b       8.30108
_cell_length_c       14.8335
_cell_angle_alpha    104.273
_cell_angle_beta     94.6589
_cell_angle_gamma    93.8969

_space_group_name_H-M_alt    "P 1"
_space_group_IT_number       1

loop_
  _space_group_symop_operation_xyz
  'x, y, z'

loop_
  _atom_site_type_symbol
  _atom_site_label
  _atom_site_symmetry_multiplicity
  _atom_site_fract_x
  _atom_site_fract_y
  _atom_site_fract_z
  _atom_site_occupancy
  B   B1        1.0  0.36000  0.91700  0.08920  1.0000
  B   B2        1.0  0.26100  0.71800  0.24000  1.0000
  B   B3        1.0  0.10900  0.62200  0.41600  1.0000
  B   B4        1.0  0.89100  0.37800  0.58400  1.0000
  B   B5        1.0  0.73900  0.28200  0.76000  1.0000
  B   B6        1.0  0.64000  0.08330  0.91100  1.0000
  Se  Se1       1.0  0.52800  0.75800  0.01410  1.0000
  Se  Se2       1.0  0.22200  0.05960  0.01450  1.0000
  Se  Se3       1.0  0.16200  0.74200  0.11000  1.0000
  Se  Se4       1.0  0.47400  0.07080  0.21400  1.0000
  Se  Se5       1.0  0.30200  0.47000  0.22500  1.0000
  Se  Se6       1.0  0.51700  0.84800  0.28700  1.0000
  Se  Se7       1.0  0.07010  0.79300  0.33600  1.0000
  Se  Se8       1.0  0.86400  0.48000  0.37000  1.0000
  Se  Se9       1.0  0.34600  0.50500  0.39100  1.0000
  Se  Se10      1.0  0.85800  0.25000  0.44600  1.0000
  Se  Se11      1.0  0.14200  0.75000  0.55400  1.0000
  Se  Se12      1.0  0.65400  0.49500  0.60900  1.0000
  Se  Se13      1.0  0.13600  0.52000  0.63000  1.0000
  Se  Se14      1.0  0.93000  0.20700  0.66400  1.0000
  Se  Se15      1.0  0.48300  0.15200  0.71300  1.0000
  Se  Se16      1.0  0.69800  0.53000  0.77500  1.0000
  Se  Se17      1.0  0.52600  0.92900  0.78600  1.0000
  Se  Se18      1.0  0.83800  0.25800  0.89000  1.0000
  Se  Se19      1.0  0.77800  0.94000  0.98500  1.0000
  Se  Se20      1.0  0.47200  0.24200  0.98600  1.0000
  Tl  Tl1       1.0  0.72700  0.56200  0.15700  1.0000
  Tl  Tl2       1.0  0.99100  0.12900  0.20400  1.0000
  Tl  Tl3       1.0  0.31000  0.18500  0.48100  1.0000
  Tl  Tl4       1.0  0.69000  0.81500  0.51900  1.0000
  Tl  Tl5       1.0  0.00868  0.87100  0.79600  1.0000
  Tl  Tl6       1.0  0.27300  0.43800  0.84300  1.0000
