data_image0
_chemical_formula_structural       Cl4Co8O16P4
_chemical_formula_sum              "Cl4 Co8 O16 P4"
_cell_length_a       8.14807
_cell_length_b       8.14807
_cell_length_c       8.12366
_cell_angle_alpha    105.617
_cell_angle_beta     110.944
_cell_angle_gamma    112.038

_space_group_name_H-M_alt    "P 1"
_space_group_IT_number       1

loop_
  _space_group_symop_operation_xyz
  'x, y, z'

loop_
  _atom_site_type_symbol
  _atom_site_label
  _atom_site_symmetry_multiplicity
  _atom_site_fract_x
  _atom_site_fract_y
  _atom_site_fract_z
  _atom_site_occupancy
  Cl  Cl1       1.0  0.26900  0.34100  0.07800  1.0000
  Cl  Cl2       1.0  0.76300  0.19100  0.42200  1.0000
  Cl  Cl3       1.0  0.23700  0.80900  0.57800  1.0000
  Cl  Cl4       1.0  0.73100  0.65900  0.92200  1.0000
  Co  Co1       1.0  0.00000  0.00000  0.00000  1.0000
  Co  Co2       1.0  0.73600  0.92400  0.17400  1.0000
  Co  Co3       1.0  0.97700  0.72700  0.25000  1.0000
  Co  Co4       1.0  0.25000  0.56200  0.32600  1.0000
  Co  Co5       1.0  0.50000  0.00000  0.50000  1.0000
  Co  Co6       1.0  0.75000  0.43800  0.67400  1.0000
  Co  Co7       1.0  0.02280  0.27300  0.75000  1.0000
  Co  Co8       1.0  0.26400  0.07580  0.82600  1.0000
  O   O1        1.0  0.79800  0.07760  0.02250  1.0000
  O   O2        1.0  0.43800  0.78000  0.02650  1.0000
  O   O3        1.0  0.94200  0.45000  0.15900  1.0000
  O   O4        1.0  0.24300  0.78000  0.21400  1.0000
  O   O5        1.0  0.06530  0.02850  0.28600  1.0000
  O   O6        1.0  0.79100  0.78300  0.34100  1.0000
  O   O7        1.0  0.25300  0.41100  0.47300  1.0000
  O   O8        1.0  0.55500  0.77500  0.47700  1.0000
  O   O9        1.0  0.44500  0.22500  0.52300  1.0000
  O   O10       1.0  0.74700  0.58900  0.52700  1.0000
  O   O11       1.0  0.20900  0.21700  0.65900  1.0000
  O   O12       1.0  0.93500  0.97200  0.71400  1.0000
  O   O13       1.0  0.75700  0.22000  0.78600  1.0000
  O   O14       1.0  0.05770  0.55000  0.84100  1.0000
  O   O15       1.0  0.56200  0.22000  0.97300  1.0000
  O   O16       1.0  0.20200  0.92200  0.97700  1.0000
  P   P1        1.0  0.24200  0.76000  0.01420  1.0000
  P   P2        1.0  0.24500  0.22800  0.48600  1.0000
  P   P3        1.0  0.75500  0.77200  0.51400  1.0000
  P   P4        1.0  0.75800  0.24000  0.98600  1.0000
