data_image0
_chemical_formula_structural       F6La4Li2O16S4
_chemical_formula_sum              "F6 La4 Li2 O16 S4"
_cell_length_a       6.88011
_cell_length_b       8.16617
_cell_length_c       8.45187
_cell_angle_alpha    114.254
_cell_angle_beta     114.018
_cell_angle_gamma    90

_space_group_name_H-M_alt    "P 1"
_space_group_IT_number       1

loop_
  _space_group_symop_operation_xyz
  'x, y, z'

loop_
  _atom_site_type_symbol
  _atom_site_label
  _atom_site_symmetry_multiplicity
  _atom_site_fract_x
  _atom_site_fract_y
  _atom_site_fract_z
  _atom_site_occupancy
  F   F1        1.0  0.31100  0.25000  0.00000  1.0000
  F   F2        1.0  0.68900  0.75000  0.00000  1.0000
  F   F3        1.0  0.09070  0.66600  0.09530  1.0000
  F   F4        1.0  0.00456  0.16600  0.09530  1.0000
  F   F5        1.0  0.99500  0.83400  0.90500  1.0000
  F   F6        1.0  0.90900  0.33400  0.90500  1.0000
  La  La1       1.0  0.21400  0.46800  0.24100  1.0000
  La  La2       1.0  0.02800  0.96800  0.24100  1.0000
  La  La3       1.0  0.78600  0.53200  0.75900  1.0000
  La  La4       1.0  0.97200  0.03190  0.75900  1.0000
  Li  Li1       1.0  0.60400  0.25000  0.00000  1.0000
  Li  Li2       1.0  0.39600  0.75000  0.00000  1.0000
  O   O1        1.0  0.51500  0.62600  0.22700  1.0000
  O   O2        1.0  0.71200  0.12600  0.22700  1.0000
  O   O3        1.0  0.83400  0.50300  0.22800  1.0000
  O   O4        1.0  0.39400  0.00290  0.22800  1.0000
  O   O5        1.0  0.85400  0.83700  0.38300  1.0000
  O   O6        1.0  0.52900  0.33700  0.38300  1.0000
  O   O7        1.0  0.27900  0.83500  0.46600  1.0000
  O   O8        1.0  0.18600  0.33500  0.46600  1.0000
  O   O9        1.0  0.81400  0.66500  0.53400  1.0000
  O   O10       1.0  0.72100  0.16500  0.53400  1.0000
  O   O11       1.0  0.47100  0.66300  0.61700  1.0000
  O   O12       1.0  0.14600  0.16300  0.61700  1.0000
  O   O13       1.0  0.60600  0.99700  0.77200  1.0000
  O   O14       1.0  0.16600  0.49700  0.77200  1.0000
  O   O15       1.0  0.28800  0.87400  0.77300  1.0000
  O   O16       1.0  0.48500  0.37400  0.77300  1.0000
  S   S1        1.0  0.58800  0.15300  0.34000  1.0000
  S   S2        1.0  0.75200  0.65300  0.34000  1.0000
  S   S3        1.0  0.41200  0.84700  0.66000  1.0000
  S   S4        1.0  0.24800  0.34700  0.66000  1.0000
