data_image0
_chemical_formula_structural       C4Cl18La10
_chemical_formula_sum              "C4 Cl18 La10"
_cell_length_a       8.71454
_cell_length_b       8.75919
_cell_length_c       12.1091
_cell_angle_alpha    84.6723
_cell_angle_beta     85.4994
_cell_angle_gamma    61.3773

_space_group_name_H-M_alt    "P 1"
_space_group_IT_number       1

loop_
  _space_group_symop_operation_xyz
  'x, y, z'

loop_
  _atom_site_type_symbol
  _atom_site_label
  _atom_site_symmetry_multiplicity
  _atom_site_fract_x
  _atom_site_fract_y
  _atom_site_fract_z
  _atom_site_occupancy
  C   C1        1.0  0.85600  0.30500  0.18900  1.0000
  C   C2        1.0  0.82800  0.31400  0.31000  1.0000
  C   C3        1.0  0.17200  0.68600  0.69000  1.0000
  C   C4        1.0  0.14400  0.69500  0.81100  1.0000
  Cl  Cl1       1.0  0.50000  0.50000  0.00000  1.0000
  Cl  Cl2       1.0  0.78200  0.04030  0.02290  1.0000
  Cl  Cl3       1.0  0.21300  0.33100  0.03240  1.0000
  Cl  Cl4       1.0  0.91900  0.66100  0.23000  1.0000
  Cl  Cl5       1.0  0.48700  0.98700  0.23100  1.0000
  Cl  Cl6       1.0  0.15700  0.87400  0.25800  1.0000
  Cl  Cl7       1.0  0.39400  0.41600  0.27600  1.0000
  Cl  Cl8       1.0  0.54200  0.67400  0.44800  1.0000
  Cl  Cl9       1.0  0.82700  0.94900  0.49400  1.0000
  Cl  Cl10      1.0  1.00000  0.50000  0.50000  1.0000
  Cl  Cl11      1.0  0.17300  0.05140  0.50600  1.0000
  Cl  Cl12      1.0  0.45800  0.32600  0.55200  1.0000
  Cl  Cl13      1.0  0.60600  0.58400  0.72400  1.0000
  Cl  Cl14      1.0  0.84300  0.12600  0.74200  1.0000
  Cl  Cl15      1.0  0.51300  0.01280  0.76900  1.0000
  Cl  Cl16      1.0  0.08070  0.33900  0.77000  1.0000
  Cl  Cl17      1.0  0.78700  0.66900  0.96800  1.0000
  Cl  Cl18      1.0  0.21800  0.96000  0.97700  1.0000
  La  La1       1.0  0.10400  0.70200  0.00566  1.0000
  La  La2       1.0  0.61100  0.59800  0.21900  1.0000
  La  La3       1.0  0.76700  0.08070  0.25800  1.0000
  La  La4       1.0  0.12700  0.26900  0.27000  1.0000
  La  La5       1.0  0.20500  0.68200  0.49400  1.0000
  La  La6       1.0  0.79500  0.31800  0.50600  1.0000
  La  La7       1.0  0.87300  0.73100  0.73000  1.0000
  La  La8       1.0  0.23300  0.91900  0.74200  1.0000
  La  La9       1.0  0.38900  0.40200  0.78100  1.0000
  La  La10      1.0  0.89600  0.29800  0.99400  1.0000
