data_image0
_chemical_formula_structural       K4O20P4V4
_chemical_formula_sum              "K4 O20 P4 V4"
_cell_length_a       7.54604
_cell_length_b       7.24933
_cell_length_c       8.36356
_cell_angle_alpha    90
_cell_angle_beta     90
_cell_angle_gamma    90

_space_group_name_H-M_alt    "P 1"
_space_group_IT_number       1

loop_
  _space_group_symop_operation_xyz
  'x, y, z'

loop_
  _atom_site_type_symbol
  _atom_site_label
  _atom_site_symmetry_multiplicity
  _atom_site_fract_x
  _atom_site_fract_y
  _atom_site_fract_z
  _atom_site_occupancy
  K   K1        1.0  0.71700  0.13200  0.00937  1.0000
  K   K2        1.0  0.28300  0.63200  0.49100  1.0000
  K   K3        1.0  0.78300  0.86800  0.50900  1.0000
  K   K4        1.0  0.21700  0.36800  0.99100  1.0000
  O   O1        1.0  0.07050  0.03160  0.03190  1.0000
  O   O2        1.0  0.15600  0.71600  0.06730  1.0000
  O   O3        1.0  0.84900  0.42500  0.18300  1.0000
  O   O4        1.0  0.86600  0.82400  0.19800  1.0000
  O   O5        1.0  0.45600  0.16100  0.22500  1.0000
  O   O6        1.0  0.54400  0.66100  0.27500  1.0000
  O   O7        1.0  0.13400  0.32400  0.30200  1.0000
  O   O8        1.0  0.15100  0.92500  0.31700  1.0000
  O   O9        1.0  0.84400  0.21600  0.43300  1.0000
  O   O10       1.0  0.93000  0.53200  0.46800  1.0000
  O   O11       1.0  0.43000  0.96800  0.53200  1.0000
  O   O12       1.0  0.34400  0.28400  0.56700  1.0000
  O   O13       1.0  0.65100  0.57500  0.68300  1.0000
  O   O14       1.0  0.63400  0.17600  0.69800  1.0000
  O   O15       1.0  0.04410  0.83900  0.72500  1.0000
  O   O16       1.0  0.95600  0.33900  0.77500  1.0000
  O   O17       1.0  0.36600  0.67600  0.80200  1.0000
  O   O18       1.0  0.34900  0.07470  0.81700  1.0000
  O   O19       1.0  0.65600  0.78400  0.93300  1.0000
  O   O20       1.0  0.57000  0.46800  0.96800  1.0000
  P   P1        1.0  0.05830  0.87400  0.15900  1.0000
  P   P2        1.0  0.94200  0.37400  0.34100  1.0000
  P   P3        1.0  0.44200  0.12600  0.65900  1.0000
  P   P4        1.0  0.55800  0.62600  0.84100  1.0000
  V   V1        1.0  0.68900  0.63300  0.13300  1.0000
  V   V2        1.0  0.31100  0.13300  0.36700  1.0000
  V   V3        1.0  0.81100  0.36700  0.63300  1.0000
  V   V4        1.0  0.18900  0.86700  0.86700  1.0000
