data_image0
_chemical_formula_structural       Cu7O19V6
_chemical_formula_sum              "Cu7 O19 V6"
_cell_length_a       7.16135
_cell_length_b       7.75122
_cell_length_c       7.75122
_cell_angle_alpha    110.961
_cell_angle_beta     107.937
_cell_angle_gamma    107.937

_space_group_name_H-M_alt    "P 1"
_space_group_IT_number       1

loop_
  _space_group_symop_operation_xyz
  'x, y, z'

loop_
  _atom_site_type_symbol
  _atom_site_label
  _atom_site_symmetry_multiplicity
  _atom_site_fract_x
  _atom_site_fract_y
  _atom_site_fract_z
  _atom_site_occupancy
  Cu  Cu1       1.0  0.00000  0.00000  0.00000  1.0000
  Cu  Cu2       1.0  0.86600  0.68200  0.19900  1.0000
  Cu  Cu3       1.0  0.18400  0.51700  0.31800  1.0000
  Cu  Cu4       1.0  0.66600  0.80100  0.48300  1.0000
  Cu  Cu5       1.0  0.33400  0.19900  0.51700  1.0000
  Cu  Cu6       1.0  0.81600  0.48300  0.68200  1.0000
  Cu  Cu7       1.0  0.13400  0.31800  0.80100  1.0000
  O   O1        1.0  0.50000  0.00000  0.00000  1.0000
  O   O2        1.0  0.65100  0.38700  0.05680  1.0000
  O   O3        1.0  0.78800  0.85700  0.09140  1.0000
  O   O4        1.0  0.93100  0.23400  0.14300  1.0000
  O   O5        1.0  0.15000  0.70000  0.19800  1.0000
  O   O6        1.0  0.30300  0.09140  0.23400  1.0000
  O   O7        1.0  0.45000  0.49700  0.30000  1.0000
  O   O8        1.0  0.59400  0.94300  0.33000  1.0000
  O   O9        1.0  0.73500  0.33000  0.38700  1.0000
  O   O10       1.0  0.04760  0.19800  0.49700  1.0000
  O   O11       1.0  0.95200  0.80200  0.50300  1.0000
  O   O12       1.0  0.26500  0.67000  0.61300  1.0000
  O   O13       1.0  0.40600  0.05680  0.67000  1.0000
  O   O14       1.0  0.55000  0.50300  0.70000  1.0000
  O   O15       1.0  0.69700  0.90900  0.76600  1.0000
  O   O16       1.0  0.85000  0.30000  0.80200  1.0000
  O   O17       1.0  0.06880  0.76600  0.85700  1.0000
  O   O18       1.0  0.21200  0.14300  0.90900  1.0000
  O   O19       1.0  0.34900  0.61300  0.94300  1.0000
  V   V1        1.0  0.30900  0.82800  0.11700  1.0000
  V   V2        1.0  0.48100  0.28800  0.17200  1.0000
  V   V3        1.0  0.80700  0.11700  0.28800  1.0000
  V   V4        1.0  0.19300  0.88300  0.71200  1.0000
  V   V5        1.0  0.51900  0.71200  0.82800  1.0000
  V   V6        1.0  0.69100  0.17200  0.88300  1.0000
