data_image0
_chemical_formula_structural       Al2B28Er2
_chemical_formula_sum              "Al2 B28 Er2"
_cell_length_a       5.89224
_cell_length_b       7.26338
_cell_length_c       7.26338
_cell_angle_alpha    91.8813
_cell_angle_beta     113.93
_cell_angle_gamma    113.93

_space_group_name_H-M_alt    "P 1"
_space_group_IT_number       1

loop_
  _space_group_symop_operation_xyz
  'x, y, z'

loop_
  _atom_site_type_symbol
  _atom_site_label
  _atom_site_symmetry_multiplicity
  _atom_site_fract_x
  _atom_site_fract_y
  _atom_site_fract_z
  _atom_site_occupancy
  Al  Al1       1.0  0.00000  0.50000  0.00000  1.0000
  Al  Al2       1.0  0.50000  0.50000  0.00000  1.0000
  B   B1        1.0  0.37400  0.73100  0.01780  1.0000
  B   B2        1.0  0.20000  0.87200  0.03190  1.0000
  B   B3        1.0  0.70400  0.87200  0.03190  1.0000
  B   B4        1.0  0.16700  0.25700  0.07750  1.0000
  B   B5        1.0  0.03390  0.86700  0.20100  1.0000
  B   B6        1.0  0.32500  0.10100  0.22400  1.0000
  B   B7        1.0  0.00000  0.10100  0.22400  1.0000
  B   B8        1.0  0.37400  0.51800  0.23100  1.0000
  B   B9        1.0  0.83300  0.42200  0.24300  1.0000
  B   B10       1.0  0.03390  0.70100  0.36700  1.0000
  B   B11       1.0  0.20000  0.53200  0.37200  1.0000
  B   B12       1.0  0.70400  0.53200  0.37200  1.0000
  B   B13       1.0  0.00045  0.27600  0.39900  1.0000
  B   B14       1.0  0.67500  0.27600  0.39900  1.0000
  B   B15       1.0  0.32500  0.72400  0.60100  1.0000
  B   B16       1.0  0.00000  0.72400  0.60100  1.0000
  B   B17       1.0  0.29600  0.46800  0.62800  1.0000
  B   B18       1.0  0.80000  0.46800  0.62800  1.0000
  B   B19       1.0  0.96600  0.29900  0.63300  1.0000
  B   B20       1.0  0.16700  0.57800  0.75700  1.0000
  B   B21       1.0  0.62600  0.48200  0.76900  1.0000
  B   B22       1.0  0.00045  0.89900  0.77600  1.0000
  B   B23       1.0  0.67500  0.89900  0.77600  1.0000
  B   B24       1.0  0.96600  0.13300  0.79900  1.0000
  B   B25       1.0  0.83300  0.74300  0.92200  1.0000
  B   B26       1.0  0.29600  0.12800  0.96800  1.0000
  B   B27       1.0  0.80000  0.12800  0.96800  1.0000
  B   B28       1.0  0.62600  0.26900  0.98200  1.0000
  Er  Er1       1.0  0.65100  0.90100  0.40100  1.0000
  Er  Er2       1.0  0.34900  0.09940  0.59900  1.0000
