data_image0
_chemical_formula_structural       Cs12S16V4
_chemical_formula_sum              "Cs12 S16 V4"
_cell_length_a       9.84352
_cell_length_b       11.6173
_cell_length_c       9.87259
_cell_angle_alpha    90
_cell_angle_beta     90
_cell_angle_gamma    90

_space_group_name_H-M_alt    "P 1"
_space_group_IT_number       1

loop_
  _space_group_symop_operation_xyz
  'x, y, z'

loop_
  _atom_site_type_symbol
  _atom_site_label
  _atom_site_symmetry_multiplicity
  _atom_site_fract_x
  _atom_site_fract_y
  _atom_site_fract_z
  _atom_site_occupancy
  Cs  Cs1       1.0  0.15100  0.25000  0.08810  1.0000
  Cs  Cs2       1.0  0.54400  0.54100  0.20800  1.0000
  Cs  Cs3       1.0  0.54400  0.95900  0.20800  1.0000
  Cs  Cs4       1.0  0.04380  0.54100  0.29200  1.0000
  Cs  Cs5       1.0  0.04380  0.95900  0.29200  1.0000
  Cs  Cs6       1.0  0.65100  0.25000  0.41200  1.0000
  Cs  Cs7       1.0  0.34900  0.75000  0.58800  1.0000
  Cs  Cs8       1.0  0.95600  0.04100  0.70800  1.0000
  Cs  Cs9       1.0  0.95600  0.45900  0.70800  1.0000
  Cs  Cs10      1.0  0.45600  0.04100  0.79200  1.0000
  Cs  Cs11      1.0  0.45600  0.45900  0.79200  1.0000
  Cs  Cs12      1.0  0.84900  0.75000  0.91200  1.0000
  S   S1        1.0  0.82800  0.09590  0.04650  1.0000
  S   S2        1.0  0.82800  0.40400  0.04650  1.0000
  S   S3        1.0  0.51900  0.25000  0.06530  1.0000
  S   S4        1.0  0.28800  0.75000  0.23700  1.0000
  S   S5        1.0  0.78800  0.75000  0.26300  1.0000
  S   S6        1.0  0.01860  0.25000  0.43500  1.0000
  S   S7        1.0  0.32800  0.09590  0.45300  1.0000
  S   S8        1.0  0.32800  0.40400  0.45300  1.0000
  S   S9        1.0  0.67200  0.59600  0.54700  1.0000
  S   S10       1.0  0.67200  0.90400  0.54700  1.0000
  S   S11       1.0  0.98100  0.75000  0.56500  1.0000
  S   S12       1.0  0.21200  0.25000  0.73700  1.0000
  S   S13       1.0  0.71200  0.25000  0.76300  1.0000
  S   S14       1.0  0.48100  0.75000  0.93500  1.0000
  S   S15       1.0  0.17200  0.59600  0.95300  1.0000
  S   S16       1.0  0.17200  0.90400  0.95300  1.0000
  V   V1        1.0  0.27700  0.75000  0.01760  1.0000
  V   V2        1.0  0.77700  0.75000  0.48200  1.0000
  V   V3        1.0  0.22300  0.25000  0.51800  1.0000
  V   V4        1.0  0.72300  0.25000  0.98200  1.0000
