data_image0
_chemical_formula_structural       Mo4Na4O20Sb4
_chemical_formula_sum              "Mo4 Na4 O20 Sb4"
_cell_length_a       8.51967
_cell_length_b       10.8402
_cell_length_c       5.56224
_cell_angle_alpha    90
_cell_angle_beta     102.645
_cell_angle_gamma    90

_space_group_name_H-M_alt    "P 1"
_space_group_IT_number       1

loop_
  _space_group_symop_operation_xyz
  'x, y, z'

loop_
  _atom_site_type_symbol
  _atom_site_label
  _atom_site_symmetry_multiplicity
  _atom_site_fract_x
  _atom_site_fract_y
  _atom_site_fract_z
  _atom_site_occupancy
  Mo  Mo1       1.0  0.69900  0.40600  0.05570  1.0000
  Mo  Mo2       1.0  0.30100  0.90600  0.44400  1.0000
  Mo  Mo3       1.0  0.69900  0.09440  0.55600  1.0000
  Mo  Mo4       1.0  0.30100  0.59400  0.94400  1.0000
  Na  Na1       1.0  0.59000  0.85900  0.03620  1.0000
  Na  Na2       1.0  0.41000  0.35900  0.46400  1.0000
  Na  Na3       1.0  0.59000  0.64100  0.53600  1.0000
  Na  Na4       1.0  0.41000  0.14100  0.96400  1.0000
  O   O1        1.0  0.83400  0.76100  0.05100  1.0000
  O   O2        1.0  0.88900  0.32600  0.07450  1.0000
  O   O3        1.0  0.55800  0.31300  0.15900  1.0000
  O   O4        1.0  0.25700  0.04130  0.24600  1.0000
  O   O5        1.0  0.62700  0.04650  0.25000  1.0000
  O   O6        1.0  0.37300  0.54700  0.25000  1.0000
  O   O7        1.0  0.74300  0.54100  0.25400  1.0000
  O   O8        1.0  0.44200  0.81300  0.34100  1.0000
  O   O9        1.0  0.11100  0.82600  0.42500  1.0000
  O   O10       1.0  0.16600  0.26100  0.44900  1.0000
  O   O11       1.0  0.83400  0.73900  0.55100  1.0000
  O   O12       1.0  0.88900  0.17400  0.57500  1.0000
  O   O13       1.0  0.55800  0.18700  0.65900  1.0000
  O   O14       1.0  0.25700  0.45900  0.74600  1.0000
  O   O15       1.0  0.62700  0.45300  0.75000  1.0000
  O   O16       1.0  0.37300  0.95300  0.75000  1.0000
  O   O17       1.0  0.74300  0.95900  0.75400  1.0000
  O   O18       1.0  0.44200  0.68700  0.84100  1.0000
  O   O19       1.0  0.11100  0.67400  0.92500  1.0000
  O   O20       1.0  0.16600  0.23900  0.94900  1.0000
  Sb  Sb1       1.0  0.04630  0.15900  0.17500  1.0000
  Sb  Sb2       1.0  0.95400  0.65900  0.32500  1.0000
  Sb  Sb3       1.0  0.04630  0.34100  0.67500  1.0000
  Sb  Sb4       1.0  0.95400  0.84100  0.82500  1.0000
