data_image0
_chemical_formula_structural       Ca8Cd8K4Sb12
_chemical_formula_sum              "Ca8 Cd8 K4 Sb12"
_cell_length_a       12.3998
_cell_length_b       4.79593
_cell_length_c       16.0301
_cell_angle_alpha    90
_cell_angle_beta     90
_cell_angle_gamma    90

_space_group_name_H-M_alt    "P 1"
_space_group_IT_number       1

loop_
  _space_group_symop_operation_xyz
  'x, y, z'

loop_
  _atom_site_type_symbol
  _atom_site_label
  _atom_site_symmetry_multiplicity
  _atom_site_fract_x
  _atom_site_fract_y
  _atom_site_fract_z
  _atom_site_occupancy
  Ca  Ca1       1.0  0.60100  0.25000  0.07760  1.0000
  Ca  Ca2       1.0  0.85500  0.25000  0.22300  1.0000
  Ca  Ca3       1.0  0.35500  0.25000  0.27700  1.0000
  Ca  Ca4       1.0  0.10100  0.25000  0.42200  1.0000
  Ca  Ca5       1.0  0.89900  0.75000  0.57800  1.0000
  Ca  Ca6       1.0  0.64500  0.75000  0.72300  1.0000
  Ca  Ca7       1.0  0.14500  0.75000  0.77700  1.0000
  Ca  Ca8       1.0  0.39900  0.75000  0.92200  1.0000
  Cd  Cd1       1.0  0.29900  0.25000  0.07210  1.0000
  Cd  Cd2       1.0  0.62400  0.75000  0.22100  1.0000
  Cd  Cd3       1.0  0.12400  0.75000  0.27900  1.0000
  Cd  Cd4       1.0  0.79900  0.25000  0.42800  1.0000
  Cd  Cd5       1.0  0.20100  0.75000  0.57200  1.0000
  Cd  Cd6       1.0  0.87600  0.25000  0.72100  1.0000
  Cd  Cd7       1.0  0.37600  0.25000  0.77900  1.0000
  Cd  Cd8       1.0  0.70100  0.75000  0.92800  1.0000
  K   K1        1.0  0.09010  0.75000  0.03920  1.0000
  K   K2        1.0  0.59000  0.75000  0.46100  1.0000
  K   K3        1.0  0.41000  0.25000  0.53900  1.0000
  K   K4        1.0  0.91000  0.25000  0.96100  1.0000
  Sb  Sb1       1.0  0.79100  0.75000  0.09350  1.0000
  Sb  Sb2       1.0  0.41800  0.75000  0.12400  1.0000
  Sb  Sb3       1.0  0.11100  0.25000  0.18700  1.0000
  Sb  Sb4       1.0  0.61100  0.25000  0.31300  1.0000
  Sb  Sb5       1.0  0.91800  0.75000  0.37600  1.0000
  Sb  Sb6       1.0  0.29100  0.75000  0.40700  1.0000
  Sb  Sb7       1.0  0.70900  0.25000  0.59300  1.0000
  Sb  Sb8       1.0  0.08170  0.25000  0.62400  1.0000
  Sb  Sb9       1.0  0.38900  0.75000  0.68700  1.0000
  Sb  Sb10      1.0  0.88900  0.75000  0.81300  1.0000
  Sb  Sb11      1.0  0.58200  0.25000  0.87600  1.0000
  Sb  Sb12      1.0  0.20900  0.25000  0.90700  1.0000
