data_image0
_chemical_formula_structural       Cl10Gd6O12Si4
_chemical_formula_sum              "Cl10 Gd6 O12 Si4"
_cell_length_a       7.44221
_cell_length_b       7.44221
_cell_length_c       11.7089
_cell_angle_alpha    99.4041
_cell_angle_beta     80.5959
_cell_angle_gamma    91.2828

_space_group_name_H-M_alt    "P 1"
_space_group_IT_number       1

loop_
  _space_group_symop_operation_xyz
  'x, y, z'

loop_
  _atom_site_type_symbol
  _atom_site_label
  _atom_site_symmetry_multiplicity
  _atom_site_fract_x
  _atom_site_fract_y
  _atom_site_fract_z
  _atom_site_occupancy
  Cl  Cl1       1.0  0.68200  0.31800  0.00253  1.0000
  Cl  Cl2       1.0  0.22700  0.77300  0.33800  1.0000
  Cl  Cl3       1.0  0.61700  0.38300  0.36000  1.0000
  Cl  Cl4       1.0  0.11200  0.32300  0.42000  1.0000
  Cl  Cl5       1.0  0.67700  0.88800  0.42000  1.0000
  Cl  Cl6       1.0  0.32300  0.11200  0.58000  1.0000
  Cl  Cl7       1.0  0.88800  0.67700  0.58000  1.0000
  Cl  Cl8       1.0  0.38300  0.61700  0.64000  1.0000
  Cl  Cl9       1.0  0.77300  0.22700  0.66200  1.0000
  Cl  Cl10      1.0  0.31800  0.68200  0.99700  1.0000
  Gd  Gd1       1.0  0.50000  0.00000  0.00000  1.0000
  Gd  Gd2       1.0  0.00000  0.50000  0.00000  1.0000
  Gd  Gd3       1.0  0.41500  0.08270  0.33200  1.0000
  Gd  Gd4       1.0  0.91700  0.58500  0.33200  1.0000
  Gd  Gd5       1.0  0.08270  0.41500  0.66800  1.0000
  Gd  Gd6       1.0  0.58500  0.91700  0.66800  1.0000
  O   O1        1.0  0.14200  0.14200  0.00000  1.0000
  O   O2        1.0  0.85800  0.85800  0.00000  1.0000
  O   O3        1.0  0.30700  0.13200  0.17300  1.0000
  O   O4        1.0  0.86800  0.69300  0.17300  1.0000
  O   O5        1.0  0.04440  0.39300  0.17300  1.0000
  O   O6        1.0  0.60700  0.95600  0.17300  1.0000
  O   O7        1.0  0.95200  0.04850  0.19600  1.0000
  O   O8        1.0  0.04850  0.95200  0.80400  1.0000
  O   O9        1.0  0.39300  0.04440  0.82700  1.0000
  O   O10       1.0  0.95600  0.60700  0.82700  1.0000
  O   O11       1.0  0.13200  0.30700  0.82700  1.0000
  O   O12       1.0  0.69300  0.86800  0.82700  1.0000
  Si  Si1       1.0  0.10900  0.18200  0.14500  1.0000
  Si  Si2       1.0  0.81800  0.89100  0.14500  1.0000
  Si  Si3       1.0  0.18200  0.10900  0.85500  1.0000
  Si  Si4       1.0  0.89100  0.81800  0.85500  1.0000
