data_image0
_chemical_formula_structural       B4H20Li2N4Na2
_chemical_formula_sum              "B4 H20 Li2 N4 Na2"
_cell_length_a       4.93117
_cell_length_b       6.86724
_cell_length_c       8.66697
_cell_angle_alpha    103.188
_cell_angle_beta     102.795
_cell_angle_gamma    103.611

_space_group_name_H-M_alt    "P 1"
_space_group_IT_number       1

loop_
  _space_group_symop_operation_xyz
  'x, y, z'

loop_
  _atom_site_type_symbol
  _atom_site_label
  _atom_site_symmetry_multiplicity
  _atom_site_fract_x
  _atom_site_fract_y
  _atom_site_fract_z
  _atom_site_occupancy
  B   B1        1.0  0.86000  0.19500  0.19700  1.0000
  B   B2        1.0  0.49600  0.63700  0.24900  1.0000
  B   B3        1.0  0.50400  0.36300  0.75100  1.0000
  B   B4        1.0  0.14000  0.80500  0.80300  1.0000
  H   H1        1.0  0.35200  0.57700  0.10300  1.0000
  H   H2        1.0  0.96500  0.08380  0.11000  1.0000
  H   H3        1.0  0.84700  0.34200  0.13900  1.0000
  H   H4        1.0  0.61000  0.09060  0.18500  1.0000
  H   H5        1.0  0.74500  0.74500  0.26100  1.0000
  H   H6        1.0  0.52300  0.48100  0.29200  1.0000
  H   H7        1.0  0.28800  0.87100  0.31100  1.0000
  H   H8        1.0  0.26200  0.33200  0.38700  1.0000
  H   H9        1.0  0.03080  0.15800  0.43300  1.0000
  H   H10       1.0  0.45200  0.82000  0.47500  1.0000
  H   H11       1.0  0.54800  0.18000  0.52500  1.0000
  H   H12       1.0  0.96900  0.84200  0.56700  1.0000
  H   H13       1.0  0.73800  0.66800  0.61300  1.0000
  H   H14       1.0  0.71200  0.12900  0.68900  1.0000
  H   H15       1.0  0.47700  0.51900  0.70800  1.0000
  H   H16       1.0  0.25500  0.25500  0.73900  1.0000
  H   H17       1.0  0.39000  0.90900  0.81500  1.0000
  H   H18       1.0  0.15300  0.65800  0.86100  1.0000
  H   H19       1.0  0.03490  0.91600  0.89000  1.0000
  H   H20       1.0  0.64800  0.42300  0.89700  1.0000
  Li  Li1       1.0  0.95600  0.56100  0.36900  1.0000
  Li  Li2       1.0  0.04400  0.43900  0.63100  1.0000
  N   N1        1.0  0.33100  0.75100  0.35300  1.0000
  N   N2        1.0  0.04630  0.28000  0.38300  1.0000
  N   N3        1.0  0.95400  0.72000  0.61700  1.0000
  N   N4        1.0  0.66900  0.24900  0.64700  1.0000
  Na  Na1       1.0  0.33600  0.23600  0.01370  1.0000
  Na  Na2       1.0  0.66400  0.76400  0.98600  1.0000
