data_image0
_chemical_formula_structural       Cs4F8H16N4
_chemical_formula_sum              "Cs4 F8 H16 N4"
_cell_length_a       6.95838
_cell_length_b       4.01447
_cell_length_c       13.3022
_cell_angle_alpha    90
_cell_angle_beta     90
_cell_angle_gamma    90

_space_group_name_H-M_alt    "P 1"
_space_group_IT_number       1

loop_
  _space_group_symop_operation_xyz
  'x, y, z'

loop_
  _atom_site_type_symbol
  _atom_site_label
  _atom_site_symmetry_multiplicity
  _atom_site_fract_x
  _atom_site_fract_y
  _atom_site_fract_z
  _atom_site_occupancy
  Cs  Cs1       1.0  0.39600  0.75000  0.14500  1.0000
  Cs  Cs2       1.0  0.89600  0.75000  0.35500  1.0000
  Cs  Cs3       1.0  0.10400  0.25000  0.64500  1.0000
  Cs  Cs4       1.0  0.60400  0.25000  0.85500  1.0000
  F   F1        1.0  0.26000  0.25000  0.00278  1.0000
  F   F2        1.0  0.13900  0.25000  0.24000  1.0000
  F   F3        1.0  0.63900  0.25000  0.26000  1.0000
  F   F4        1.0  0.76000  0.25000  0.49700  1.0000
  F   F5        1.0  0.24000  0.75000  0.50300  1.0000
  F   F6        1.0  0.36100  0.75000  0.74000  1.0000
  F   F7        1.0  0.86100  0.75000  0.76000  1.0000
  F   F8        1.0  0.74000  0.75000  0.99700  1.0000
  H   H1        1.0  0.83400  0.03690  0.06050  1.0000
  H   H2        1.0  0.83400  0.46300  0.06050  1.0000
  H   H3        1.0  0.00000  0.25000  0.13600  1.0000
  H   H4        1.0  0.76700  0.25000  0.16700  1.0000
  H   H5        1.0  0.26700  0.25000  0.33300  1.0000
  H   H6        1.0  0.50000  0.25000  0.36400  1.0000
  H   H7        1.0  0.33400  0.03690  0.43900  1.0000
  H   H8        1.0  0.33400  0.46300  0.43900  1.0000
  H   H9        1.0  0.66600  0.53700  0.56100  1.0000
  H   H10       1.0  0.66600  0.96300  0.56100  1.0000
  H   H11       1.0  0.50000  0.75000  0.63600  1.0000
  H   H12       1.0  0.73300  0.75000  0.66700  1.0000
  H   H13       1.0  0.23300  0.75000  0.83300  1.0000
  H   H14       1.0  0.00000  0.75000  0.86400  1.0000
  H   H15       1.0  0.16600  0.53700  0.93900  1.0000
  H   H16       1.0  0.16600  0.96300  0.93900  1.0000
  N   N1        1.0  0.86300  0.25000  0.10500  1.0000
  N   N2        1.0  0.36300  0.25000  0.39500  1.0000
  N   N3        1.0  0.63700  0.75000  0.60500  1.0000
  N   N4        1.0  0.13700  0.75000  0.89500  1.0000
