data_image0
_chemical_formula_structural       Cl10P8S12Ta2
_chemical_formula_sum              "Cl10 P8 S12 Ta2"
_cell_length_a       6.89754
_cell_length_b       11.1698
_cell_length_c       11.645
_cell_angle_alpha    101.634
_cell_angle_beta     95.7902
_cell_angle_gamma    103.298

_space_group_name_H-M_alt    "P 1"
_space_group_IT_number       1

loop_
  _space_group_symop_operation_xyz
  'x, y, z'

loop_
  _atom_site_type_symbol
  _atom_site_label
  _atom_site_symmetry_multiplicity
  _atom_site_fract_x
  _atom_site_fract_y
  _atom_site_fract_z
  _atom_site_occupancy
  Cl  Cl1       1.0  0.40700  0.76300  0.04580  1.0000
  Cl  Cl2       1.0  0.19500  0.13500  0.09080  1.0000
  Cl  Cl3       1.0  0.43900  0.45200  0.13500  1.0000
  Cl  Cl4       1.0  0.67500  0.10500  0.17900  1.0000
  Cl  Cl5       1.0  0.48400  0.30700  0.35000  1.0000
  Cl  Cl6       1.0  0.51600  0.69300  0.65000  1.0000
  Cl  Cl7       1.0  0.32500  0.89500  0.82100  1.0000
  Cl  Cl8       1.0  0.56100  0.54800  0.86500  1.0000
  Cl  Cl9       1.0  0.80500  0.86500  0.90900  1.0000
  Cl  Cl10      1.0  0.59300  0.23700  0.95400  1.0000
  P   P1        1.0  0.94500  0.86900  0.23100  1.0000
  P   P2        1.0  0.96100  0.57400  0.28700  1.0000
  P   P3        1.0  0.26500  0.83000  0.45300  1.0000
  P   P4        1.0  0.05750  0.19600  0.49500  1.0000
  P   P5        1.0  0.94300  0.80400  0.50500  1.0000
  P   P6        1.0  0.73500  0.17000  0.54700  1.0000
  P   P7        1.0  0.03920  0.42600  0.71300  1.0000
  P   P8        1.0  0.05520  0.13100  0.76900  1.0000
  S   S1        1.0  0.88900  0.66800  0.15700  1.0000
  S   S2        1.0  0.91300  0.39100  0.21200  1.0000
  S   S3        1.0  0.24600  0.93100  0.31800  1.0000
  S   S4        1.0  0.26400  0.64300  0.36200  1.0000
  S   S5        1.0  0.79800  0.88700  0.38300  1.0000
  S   S6        1.0  0.81200  0.60600  0.43400  1.0000
  S   S7        1.0  0.18800  0.39400  0.56600  1.0000
  S   S8        1.0  0.20200  0.11300  0.61700  1.0000
  S   S9        1.0  0.73600  0.35700  0.63800  1.0000
  S   S10       1.0  0.75400  0.06860  0.68200  1.0000
  S   S11       1.0  0.08670  0.60900  0.78800  1.0000
  S   S12       1.0  0.11100  0.33200  0.84300  1.0000
  Ta  Ta1       1.0  0.51700  0.26300  0.14700  1.0000
  Ta  Ta2       1.0  0.48300  0.73700  0.85300  1.0000
