data_image0
_chemical_formula_structural       Nd8O20Si4
_chemical_formula_sum              "Nd8 O20 Si4"
_cell_length_a       9.2343
_cell_length_b       7.24842
_cell_length_c       6.87467
_cell_angle_alpha    90
_cell_angle_beta     108.18
_cell_angle_gamma    90

_space_group_name_H-M_alt    "P 1"
_space_group_IT_number       1

loop_
  _space_group_symop_operation_xyz
  'x, y, z'

loop_
  _atom_site_type_symbol
  _atom_site_label
  _atom_site_symmetry_multiplicity
  _atom_site_fract_x
  _atom_site_fract_y
  _atom_site_fract_z
  _atom_site_occupancy
  Nd  Nd1       1.0  0.39000  0.34900  0.09210  1.0000
  Nd  Nd2       1.0  0.02240  0.37600  0.23500  1.0000
  Nd  Nd3       1.0  0.97800  0.87600  0.26500  1.0000
  Nd  Nd4       1.0  0.61000  0.84900  0.40800  1.0000
  Nd  Nd5       1.0  0.39000  0.15100  0.59200  1.0000
  Nd  Nd6       1.0  0.02240  0.12400  0.73500  1.0000
  Nd  Nd7       1.0  0.97800  0.62400  0.76500  1.0000
  Nd  Nd8       1.0  0.61000  0.65100  0.90800  1.0000
  O   O1        1.0  0.88400  0.13600  0.00597  1.0000
  O   O2        1.0  0.88200  0.62200  0.04730  1.0000
  O   O3        1.0  0.40600  0.73900  0.05820  1.0000
  O   O4        1.0  0.70400  0.93100  0.13600  1.0000
  O   O5        1.0  0.63500  0.54000  0.24800  1.0000
  O   O6        1.0  0.36500  0.03950  0.25200  1.0000
  O   O7        1.0  0.29600  0.43100  0.36400  1.0000
  O   O8        1.0  0.59400  0.23900  0.44200  1.0000
  O   O9        1.0  0.11800  0.12200  0.45300  1.0000
  O   O10       1.0  0.11600  0.63600  0.49400  1.0000
  O   O11       1.0  0.88400  0.36400  0.50600  1.0000
  O   O12       1.0  0.88200  0.87800  0.54700  1.0000
  O   O13       1.0  0.40600  0.76100  0.55800  1.0000
  O   O14       1.0  0.70400  0.56900  0.63600  1.0000
  O   O15       1.0  0.63500  0.96000  0.74800  1.0000
  O   O16       1.0  0.36500  0.46000  0.75200  1.0000
  O   O17       1.0  0.29600  0.06890  0.86400  1.0000
  O   O18       1.0  0.59400  0.26100  0.94200  1.0000
  O   O19       1.0  0.11800  0.37800  0.95300  1.0000
  O   O20       1.0  0.11600  0.86400  0.99400  1.0000
  Si  Si1       1.0  0.29800  0.91500  0.04370  1.0000
  Si  Si2       1.0  0.70200  0.41500  0.45600  1.0000
  Si  Si3       1.0  0.29800  0.58500  0.54400  1.0000
  Si  Si4       1.0  0.70200  0.08450  0.95600  1.0000
