data_image0
_chemical_formula_structural       Al2B28Yb2
_chemical_formula_sum              "Al2 B28 Yb2"
_cell_length_a       5.87481
_cell_length_b       7.26402
_cell_length_c       7.26402
_cell_angle_alpha    91.7524
_cell_angle_beta     113.852
_cell_angle_gamma    113.852

_space_group_name_H-M_alt    "P 1"
_space_group_IT_number       1

loop_
  _space_group_symop_operation_xyz
  'x, y, z'

loop_
  _atom_site_type_symbol
  _atom_site_label
  _atom_site_symmetry_multiplicity
  _atom_site_fract_x
  _atom_site_fract_y
  _atom_site_fract_z
  _atom_site_occupancy
  Al  Al1       1.0  0.00000  0.50000  0.00000  1.0000
  Al  Al2       1.0  0.50000  0.50000  0.00000  1.0000
  B   B1        1.0  0.37500  0.72900  0.01980  1.0000
  B   B2        1.0  0.20100  0.87300  0.03270  1.0000
  B   B3        1.0  0.70500  0.87300  0.03270  1.0000
  B   B4        1.0  0.16700  0.25600  0.07860  1.0000
  B   B5        1.0  0.03600  0.86900  0.20300  1.0000
  B   B6        1.0  0.32500  0.10200  0.22200  1.0000
  B   B7        1.0  0.99900  0.10200  0.22200  1.0000
  B   B8        1.0  0.37500  0.52000  0.22900  1.0000
  B   B9        1.0  0.83300  0.42100  0.24400  1.0000
  B   B10       1.0  0.03600  0.70300  0.36900  1.0000
  B   B11       1.0  0.20100  0.53300  0.37300  1.0000
  B   B12       1.0  0.70500  0.53300  0.37300  1.0000
  B   B13       1.0  0.00059  0.27800  0.39800  1.0000
  B   B14       1.0  0.67500  0.27800  0.39800  1.0000
  B   B15       1.0  0.32500  0.72200  0.60200  1.0000
  B   B16       1.0  0.99900  0.72200  0.60200  1.0000
  B   B17       1.0  0.29500  0.46700  0.62700  1.0000
  B   B18       1.0  0.79900  0.46700  0.62700  1.0000
  B   B19       1.0  0.96400  0.29700  0.63100  1.0000
  B   B20       1.0  0.16700  0.57900  0.75600  1.0000
  B   B21       1.0  0.62500  0.48000  0.77100  1.0000
  B   B22       1.0  0.00059  0.89800  0.77800  1.0000
  B   B23       1.0  0.67500  0.89800  0.77800  1.0000
  B   B24       1.0  0.96400  0.13100  0.79700  1.0000
  B   B25       1.0  0.83300  0.74400  0.92100  1.0000
  B   B26       1.0  0.29500  0.12700  0.96700  1.0000
  B   B27       1.0  0.79900  0.12700  0.96700  1.0000
  B   B28       1.0  0.62500  0.27100  0.98000  1.0000
  Yb  Yb1       1.0  0.64800  0.89800  0.39800  1.0000
  Yb  Yb2       1.0  0.35200  0.10200  0.60200  1.0000
