data_image0
_chemical_formula_structural       Al2B28Ho2
_chemical_formula_sum              "Al2 B28 Ho2"
_cell_length_a       5.89206
_cell_length_b       7.26943
_cell_length_c       7.26943
_cell_angle_alpha    91.8697
_cell_angle_beta     113.908
_cell_angle_gamma    113.908

_space_group_name_H-M_alt    "P 1"
_space_group_IT_number       1

loop_
  _space_group_symop_operation_xyz
  'x, y, z'

loop_
  _atom_site_type_symbol
  _atom_site_label
  _atom_site_symmetry_multiplicity
  _atom_site_fract_x
  _atom_site_fract_y
  _atom_site_fract_z
  _atom_site_occupancy
  Al  Al1       1.0  0.00000  0.50000  0.00000  1.0000
  Al  Al2       1.0  0.50000  0.50000  0.00000  1.0000
  B   B1        1.0  0.37400  0.73100  0.01690  1.0000
  B   B2        1.0  0.20000  0.87200  0.03170  1.0000
  B   B3        1.0  0.70400  0.87200  0.03170  1.0000
  B   B4        1.0  0.16700  0.25700  0.07710  1.0000
  B   B5        1.0  0.03410  0.86700  0.20100  1.0000
  B   B6        1.0  0.32500  0.10100  0.22300  1.0000
  B   B7        1.0  0.99900  0.10100  0.22300  1.0000
  B   B8        1.0  0.37400  0.51700  0.23100  1.0000
  B   B9        1.0  0.83300  0.42300  0.24300  1.0000
  B   B10       1.0  0.03410  0.70100  0.36700  1.0000
  B   B11       1.0  0.20000  0.53200  0.37200  1.0000
  B   B12       1.0  0.70400  0.53200  0.37200  1.0000
  B   B13       1.0  0.00058  0.27700  0.39900  1.0000
  B   B14       1.0  0.67500  0.27700  0.39900  1.0000
  B   B15       1.0  0.32500  0.72300  0.60100  1.0000
  B   B16       1.0  0.99900  0.72300  0.60100  1.0000
  B   B17       1.0  0.29600  0.46800  0.62800  1.0000
  B   B18       1.0  0.80000  0.46800  0.62800  1.0000
  B   B19       1.0  0.96600  0.29900  0.63300  1.0000
  B   B20       1.0  0.16700  0.57700  0.75700  1.0000
  B   B21       1.0  0.62600  0.48300  0.76900  1.0000
  B   B22       1.0  0.00058  0.89900  0.77700  1.0000
  B   B23       1.0  0.67500  0.89900  0.77700  1.0000
  B   B24       1.0  0.96600  0.13300  0.79900  1.0000
  B   B25       1.0  0.83300  0.74300  0.92300  1.0000
  B   B26       1.0  0.29600  0.12800  0.96800  1.0000
  B   B27       1.0  0.80000  0.12800  0.96800  1.0000
  B   B28       1.0  0.62600  0.26900  0.98300  1.0000
  Ho  Ho1       1.0  0.65000  0.90000  0.40000  1.0000
  Ho  Ho2       1.0  0.35000  0.10000  0.60000  1.0000
