data_image0
_chemical_formula_structural       C6Fe6W20
_chemical_formula_sum              "C6 Fe6 W20"
_cell_length_a       7.85068
_cell_length_b       7.85068
_cell_length_c       8.07524
_cell_angle_alpha    90
_cell_angle_beta     90
_cell_angle_gamma    120

_space_group_name_H-M_alt    "P 1"
_space_group_IT_number       1

loop_
  _space_group_symop_operation_xyz
  'x, y, z'

loop_
  _atom_site_type_symbol
  _atom_site_label
  _atom_site_symmetry_multiplicity
  _atom_site_fract_x
  _atom_site_fract_y
  _atom_site_fract_z
  _atom_site_occupancy
  C   C1        1.0  0.50000  0.00000  0.00000  1.0000
  C   C2        1.0  0.00000  0.50000  0.00000  1.0000
  C   C3        1.0  0.50000  0.50000  0.00000  1.0000
  C   C4        1.0  0.50000  0.00000  0.50000  1.0000
  C   C5        1.0  0.00000  0.50000  0.50000  1.0000
  C   C6        1.0  0.50000  0.50000  0.50000  1.0000
  Fe  Fe1       1.0  0.09530  0.54800  0.25000  1.0000
  Fe  Fe2       1.0  0.45200  0.54800  0.25000  1.0000
  Fe  Fe3       1.0  0.45200  0.90500  0.25000  1.0000
  Fe  Fe4       1.0  0.54800  0.09530  0.75000  1.0000
  Fe  Fe5       1.0  0.54800  0.45200  0.75000  1.0000
  Fe  Fe6       1.0  0.90500  0.45200  0.75000  1.0000
  W   W1        1.0  0.00000  0.00000  0.00000  1.0000
  W   W2        1.0  0.42000  0.21000  0.06790  1.0000
  W   W3        1.0  0.79000  0.21000  0.06790  1.0000
  W   W4        1.0  0.79000  0.58000  0.06790  1.0000
  W   W5        1.0  0.12200  0.24300  0.25000  1.0000
  W   W6        1.0  0.12200  0.87800  0.25000  1.0000
  W   W7        1.0  0.75700  0.87800  0.25000  1.0000
  W   W8        1.0  0.42000  0.21000  0.43200  1.0000
  W   W9        1.0  0.79000  0.21000  0.43200  1.0000
  W   W10       1.0  0.79000  0.58000  0.43200  1.0000
  W   W11       1.0  0.00000  0.00000  0.50000  1.0000
  W   W12       1.0  0.21000  0.42000  0.56800  1.0000
  W   W13       1.0  0.21000  0.79000  0.56800  1.0000
  W   W14       1.0  0.58000  0.79000  0.56800  1.0000
  W   W15       1.0  0.24300  0.12200  0.75000  1.0000
  W   W16       1.0  0.87800  0.12200  0.75000  1.0000
  W   W17       1.0  0.87800  0.75700  0.75000  1.0000
  W   W18       1.0  0.21000  0.42000  0.93200  1.0000
  W   W19       1.0  0.21000  0.79000  0.93200  1.0000
  W   W20       1.0  0.58000  0.79000  0.93200  1.0000
