data_image0
_chemical_formula_structural       Cl10Dy6O12Si4
_chemical_formula_sum              "Cl10 Dy6 O12 Si4"
_cell_length_a       7.40429
_cell_length_b       7.40429
_cell_length_c       11.581
_cell_angle_alpha    99.4987
_cell_angle_beta     80.5013
_cell_angle_gamma    91.6532

_space_group_name_H-M_alt    "P 1"
_space_group_IT_number       1

loop_
  _space_group_symop_operation_xyz
  'x, y, z'

loop_
  _atom_site_type_symbol
  _atom_site_label
  _atom_site_symmetry_multiplicity
  _atom_site_fract_x
  _atom_site_fract_y
  _atom_site_fract_z
  _atom_site_occupancy
  Cl  Cl1       1.0  0.68300  0.31700  0.00260  1.0000
  Cl  Cl2       1.0  0.22200  0.77800  0.33700  1.0000
  Cl  Cl3       1.0  0.62000  0.38000  0.35800  1.0000
  Cl  Cl4       1.0  0.11500  0.32600  0.42100  1.0000
  Cl  Cl5       1.0  0.67400  0.88500  0.42100  1.0000
  Cl  Cl6       1.0  0.32600  0.11500  0.57900  1.0000
  Cl  Cl7       1.0  0.88500  0.67400  0.57900  1.0000
  Cl  Cl8       1.0  0.38000  0.62000  0.64200  1.0000
  Cl  Cl9       1.0  0.77800  0.22200  0.66300  1.0000
  Cl  Cl10      1.0  0.31700  0.68300  0.99700  1.0000
  Dy  Dy1       1.0  0.50000  0.00000  0.00000  1.0000
  Dy  Dy2       1.0  0.00000  0.50000  0.00000  1.0000
  Dy  Dy3       1.0  0.41600  0.08270  0.33200  1.0000
  Dy  Dy4       1.0  0.91700  0.58400  0.33200  1.0000
  Dy  Dy5       1.0  0.08270  0.41600  0.66800  1.0000
  Dy  Dy6       1.0  0.58400  0.91700  0.66800  1.0000
  O   O1        1.0  0.14100  0.14100  0.00000  1.0000
  O   O2        1.0  0.85900  0.85900  0.00000  1.0000
  O   O3        1.0  0.04590  0.39600  0.17300  1.0000
  O   O4        1.0  0.60400  0.95400  0.17300  1.0000
  O   O5        1.0  0.30900  0.13400  0.17300  1.0000
  O   O6        1.0  0.86600  0.69100  0.17300  1.0000
  O   O7        1.0  0.95100  0.04900  0.19800  1.0000
  O   O8        1.0  0.04900  0.95100  0.80200  1.0000
  O   O9        1.0  0.13400  0.30900  0.82700  1.0000
  O   O10       1.0  0.69100  0.86600  0.82700  1.0000
  O   O11       1.0  0.39600  0.04590  0.82700  1.0000
  O   O12       1.0  0.95400  0.60400  0.82700  1.0000
  Si  Si1       1.0  0.11000  0.18300  0.14600  1.0000
  Si  Si2       1.0  0.81700  0.89000  0.14600  1.0000
  Si  Si3       1.0  0.18300  0.11000  0.85400  1.0000
  Si  Si4       1.0  0.89000  0.81700  0.85400  1.0000
