data_image0
_chemical_formula_structural       Co4In8
_chemical_formula_sum              "Co4 In8"
_cell_length_a       5.26821
_cell_length_b       5.41408
_cell_length_c       9.30138
_cell_angle_alpha    97.9195
_cell_angle_beta     73.549
_cell_angle_gamma    119.113

_space_group_name_H-M_alt    "P 1"
_space_group_IT_number       1

loop_
  _space_group_symop_operation_xyz
  'x, y, z'

loop_
  _atom_site_type_symbol
  _atom_site_label
  _atom_site_symmetry_multiplicity
  _atom_site_fract_x
  _atom_site_fract_y
  _atom_site_fract_z
  _atom_site_occupancy
  Co  Co1       1.0  0.99700  0.25000  0.00619  1.0000
  Co  Co2       1.0  0.25300  0.25000  0.49400  1.0000
  Co  Co3       1.0  0.74700  0.75000  0.50600  1.0000
  Co  Co4       1.0  0.00310  0.75000  0.99400  1.0000
  In  In1       1.0  0.46300  0.75000  0.07320  1.0000
  In  In2       1.0  0.03490  0.06990  0.25000  1.0000
  In  In3       1.0  0.71500  0.43000  0.25000  1.0000
  In  In4       1.0  0.28700  0.75000  0.42700  1.0000
  In  In5       1.0  0.71300  0.25000  0.57300  1.0000
  In  In6       1.0  0.28500  0.57000  0.75000  1.0000
  In  In7       1.0  0.96500  0.93000  0.75000  1.0000
  In  In8       1.0  0.53700  0.25000  0.92700  1.0000
