data_image0
_chemical_formula_structural       Dy8Hf4S20
_chemical_formula_sum              "Dy8 Hf4 S20"
_cell_length_a       11.5069
_cell_length_b       7.24119
_cell_length_c       7.72903
_cell_angle_alpha    90
_cell_angle_beta     90
_cell_angle_gamma    90

_space_group_name_H-M_alt    "P 1"
_space_group_IT_number       1

loop_
  _space_group_symop_operation_xyz
  'x, y, z'

loop_
  _atom_site_type_symbol
  _atom_site_label
  _atom_site_symmetry_multiplicity
  _atom_site_fract_x
  _atom_site_fract_y
  _atom_site_fract_z
  _atom_site_occupancy
  Dy  Dy1       1.0  0.67900  0.52300  0.00261  1.0000
  Dy  Dy2       1.0  0.17900  0.97700  0.00261  1.0000
  Dy  Dy3       1.0  0.67900  0.52300  0.49700  1.0000
  Dy  Dy4       1.0  0.17900  0.97700  0.49700  1.0000
  Dy  Dy5       1.0  0.82100  0.02310  0.50300  1.0000
  Dy  Dy6       1.0  0.32100  0.47700  0.50300  1.0000
  Dy  Dy7       1.0  0.82100  0.02310  0.99700  1.0000
  Dy  Dy8       1.0  0.32100  0.47700  0.99700  1.0000
  Hf  Hf1       1.0  0.99400  0.57600  0.25000  1.0000
  Hf  Hf2       1.0  0.49400  0.92400  0.25000  1.0000
  Hf  Hf3       1.0  0.50600  0.07590  0.75000  1.0000
  Hf  Hf4       1.0  0.00602  0.42400  0.75000  1.0000
  S   S1        1.0  0.59300  0.16100  0.03660  1.0000
  S   S2        1.0  0.09310  0.33900  0.03660  1.0000
  S   S3        1.0  0.31900  0.16800  0.25000  1.0000
  S   S4        1.0  0.81900  0.33200  0.25000  1.0000
  S   S5        1.0  0.49700  0.55300  0.25000  1.0000
  S   S6        1.0  0.20800  0.68900  0.25000  1.0000
  S   S7        1.0  0.70800  0.81100  0.25000  1.0000
  S   S8        1.0  0.99700  0.94700  0.25000  1.0000
  S   S9        1.0  0.59300  0.16100  0.46300  1.0000
  S   S10       1.0  0.09310  0.33900  0.46300  1.0000
  S   S11       1.0  0.90700  0.66100  0.53700  1.0000
  S   S12       1.0  0.40700  0.83900  0.53700  1.0000
  S   S13       1.0  0.00343  0.05260  0.75000  1.0000
  S   S14       1.0  0.29200  0.18900  0.75000  1.0000
  S   S15       1.0  0.79200  0.31100  0.75000  1.0000
  S   S16       1.0  0.50300  0.44700  0.75000  1.0000
  S   S17       1.0  0.18100  0.66800  0.75000  1.0000
  S   S18       1.0  0.68100  0.83200  0.75000  1.0000
  S   S19       1.0  0.90700  0.66100  0.96300  1.0000
  S   S20       1.0  0.40700  0.83900  0.96300  1.0000
