data_image0
_chemical_formula_structural       Ca4O20Te8
_chemical_formula_sum              "Ca4 O20 Te8"
_cell_length_a       9.33445
_cell_length_b       5.64635
_cell_length_c       11.0527
_cell_angle_alpha    90
_cell_angle_beta     115.356
_cell_angle_gamma    90

_space_group_name_H-M_alt    "P 1"
_space_group_IT_number       1

loop_
  _space_group_symop_operation_xyz
  'x, y, z'

loop_
  _atom_site_type_symbol
  _atom_site_label
  _atom_site_symmetry_multiplicity
  _atom_site_fract_x
  _atom_site_fract_y
  _atom_site_fract_z
  _atom_site_occupancy
  Ca  Ca1       1.0  0.01860  0.20000  0.14000  1.0000
  Ca  Ca2       1.0  0.98100  0.70000  0.36000  1.0000
  Ca  Ca3       1.0  0.01860  0.30000  0.64000  1.0000
  Ca  Ca4       1.0  0.98100  0.80000  0.86000  1.0000
  O   O1        1.0  0.11600  0.85100  0.08850  1.0000
  O   O2        1.0  0.48100  0.60800  0.09470  1.0000
  O   O3        1.0  0.23000  0.39800  0.10500  1.0000
  O   O4        1.0  0.80100  0.47300  0.15300  1.0000
  O   O5        1.0  0.84700  0.99600  0.20200  1.0000
  O   O6        1.0  0.15300  0.49600  0.29800  1.0000
  O   O7        1.0  0.19900  0.97300  0.34700  1.0000
  O   O8        1.0  0.77000  0.89800  0.39500  1.0000
  O   O9        1.0  0.51900  0.10800  0.40500  1.0000
  O   O10       1.0  0.88400  0.35100  0.41100  1.0000
  O   O11       1.0  0.11600  0.64900  0.58900  1.0000
  O   O12       1.0  0.48100  0.89200  0.59500  1.0000
  O   O13       1.0  0.23000  0.10200  0.60500  1.0000
  O   O14       1.0  0.80100  0.02660  0.65300  1.0000
  O   O15       1.0  0.84700  0.50400  0.70200  1.0000
  O   O16       1.0  0.15300  0.00376  0.79800  1.0000
  O   O17       1.0  0.19900  0.52700  0.84700  1.0000
  O   O18       1.0  0.77000  0.60200  0.89500  1.0000
  O   O19       1.0  0.51900  0.39200  0.90500  1.0000
  O   O20       1.0  0.88400  0.14900  0.91100  1.0000
  Te  Te1       1.0  0.65100  0.65200  0.00943  1.0000
  Te  Te2       1.0  0.27000  0.67800  0.22700  1.0000
  Te  Te3       1.0  0.73000  0.17800  0.27300  1.0000
  Te  Te4       1.0  0.34900  0.15200  0.49100  1.0000
  Te  Te5       1.0  0.65100  0.84800  0.50900  1.0000
  Te  Te6       1.0  0.27000  0.82200  0.72700  1.0000
  Te  Te7       1.0  0.73000  0.32200  0.77300  1.0000
  Te  Te8       1.0  0.34900  0.34800  0.99100  1.0000
