data_image0
_chemical_formula_structural       Na12O16Ru4
_chemical_formula_sum              "Na12 O16 Ru4"
_cell_length_a       5.66444
_cell_length_b       8.43328
_cell_length_c       8.43328
_cell_angle_alpha    98.5997
_cell_angle_beta     102.691
_cell_angle_gamma    102.691

_space_group_name_H-M_alt    "P 1"
_space_group_IT_number       1

loop_
  _space_group_symop_operation_xyz
  'x, y, z'

loop_
  _atom_site_type_symbol
  _atom_site_label
  _atom_site_symmetry_multiplicity
  _atom_site_fract_x
  _atom_site_fract_y
  _atom_site_fract_z
  _atom_site_occupancy
  Na  Na1       1.0  0.50000  0.00000  0.00000  1.0000
  Na  Na2       1.0  0.00000  0.50000  0.00000  1.0000
  Na  Na3       1.0  0.52200  0.37200  0.11900  1.0000
  Na  Na4       1.0  0.50000  0.74100  0.25900  1.0000
  Na  Na5       1.0  0.52200  0.11900  0.37200  1.0000
  Na  Na6       1.0  0.00000  0.62400  0.37600  1.0000
  Na  Na7       1.0  0.50000  0.50000  0.50000  1.0000
  Na  Na8       1.0  0.00000  0.00000  0.50000  1.0000
  Na  Na9       1.0  0.00000  0.37600  0.62400  1.0000
  Na  Na10      1.0  0.47800  0.88100  0.62800  1.0000
  Na  Na11      1.0  0.50000  0.25900  0.74100  1.0000
  Na  Na12      1.0  0.47800  0.62800  0.88100  1.0000
  O   O1        1.0  0.80800  0.23500  0.01010  1.0000
  O   O2        1.0  0.20600  0.11200  0.11200  1.0000
  O   O3        1.0  0.77500  0.66800  0.12500  1.0000
  O   O4        1.0  0.80800  0.01010  0.23500  1.0000
  O   O5        1.0  0.23500  0.46400  0.24600  1.0000
  O   O6        1.0  0.22500  0.87500  0.33200  1.0000
  O   O7        1.0  0.79700  0.34700  0.34700  1.0000
  O   O8        1.0  0.23500  0.24600  0.46400  1.0000
  O   O9        1.0  0.76500  0.75400  0.53600  1.0000
  O   O10       1.0  0.20300  0.65300  0.65300  1.0000
  O   O11       1.0  0.77500  0.12500  0.66800  1.0000
  O   O12       1.0  0.76500  0.53600  0.75400  1.0000
  O   O13       1.0  0.19200  0.99000  0.76500  1.0000
  O   O14       1.0  0.22500  0.33200  0.87500  1.0000
  O   O15       1.0  0.79400  0.88800  0.88800  1.0000
  O   O16       1.0  0.19200  0.76500  0.99000  1.0000
  Ru  Ru1       1.0  0.00000  0.87300  0.12700  1.0000
  Ru  Ru2       1.0  0.02560  0.25500  0.25500  1.0000
  Ru  Ru3       1.0  0.97400  0.74500  0.74500  1.0000
  Ru  Ru4       1.0  0.00000  0.12700  0.87300  1.0000
