data_image0
_chemical_formula_structural       Ag12Cr2O16Si2
_chemical_formula_sum              "Ag12 Cr2 O16 Si2"
_cell_length_a       7.05944
_cell_length_b       7.05944
_cell_length_c       10.2429
_cell_angle_alpha    110.157
_cell_angle_beta     110.157
_cell_angle_gamma    90

_space_group_name_H-M_alt    "P 1"
_space_group_IT_number       1

loop_
  _space_group_symop_operation_xyz
  'x, y, z'

loop_
  _atom_site_type_symbol
  _atom_site_label
  _atom_site_symmetry_multiplicity
  _atom_site_fract_x
  _atom_site_fract_y
  _atom_site_fract_z
  _atom_site_occupancy
  Ag  Ag1       1.0  0.29400  0.00000  0.00000  1.0000
  Ag  Ag2       1.0  0.70600  0.00000  0.00000  1.0000
  Ag  Ag3       1.0  0.29400  0.50000  0.00000  1.0000
  Ag  Ag4       1.0  0.70600  0.50000  0.00000  1.0000
  Ag  Ag5       1.0  0.61100  0.86100  0.22200  1.0000
  Ag  Ag6       1.0  0.13900  0.38900  0.27800  1.0000
  Ag  Ag7       1.0  0.00000  0.29400  0.50000  1.0000
  Ag  Ag8       1.0  0.50000  0.29400  0.50000  1.0000
  Ag  Ag9       1.0  0.00000  0.70600  0.50000  1.0000
  Ag  Ag10      1.0  0.50000  0.70600  0.50000  1.0000
  Ag  Ag11      1.0  0.86100  0.61100  0.72200  1.0000
  Ag  Ag12      1.0  0.38900  0.13900  0.77800  1.0000
  Cr  Cr1       1.0  0.12500  0.87500  0.25000  1.0000
  Cr  Cr2       1.0  0.87500  0.12500  0.75000  1.0000
  O   O1        1.0  0.07290  0.01890  0.14600  1.0000
  O   O2        1.0  0.07290  0.62700  0.14600  1.0000
  O   O3        1.0  0.37900  0.32300  0.14600  1.0000
  O   O4        1.0  0.76700  0.32300  0.14600  1.0000
  O   O5        1.0  0.67700  0.23300  0.35400  1.0000
  O   O6        1.0  0.67700  0.62100  0.35400  1.0000
  O   O7        1.0  0.37300  0.92700  0.35400  1.0000
  O   O8        1.0  0.98100  0.92700  0.35400  1.0000
  O   O9        1.0  0.01890  0.07290  0.64600  1.0000
  O   O10       1.0  0.62700  0.07290  0.64600  1.0000
  O   O11       1.0  0.32300  0.37900  0.64600  1.0000
  O   O12       1.0  0.32300  0.76700  0.64600  1.0000
  O   O13       1.0  0.23300  0.67700  0.85400  1.0000
  O   O14       1.0  0.62100  0.67700  0.85400  1.0000
  O   O15       1.0  0.92700  0.37300  0.85400  1.0000
  O   O16       1.0  0.92700  0.98100  0.85400  1.0000
  Si  Si1       1.0  0.62500  0.37500  0.25000  1.0000
  Si  Si2       1.0  0.37500  0.62500  0.75000  1.0000
