data_image0
_chemical_formula_structural       C12Co2Cs4K2N12
_chemical_formula_sum              "C12 Co2 Cs4 K2 N12"
_cell_length_a       7.55798
_cell_length_b       7.98784
_cell_length_c       10.9621
_cell_angle_alpha    90
_cell_angle_beta     90.2062
_cell_angle_gamma    90

_space_group_name_H-M_alt    "P 1"
_space_group_IT_number       1

loop_
  _space_group_symop_operation_xyz
  'x, y, z'

loop_
  _atom_site_type_symbol
  _atom_site_label
  _atom_site_symmetry_multiplicity
  _atom_site_fract_x
  _atom_site_fract_y
  _atom_site_fract_z
  _atom_site_occupancy
  C   C1        1.0  0.79600  0.12600  0.03010  1.0000
  C   C2        1.0  0.87700  0.80400  0.03810  1.0000
  C   C3        1.0  0.06830  0.02040  0.16300  1.0000
  C   C4        1.0  0.43200  0.52000  0.33700  1.0000
  C   C5        1.0  0.62300  0.30400  0.46200  1.0000
  C   C6        1.0  0.70400  0.62600  0.47000  1.0000
  C   C7        1.0  0.29600  0.37400  0.53000  1.0000
  C   C8        1.0  0.37700  0.69600  0.53800  1.0000
  C   C9        1.0  0.56800  0.48000  0.66300  1.0000
  C   C10       1.0  0.93200  0.98000  0.83700  1.0000
  C   C11       1.0  0.12300  0.19600  0.96200  1.0000
  C   C12       1.0  0.20400  0.87400  0.97000  1.0000
  Co  Co1       1.0  0.00000  0.00000  0.00000  1.0000
  Co  Co2       1.0  0.50000  0.50000  0.50000  1.0000
  Cs  Cs1       1.0  0.52000  0.93400  0.25000  1.0000
  Cs  Cs2       1.0  0.98000  0.43400  0.25000  1.0000
  Cs  Cs3       1.0  0.01950  0.56600  0.75000  1.0000
  Cs  Cs4       1.0  0.48000  0.06600  0.75000  1.0000
  K   K1        1.0  0.50000  0.50000  0.00000  1.0000
  K   K2        1.0  0.00000  0.00000  0.50000  1.0000
  N   N1        1.0  0.66700  0.20200  0.05190  1.0000
  N   N2        1.0  0.80000  0.68100  0.06350  1.0000
  N   N3        1.0  0.38600  0.53700  0.23500  1.0000
  N   N4        1.0  0.11400  0.03720  0.26500  1.0000
  N   N5        1.0  0.70000  0.18100  0.43700  1.0000
  N   N6        1.0  0.83300  0.70200  0.44800  1.0000
  N   N7        1.0  0.16700  0.29800  0.55200  1.0000
  N   N8        1.0  0.30000  0.81900  0.56300  1.0000
  N   N9        1.0  0.88600  0.96300  0.73500  1.0000
  N   N10       1.0  0.61400  0.46300  0.76500  1.0000
  N   N11       1.0  0.20000  0.31900  0.93700  1.0000
  N   N12       1.0  0.33300  0.79800  0.94800  1.0000
