data_image0
_chemical_formula_structural       Br4F16N4O8
_chemical_formula_sum              "Br4 F16 N4 O8"
_cell_length_a       5.37163
_cell_length_b       5.56783
_cell_length_c       13.2655
_cell_angle_alpha    90
_cell_angle_beta     90
_cell_angle_gamma    90

_space_group_name_H-M_alt    "P 1"
_space_group_IT_number       1

loop_
  _space_group_symop_operation_xyz
  'x, y, z'

loop_
  _atom_site_type_symbol
  _atom_site_label
  _atom_site_symmetry_multiplicity
  _atom_site_fract_x
  _atom_site_fract_y
  _atom_site_fract_z
  _atom_site_occupancy
  Br  Br1       1.0  0.16200  0.25000  0.14300  1.0000
  Br  Br2       1.0  0.66200  0.25000  0.35700  1.0000
  Br  Br3       1.0  0.33800  0.75000  0.64300  1.0000
  Br  Br4       1.0  0.83800  0.75000  0.85700  1.0000
  F   F1        1.0  0.32900  0.01330  0.06480  1.0000
  F   F2        1.0  0.32900  0.48700  0.06480  1.0000
  F   F3        1.0  0.02950  0.00830  0.23500  1.0000
  F   F4        1.0  0.02950  0.49200  0.23500  1.0000
  F   F5        1.0  0.53000  0.00830  0.26500  1.0000
  F   F6        1.0  0.53000  0.49200  0.26500  1.0000
  F   F7        1.0  0.82900  0.01330  0.43500  1.0000
  F   F8        1.0  0.82900  0.48700  0.43500  1.0000
  F   F9        1.0  0.17100  0.51300  0.56500  1.0000
  F   F10       1.0  0.17100  0.98700  0.56500  1.0000
  F   F11       1.0  0.47000  0.50800  0.73500  1.0000
  F   F12       1.0  0.47000  0.99200  0.73500  1.0000
  F   F13       1.0  0.97000  0.50800  0.76500  1.0000
  F   F14       1.0  0.97000  0.99200  0.76500  1.0000
  F   F15       1.0  0.67100  0.51300  0.93500  1.0000
  F   F16       1.0  0.67100  0.98700  0.93500  1.0000
  N   N1        1.0  0.57900  0.75000  0.14200  1.0000
  N   N2        1.0  0.07870  0.75000  0.35800  1.0000
  N   N3        1.0  0.92100  0.25000  0.64200  1.0000
  N   N4        1.0  0.42100  0.25000  0.85800  1.0000
  O   O1        1.0  0.91700  0.25000  0.07490  1.0000
  O   O2        1.0  0.76800  0.75000  0.10900  1.0000
  O   O3        1.0  0.26800  0.75000  0.39100  1.0000
  O   O4        1.0  0.41700  0.25000  0.42500  1.0000
  O   O5        1.0  0.58300  0.75000  0.57500  1.0000
  O   O6        1.0  0.73200  0.25000  0.60900  1.0000
  O   O7        1.0  0.23200  0.25000  0.89100  1.0000
  O   O8        1.0  0.08320  0.75000  0.92500  1.0000
