data_image0
_chemical_formula_structural       Al4B4Li8O16
_chemical_formula_sum              "Al4 B4 Li8 O16"
_cell_length_a       6.16448
_cell_length_b       5.07521
_cell_length_c       10.2364
_cell_angle_alpha    90
_cell_angle_beta     94.5916
_cell_angle_gamma    90

_space_group_name_H-M_alt    "P 1"
_space_group_IT_number       1

loop_
  _space_group_symop_operation_xyz
  'x, y, z'

loop_
  _atom_site_type_symbol
  _atom_site_label
  _atom_site_symmetry_multiplicity
  _atom_site_fract_x
  _atom_site_fract_y
  _atom_site_fract_z
  _atom_site_occupancy
  Al  Al1       1.0  0.49600  0.85500  0.15900  1.0000
  Al  Al2       1.0  0.50400  0.35500  0.34100  1.0000
  Al  Al3       1.0  0.49600  0.64500  0.65900  1.0000
  Al  Al4       1.0  0.50400  0.14500  0.84100  1.0000
  B   B1        1.0  0.80000  0.18000  0.05850  1.0000
  B   B2        1.0  0.20000  0.68000  0.44100  1.0000
  B   B3        1.0  0.80000  0.32000  0.55900  1.0000
  B   B4        1.0  0.20000  0.82000  0.94100  1.0000
  Li  Li1       1.0  0.22600  0.32900  0.07210  1.0000
  Li  Li2       1.0  0.90200  0.65300  0.20700  1.0000
  Li  Li3       1.0  0.09830  0.15300  0.29300  1.0000
  Li  Li4       1.0  0.77400  0.82900  0.42800  1.0000
  Li  Li5       1.0  0.22600  0.17100  0.57200  1.0000
  Li  Li6       1.0  0.90200  0.84700  0.70700  1.0000
  Li  Li7       1.0  0.09830  0.34700  0.79300  1.0000
  Li  Li8       1.0  0.77400  0.67100  0.92800  1.0000
  O   O1        1.0  0.29700  0.69500  0.05270  1.0000
  O   O2        1.0  0.74000  0.91300  0.07700  1.0000
  O   O3        1.0  0.94300  0.30500  0.14200  1.0000
  O   O4        1.0  0.39900  0.15200  0.21400  1.0000
  O   O5        1.0  0.60100  0.65200  0.28600  1.0000
  O   O6        1.0  0.05670  0.80500  0.35800  1.0000
  O   O7        1.0  0.26000  0.41300  0.42300  1.0000
  O   O8        1.0  0.70300  0.19500  0.44700  1.0000
  O   O9        1.0  0.29700  0.80500  0.55300  1.0000
  O   O10       1.0  0.74000  0.58700  0.57700  1.0000
  O   O11       1.0  0.94300  0.19500  0.64200  1.0000
  O   O12       1.0  0.39900  0.34800  0.71400  1.0000
  O   O13       1.0  0.60100  0.84800  0.78600  1.0000
  O   O14       1.0  0.05670  0.69500  0.85800  1.0000
  O   O15       1.0  0.26000  0.08680  0.92300  1.0000
  O   O16       1.0  0.70300  0.30500  0.94700  1.0000
