data_image0
_chemical_formula_structural       Ca12Ni12Si8
_chemical_formula_sum              "Ca12 Ni12 Si8"
_cell_length_a       9.12782
_cell_length_b       3.90797
_cell_length_c       17.8395
_cell_angle_alpha    90
_cell_angle_beta     90
_cell_angle_gamma    90

_space_group_name_H-M_alt    "P 1"
_space_group_IT_number       1

loop_
  _space_group_symop_operation_xyz
  'x, y, z'

loop_
  _atom_site_type_symbol
  _atom_site_label
  _atom_site_symmetry_multiplicity
  _atom_site_fract_x
  _atom_site_fract_y
  _atom_site_fract_z
  _atom_site_occupancy
  Ca  Ca1       1.0  0.85900  0.75000  0.06630  1.0000
  Ca  Ca2       1.0  0.39100  0.75000  0.06920  1.0000
  Ca  Ca3       1.0  0.12500  0.25000  0.18100  1.0000
  Ca  Ca4       1.0  0.62500  0.25000  0.31900  1.0000
  Ca  Ca5       1.0  0.89100  0.75000  0.43100  1.0000
  Ca  Ca6       1.0  0.35900  0.75000  0.43400  1.0000
  Ca  Ca7       1.0  0.64100  0.25000  0.56600  1.0000
  Ca  Ca8       1.0  0.10900  0.25000  0.56900  1.0000
  Ca  Ca9       1.0  0.37500  0.75000  0.68100  1.0000
  Ca  Ca10      1.0  0.87500  0.75000  0.81900  1.0000
  Ca  Ca11      1.0  0.60900  0.25000  0.93100  1.0000
  Ca  Ca12      1.0  0.14100  0.25000  0.93400  1.0000
  Ni  Ni1       1.0  0.62700  0.75000  0.18500  1.0000
  Ni  Ni2       1.0  0.80600  0.25000  0.19200  1.0000
  Ni  Ni3       1.0  0.44600  0.25000  0.19200  1.0000
  Ni  Ni4       1.0  0.94600  0.25000  0.30800  1.0000
  Ni  Ni5       1.0  0.30600  0.25000  0.30800  1.0000
  Ni  Ni6       1.0  0.12700  0.75000  0.31500  1.0000
  Ni  Ni7       1.0  0.87300  0.25000  0.68500  1.0000
  Ni  Ni8       1.0  0.69400  0.75000  0.69200  1.0000
  Ni  Ni9       1.0  0.05410  0.75000  0.69200  1.0000
  Ni  Ni10      1.0  0.55400  0.75000  0.80800  1.0000
  Ni  Ni11      1.0  0.19400  0.75000  0.80800  1.0000
  Ni  Ni12      1.0  0.37300  0.25000  0.81500  1.0000
  Si  Si1       1.0  0.62600  0.25000  0.10600  1.0000
  Si  Si2       1.0  0.87800  0.75000  0.25000  1.0000
  Si  Si3       1.0  0.37800  0.75000  0.25000  1.0000
  Si  Si4       1.0  0.12600  0.25000  0.39400  1.0000
  Si  Si5       1.0  0.87400  0.75000  0.60600  1.0000
  Si  Si6       1.0  0.62200  0.25000  0.75000  1.0000
  Si  Si7       1.0  0.12200  0.25000  0.75000  1.0000
  Si  Si8       1.0  0.37400  0.75000  0.89400  1.0000
