data_image0
_chemical_formula_structural       Al2B28Li2
_chemical_formula_sum              "Al2 B28 Li2"
_cell_length_a       5.84045
_cell_length_b       7.18044
_cell_length_c       7.18044
_cell_angle_alpha    91.799
_cell_angle_beta     113.997
_cell_angle_gamma    113.997

_space_group_name_H-M_alt    "P 1"
_space_group_IT_number       1

loop_
  _space_group_symop_operation_xyz
  'x, y, z'

loop_
  _atom_site_type_symbol
  _atom_site_label
  _atom_site_symmetry_multiplicity
  _atom_site_fract_x
  _atom_site_fract_y
  _atom_site_fract_z
  _atom_site_occupancy
  Al  Al1       1.0  0.00000  0.00000  0.50000  1.0000
  Al  Al2       1.0  0.50000  0.00000  0.50000  1.0000
  B   B1        1.0  0.00566  0.22700  0.10200  1.0000
  B   B2        1.0  0.32300  0.22700  0.10200  1.0000
  B   B3        1.0  0.29300  0.96400  0.12300  1.0000
  B   B4        1.0  0.79400  0.96400  0.12300  1.0000
  B   B5        1.0  0.96800  0.80200  0.13500  1.0000
  B   B6        1.0  0.17000  0.08490  0.25600  1.0000
  B   B7        1.0  0.61900  0.97000  0.26900  1.0000
  B   B8        1.0  0.67700  0.39800  0.27300  1.0000
  B   B9        1.0  0.99400  0.39800  0.27300  1.0000
  B   B10       1.0  0.96800  0.63500  0.30200  1.0000
  B   B11       1.0  0.83000  0.24400  0.41500  1.0000
  B   B12       1.0  0.29300  0.62300  0.46400  1.0000
  B   B13       1.0  0.79400  0.62300  0.46400  1.0000
  B   B14       1.0  0.61900  0.76900  0.47000  1.0000
  B   B15       1.0  0.38100  0.23100  0.53000  1.0000
  B   B16       1.0  0.20600  0.37700  0.53600  1.0000
  B   B17       1.0  0.70700  0.37700  0.53600  1.0000
  B   B18       1.0  0.17000  0.75600  0.58500  1.0000
  B   B19       1.0  0.03170  0.36500  0.69800  1.0000
  B   B20       1.0  0.00566  0.60200  0.72700  1.0000
  B   B21       1.0  0.32300  0.60200  0.72700  1.0000
  B   B22       1.0  0.38100  0.03010  0.73100  1.0000
  B   B23       1.0  0.83000  0.91500  0.74400  1.0000
  B   B24       1.0  0.03170  0.19800  0.86500  1.0000
  B   B25       1.0  0.20600  0.03630  0.87700  1.0000
  B   B26       1.0  0.70700  0.03630  0.87700  1.0000
  B   B27       1.0  0.67700  0.77300  0.89800  1.0000
  B   B28       1.0  0.99400  0.77300  0.89800  1.0000
  Li  Li1       1.0  0.35100  0.60100  0.10100  1.0000
  Li  Li2       1.0  0.64900  0.39900  0.89900  1.0000
