data_image0
_chemical_formula_structural       Ba6Ir4O18Y2
_chemical_formula_sum              "Ba6 Ir4 O18 Y2"
_cell_length_a       5.8839
_cell_length_b       5.88391
_cell_length_c       14.6778
_cell_angle_alpha    90
_cell_angle_beta     90
_cell_angle_gamma    120

_space_group_name_H-M_alt    "P 1"
_space_group_IT_number       1

loop_
  _space_group_symop_operation_xyz
  'x, y, z'

loop_
  _atom_site_type_symbol
  _atom_site_label
  _atom_site_symmetry_multiplicity
  _atom_site_fract_x
  _atom_site_fract_y
  _atom_site_fract_z
  _atom_site_occupancy
  Ba  Ba1       1.0  0.33300  0.66700  0.07830  1.0000
  Ba  Ba2       1.0  0.00000  0.00000  0.25400  1.0000
  Ba  Ba3       1.0  0.33300  0.66700  0.40100  1.0000
  Ba  Ba4       1.0  0.66700  0.33300  0.57800  1.0000
  Ba  Ba5       1.0  0.00000  0.00000  0.75400  1.0000
  Ba  Ba6       1.0  0.66700  0.33300  0.90100  1.0000
  Ir  Ir1       1.0  0.66700  0.33300  0.34500  1.0000
  Ir  Ir2       1.0  0.00000  0.00000  0.49500  1.0000
  Ir  Ir3       1.0  0.33300  0.66700  0.84500  1.0000
  Ir  Ir4       1.0  0.00000  0.00000  0.99500  1.0000
  O   O1        1.0  0.84600  0.69200  0.07510  1.0000
  O   O2        1.0  0.30800  0.15400  0.07510  1.0000
  O   O3        1.0  0.84600  0.15400  0.07510  1.0000
  O   O4        1.0  0.51000  0.01950  0.26300  1.0000
  O   O5        1.0  0.51000  0.49000  0.26300  1.0000
  O   O6        1.0  0.98100  0.49000  0.26300  1.0000
  O   O7        1.0  0.33300  0.16600  0.42000  1.0000
  O   O8        1.0  0.83400  0.16600  0.42000  1.0000
  O   O9        1.0  0.83400  0.66700  0.42000  1.0000
  O   O10       1.0  0.15400  0.30800  0.57500  1.0000
  O   O11       1.0  0.15400  0.84600  0.57500  1.0000
  O   O12       1.0  0.69200  0.84600  0.57500  1.0000
  O   O13       1.0  0.01950  0.51000  0.76300  1.0000
  O   O14       1.0  0.49000  0.51000  0.76300  1.0000
  O   O15       1.0  0.49000  0.98100  0.76300  1.0000
  O   O16       1.0  0.16600  0.83400  0.92000  1.0000
  O   O17       1.0  0.66700  0.83400  0.92000  1.0000
  O   O18       1.0  0.16600  0.33300  0.92000  1.0000
  Y   Y1        1.0  0.66700  0.33300  0.15100  1.0000
  Y   Y2        1.0  0.33300  0.66700  0.65100  1.0000
