data_image0
_chemical_formula_structural       Al2Se4Tl2
_chemical_formula_sum              "Al2 Se4 Tl2"
_cell_length_a       6.39936
_cell_length_b       6.60597
_cell_length_c       6.60597
_cell_angle_alpha    103.568
_cell_angle_beta     61.0293
_cell_angle_gamma    118.971

_space_group_name_H-M_alt    "P 1"
_space_group_IT_number       1

loop_
  _space_group_symop_operation_xyz
  'x, y, z'

loop_
  _atom_site_type_symbol
  _atom_site_label
  _atom_site_symmetry_multiplicity
  _atom_site_fract_x
  _atom_site_fract_y
  _atom_site_fract_z
  _atom_site_occupancy
  Al  Al1       1.0  0.25000  0.50000  0.50000  1.0000
  Al  Al2       1.0  0.75000  0.50000  0.50000  1.0000
  Se  Se1       1.0  0.15900  0.50000  0.18200  1.0000
  Se  Se2       1.0  0.65900  0.81800  0.50000  1.0000
  Se  Se3       1.0  0.34100  0.18200  0.50000  1.0000
  Se  Se4       1.0  0.84100  0.50000  0.81800  1.0000
  Tl  Tl1       1.0  0.25000  0.00000  0.00000  1.0000
  Tl  Tl2       1.0  0.75000  0.00000  0.00000  1.0000
