data_image0
_chemical_formula_structural       B10Er3Ni19
_chemical_formula_sum              "B10 Er3 Ni19"
_cell_length_a       5.76691
_cell_length_b       7.90161
_cell_length_c       7.90161
_cell_angle_alpha    66.9245
_cell_angle_beta     91.1657
_cell_angle_gamma    91.1657

_space_group_name_H-M_alt    "P 1"
_space_group_IT_number       1

loop_
  _space_group_symop_operation_xyz
  'x, y, z'

loop_
  _atom_site_type_symbol
  _atom_site_label
  _atom_site_symmetry_multiplicity
  _atom_site_fract_x
  _atom_site_fract_y
  _atom_site_fract_z
  _atom_site_occupancy
  B   B1        1.0  0.56900  0.69900  0.06580  1.0000
  B   B2        1.0  0.97500  0.35000  0.14300  1.0000
  B   B3        1.0  0.43100  0.93400  0.30100  1.0000
  B   B4        1.0  0.97500  0.14300  0.35000  1.0000
  B   B5        1.0  0.00000  0.61500  0.38500  1.0000
  B   B6        1.0  0.00000  0.38500  0.61500  1.0000
  B   B7        1.0  0.02540  0.85700  0.65000  1.0000
  B   B8        1.0  0.56900  0.06580  0.69900  1.0000
  B   B9        1.0  0.02540  0.65000  0.85700  1.0000
  B   B10       1.0  0.43100  0.30100  0.93400  1.0000
  Er  Er1       1.0  0.00000  0.00000  0.00000  1.0000
  Er  Er2       1.0  0.61500  0.37400  0.37400  1.0000
  Er  Er3       1.0  0.38500  0.62600  0.62600  1.0000
  Ni  Ni1       1.0  0.50000  0.00000  0.00000  1.0000
  Ni  Ni2       1.0  0.30200  0.51700  0.04510  1.0000
  Ni  Ni3       1.0  0.92600  0.62300  0.12200  1.0000
  Ni  Ni4       1.0  0.70400  0.16200  0.16200  1.0000
  Ni  Ni5       1.0  0.27100  0.18200  0.18200  1.0000
  Ni  Ni6       1.0  0.30100  0.71100  0.23000  1.0000
  Ni  Ni7       1.0  0.69900  0.77000  0.28900  1.0000
  Ni  Ni8       1.0  0.07390  0.87800  0.37700  1.0000
  Ni  Ni9       1.0  0.12700  0.37800  0.37800  1.0000
  Ni  Ni10      1.0  0.69800  0.95500  0.48300  1.0000
  Ni  Ni11      1.0  0.30200  0.04510  0.51700  1.0000
  Ni  Ni12      1.0  0.87300  0.62200  0.62200  1.0000
  Ni  Ni13      1.0  0.92600  0.12200  0.62300  1.0000
  Ni  Ni14      1.0  0.30100  0.23000  0.71100  1.0000
  Ni  Ni15      1.0  0.69900  0.28900  0.77000  1.0000
  Ni  Ni16      1.0  0.72900  0.81800  0.81800  1.0000
  Ni  Ni17      1.0  0.29600  0.83800  0.83800  1.0000
  Ni  Ni18      1.0  0.07390  0.37700  0.87800  1.0000
  Ni  Ni19      1.0  0.69800  0.48300  0.95500  1.0000
