data_image0
_chemical_formula_structural       B8Hf4O20
_chemical_formula_sum              "B8 Hf4 O20"
_cell_length_a       4.36764
_cell_length_b       6.8914
_cell_length_c       8.94945
_cell_angle_alpha    90
_cell_angle_beta     90.7787
_cell_angle_gamma    90

_space_group_name_H-M_alt    "P 1"
_space_group_IT_number       1

loop_
  _space_group_symop_operation_xyz
  'x, y, z'

loop_
  _atom_site_type_symbol
  _atom_site_label
  _atom_site_symmetry_multiplicity
  _atom_site_fract_x
  _atom_site_fract_y
  _atom_site_fract_z
  _atom_site_occupancy
  B   B1        1.0  0.47300  0.72900  0.07650  1.0000
  B   B2        1.0  0.46400  0.08690  0.16600  1.0000
  B   B3        1.0  0.53600  0.58700  0.33400  1.0000
  B   B4        1.0  0.52700  0.22900  0.42300  1.0000
  B   B5        1.0  0.47300  0.77100  0.57700  1.0000
  B   B6        1.0  0.46400  0.41300  0.66600  1.0000
  B   B7        1.0  0.53600  0.91300  0.83400  1.0000
  B   B8        1.0  0.52700  0.27100  0.92300  1.0000
  Hf  Hf1       1.0  0.00140  0.38700  0.17100  1.0000
  Hf  Hf2       1.0  0.99900  0.88700  0.32900  1.0000
  Hf  Hf3       1.0  0.00140  0.11300  0.67100  1.0000
  Hf  Hf4       1.0  0.99900  0.61300  0.82900  1.0000
  O   O1        1.0  0.23100  0.59600  0.03200  1.0000
  O   O2        1.0  0.34500  0.22200  0.05440  1.0000
  O   O3        1.0  0.32800  0.89500  0.15000  1.0000
  O   O4        1.0  0.78800  0.09000  0.17800  1.0000
  O   O5        1.0  0.69700  0.65500  0.19200  1.0000
  O   O6        1.0  0.30300  0.15500  0.30800  1.0000
  O   O7        1.0  0.21200  0.59000  0.32200  1.0000
  O   O8        1.0  0.67200  0.39500  0.35000  1.0000
  O   O9        1.0  0.65500  0.72200  0.44600  1.0000
  O   O10       1.0  0.76900  0.09610  0.46800  1.0000
  O   O11       1.0  0.23100  0.90400  0.53200  1.0000
  O   O12       1.0  0.34500  0.27800  0.55400  1.0000
  O   O13       1.0  0.32800  0.60500  0.65000  1.0000
  O   O14       1.0  0.78800  0.41000  0.67800  1.0000
  O   O15       1.0  0.69700  0.84500  0.69200  1.0000
  O   O16       1.0  0.30300  0.34500  0.80800  1.0000
  O   O17       1.0  0.21200  0.91000  0.82200  1.0000
  O   O18       1.0  0.67200  0.10500  0.85000  1.0000
  O   O19       1.0  0.65500  0.77800  0.94600  1.0000
  O   O20       1.0  0.76900  0.40400  0.96800  1.0000
