data_image0
_chemical_formula_structural       Cl10O12Si4Tb6
_chemical_formula_sum              "Cl10 O12 Si4 Tb6"
_cell_length_a       7.42156
_cell_length_b       7.42156
_cell_length_c       11.6484
_cell_angle_alpha    99.429
_cell_angle_beta     80.571
_cell_angle_gamma    91.3665

_space_group_name_H-M_alt    "P 1"
_space_group_IT_number       1

loop_
  _space_group_symop_operation_xyz
  'x, y, z'

loop_
  _atom_site_type_symbol
  _atom_site_label
  _atom_site_symmetry_multiplicity
  _atom_site_fract_x
  _atom_site_fract_y
  _atom_site_fract_z
  _atom_site_occupancy
  Cl  Cl1       1.0  0.68400  0.31600  0.00146  1.0000
  Cl  Cl2       1.0  0.22200  0.77800  0.33900  1.0000
  Cl  Cl3       1.0  0.61700  0.38300  0.35600  1.0000
  Cl  Cl4       1.0  0.11400  0.32600  0.42000  1.0000
  Cl  Cl5       1.0  0.67400  0.88600  0.42000  1.0000
  Cl  Cl6       1.0  0.32600  0.11400  0.58000  1.0000
  Cl  Cl7       1.0  0.88600  0.67400  0.58000  1.0000
  Cl  Cl8       1.0  0.38300  0.61700  0.64400  1.0000
  Cl  Cl9       1.0  0.77800  0.22200  0.66100  1.0000
  Cl  Cl10      1.0  0.31600  0.68400  0.99900  1.0000
  O   O1        1.0  0.14100  0.14100  0.00000  1.0000
  O   O2        1.0  0.85900  0.85900  0.00000  1.0000
  O   O3        1.0  0.04470  0.39400  0.17300  1.0000
  O   O4        1.0  0.60600  0.95500  0.17300  1.0000
  O   O5        1.0  0.30800  0.13300  0.17300  1.0000
  O   O6        1.0  0.86700  0.69200  0.17300  1.0000
  O   O7        1.0  0.95100  0.04860  0.19700  1.0000
  O   O8        1.0  0.04860  0.95100  0.80300  1.0000
  O   O9        1.0  0.13300  0.30800  0.82700  1.0000
  O   O10       1.0  0.69200  0.86700  0.82700  1.0000
  O   O11       1.0  0.39400  0.04470  0.82700  1.0000
  O   O12       1.0  0.95500  0.60600  0.82700  1.0000
  Si  Si1       1.0  0.11000  0.18200  0.14500  1.0000
  Si  Si2       1.0  0.81800  0.89000  0.14500  1.0000
  Si  Si3       1.0  0.18200  0.11000  0.85500  1.0000
  Si  Si4       1.0  0.89000  0.81800  0.85500  1.0000
  Tb  Tb1       1.0  0.50000  0.00000  0.00000  1.0000
  Tb  Tb2       1.0  0.00000  0.50000  0.00000  1.0000
  Tb  Tb3       1.0  0.41600  0.08300  0.33200  1.0000
  Tb  Tb4       1.0  0.91700  0.58400  0.33200  1.0000
  Tb  Tb5       1.0  0.08300  0.41600  0.66800  1.0000
  Tb  Tb6       1.0  0.58400  0.91700  0.66800  1.0000
