data_image0
_chemical_formula_structural       In20Ni4Zr8
_chemical_formula_sum              "In20 Ni4 Zr8"
_cell_length_a       10.1473
_cell_length_b       10.1473
_cell_length_c       7.09022
_cell_angle_alpha    90
_cell_angle_beta     90
_cell_angle_gamma    90

_space_group_name_H-M_alt    "P 1"
_space_group_IT_number       1

loop_
  _space_group_symop_operation_xyz
  'x, y, z'

loop_
  _atom_site_type_symbol
  _atom_site_label
  _atom_site_symmetry_multiplicity
  _atom_site_fract_x
  _atom_site_fract_y
  _atom_site_fract_z
  _atom_site_occupancy
  In  In1       1.0  0.00000  0.00000  0.20100  1.0000
  In  In2       1.0  0.29900  0.05760  0.22300  1.0000
  In  In3       1.0  0.05760  0.29900  0.22300  1.0000
  In  In4       1.0  0.94200  0.70100  0.22300  1.0000
  In  In5       1.0  0.70100  0.94200  0.22300  1.0000
  In  In6       1.0  0.55800  0.20100  0.27700  1.0000
  In  In7       1.0  0.79900  0.44200  0.27700  1.0000
  In  In8       1.0  0.20100  0.55800  0.27700  1.0000
  In  In9       1.0  0.44200  0.79900  0.27700  1.0000
  In  In10      1.0  0.50000  0.50000  0.29900  1.0000
  In  In11      1.0  0.50000  0.50000  0.70100  1.0000
  In  In12      1.0  0.55800  0.20100  0.72300  1.0000
  In  In13      1.0  0.79900  0.44200  0.72300  1.0000
  In  In14      1.0  0.20100  0.55800  0.72300  1.0000
  In  In15      1.0  0.44200  0.79900  0.72300  1.0000
  In  In16      1.0  0.29900  0.05760  0.77700  1.0000
  In  In17      1.0  0.05760  0.29900  0.77700  1.0000
  In  In18      1.0  0.94200  0.70100  0.77700  1.0000
  In  In19      1.0  0.70100  0.94200  0.77700  1.0000
  In  In20      1.0  0.00000  0.00000  0.79900  1.0000
  Ni  Ni1       1.0  0.61400  0.38600  0.00000  1.0000
  Ni  Ni2       1.0  0.38600  0.61400  0.00000  1.0000
  Ni  Ni3       1.0  0.11400  0.11400  0.50000  1.0000
  Ni  Ni4       1.0  0.88600  0.88600  0.50000  1.0000
  Zr  Zr1       1.0  0.79700  0.20300  0.00000  1.0000
  Zr  Zr2       1.0  0.34000  0.34000  0.00000  1.0000
  Zr  Zr3       1.0  0.66000  0.66000  0.00000  1.0000
  Zr  Zr4       1.0  0.20300  0.79700  0.00000  1.0000
  Zr  Zr5       1.0  0.84000  0.16000  0.50000  1.0000
  Zr  Zr6       1.0  0.29700  0.29700  0.50000  1.0000
  Zr  Zr7       1.0  0.70300  0.70300  0.50000  1.0000
  Zr  Zr8       1.0  0.16000  0.84000  0.50000  1.0000
