data_image0
_chemical_formula_structural       C12Gd2N18
_chemical_formula_sum              "C12 Gd2 N18"
_cell_length_a       6.80715
_cell_length_b       6.80715
_cell_length_c       9.90996
_cell_angle_alpha    90
_cell_angle_beta     90
_cell_angle_gamma    110.053

_space_group_name_H-M_alt    "P 1"
_space_group_IT_number       1

loop_
  _space_group_symop_operation_xyz
  'x, y, z'

loop_
  _atom_site_type_symbol
  _atom_site_label
  _atom_site_symmetry_multiplicity
  _atom_site_fract_x
  _atom_site_fract_y
  _atom_site_fract_z
  _atom_site_occupancy
  C   C1        1.0  0.71000  0.00000  0.05100  1.0000
  C   C2        1.0  0.00000  0.29000  0.05100  1.0000
  C   C3        1.0  0.44000  0.27200  0.25000  1.0000
  C   C4        1.0  0.72800  0.56000  0.25000  1.0000
  C   C5        1.0  0.71000  0.00000  0.44900  1.0000
  C   C6        1.0  0.00000  0.29000  0.44900  1.0000
  C   C7        1.0  0.29000  0.00000  0.55100  1.0000
  C   C8        1.0  0.00000  0.71000  0.55100  1.0000
  C   C9        1.0  0.27200  0.44000  0.75000  1.0000
  C   C10       1.0  0.56000  0.72800  0.75000  1.0000
  C   C11       1.0  0.29000  0.00000  0.94900  1.0000
  C   C12       1.0  0.00000  0.71000  0.94900  1.0000
  Gd  Gd1       1.0  0.28500  0.71500  0.25000  1.0000
  Gd  Gd2       1.0  0.71500  0.28500  0.75000  1.0000
  N   N1        1.0  0.16000  0.84000  0.01160  1.0000
  N   N2        1.0  0.14600  0.41800  0.09940  1.0000
  N   N3        1.0  0.58200  0.85400  0.09940  1.0000
  N   N4        1.0  0.35300  0.08980  0.25000  1.0000
  N   N5        1.0  0.52600  0.47400  0.25000  1.0000
  N   N6        1.0  0.91000  0.64700  0.25000  1.0000
  N   N7        1.0  0.14600  0.41800  0.40100  1.0000
  N   N8        1.0  0.58200  0.85400  0.40100  1.0000
  N   N9        1.0  0.16000  0.84000  0.48800  1.0000
  N   N10       1.0  0.84000  0.16000  0.51200  1.0000
  N   N11       1.0  0.41800  0.14600  0.59900  1.0000
  N   N12       1.0  0.85400  0.58200  0.59900  1.0000
  N   N13       1.0  0.08980  0.35300  0.75000  1.0000
  N   N14       1.0  0.47400  0.52600  0.75000  1.0000
  N   N15       1.0  0.64700  0.91000  0.75000  1.0000
  N   N16       1.0  0.41800  0.14600  0.90100  1.0000
  N   N17       1.0  0.85400  0.58200  0.90100  1.0000
  N   N18       1.0  0.84000  0.16000  0.98800  1.0000
