data_image0
_chemical_formula_structural       Er8S20Zr4
_chemical_formula_sum              "Er8 S20 Zr4"
_cell_length_a       11.5407
_cell_length_b       7.69675
_cell_length_c       7.2236
_cell_angle_alpha    90
_cell_angle_beta     90
_cell_angle_gamma    90

_space_group_name_H-M_alt    "P 1"
_space_group_IT_number       1

loop_
  _space_group_symop_operation_xyz
  'x, y, z'

loop_
  _atom_site_type_symbol
  _atom_site_label
  _atom_site_symmetry_multiplicity
  _atom_site_fract_x
  _atom_site_fract_y
  _atom_site_fract_z
  _atom_site_occupancy
  Er  Er1       1.0  0.82100  0.50300  0.02040  1.0000
  Er  Er2       1.0  0.82100  0.99700  0.02040  1.0000
  Er  Er3       1.0  0.32100  0.50300  0.48000  1.0000
  Er  Er4       1.0  0.32100  0.99700  0.48000  1.0000
  Er  Er5       1.0  0.67900  0.00305  0.52000  1.0000
  Er  Er6       1.0  0.67900  0.49700  0.52000  1.0000
  Er  Er7       1.0  0.17900  0.00305  0.98000  1.0000
  Er  Er8       1.0  0.17900  0.49700  0.98000  1.0000
  S   S1        1.0  0.00237  0.75000  0.04810  1.0000
  S   S2        1.0  0.59700  0.03810  0.16100  1.0000
  S   S3        1.0  0.59700  0.46200  0.16100  1.0000
  S   S4        1.0  0.31800  0.25000  0.17100  1.0000
  S   S5        1.0  0.29100  0.75000  0.19300  1.0000
  S   S6        1.0  0.79100  0.75000  0.30700  1.0000
  S   S7        1.0  0.81800  0.25000  0.32900  1.0000
  S   S8        1.0  0.09670  0.03810  0.33900  1.0000
  S   S9        1.0  0.09670  0.46200  0.33900  1.0000
  S   S10       1.0  0.50200  0.75000  0.45200  1.0000
  S   S11       1.0  0.49800  0.25000  0.54800  1.0000
  S   S12       1.0  0.90300  0.53800  0.66100  1.0000
  S   S13       1.0  0.90300  0.96200  0.66100  1.0000
  S   S14       1.0  0.18200  0.75000  0.67100  1.0000
  S   S15       1.0  0.20900  0.25000  0.69300  1.0000
  S   S16       1.0  0.70900  0.25000  0.80700  1.0000
  S   S17       1.0  0.68200  0.75000  0.82900  1.0000
  S   S18       1.0  0.40300  0.53800  0.83900  1.0000
  S   S19       1.0  0.40300  0.96200  0.83900  1.0000
  S   S20       1.0  0.99800  0.25000  0.95200  1.0000
  Zr  Zr1       1.0  0.50600  0.75000  0.07930  1.0000
  Zr  Zr2       1.0  0.00644  0.75000  0.42100  1.0000
  Zr  Zr3       1.0  0.99400  0.25000  0.57900  1.0000
  Zr  Zr4       1.0  0.49400  0.25000  0.92100  1.0000
