data_image0
_chemical_formula_structural       Cs8In8S16
_chemical_formula_sum              "Cs8 In8 S16"
_cell_length_a       8.02992
_cell_length_b       8.02992
_cell_length_c       16.5784
_cell_angle_alpha    96.9773
_cell_angle_beta     83.0227
_cell_angle_gamma    89.9925

_space_group_name_H-M_alt    "P 1"
_space_group_IT_number       1

loop_
  _space_group_symop_operation_xyz
  'x, y, z'

loop_
  _atom_site_type_symbol
  _atom_site_label
  _atom_site_symmetry_multiplicity
  _atom_site_fract_x
  _atom_site_fract_y
  _atom_site_fract_z
  _atom_site_occupancy
  Cs  Cs1       1.0  0.84700  0.27500  0.10700  1.0000
  Cs  Cs2       1.0  0.34900  0.27700  0.10700  1.0000
  Cs  Cs3       1.0  0.27700  0.34900  0.39300  1.0000
  Cs  Cs4       1.0  0.27500  0.84700  0.39300  1.0000
  Cs  Cs5       1.0  0.72500  0.15300  0.60700  1.0000
  Cs  Cs6       1.0  0.72300  0.65100  0.60700  1.0000
  Cs  Cs7       1.0  0.65100  0.72300  0.89300  1.0000
  Cs  Cs8       1.0  0.15300  0.72500  0.89300  1.0000
  In  In1       1.0  0.08120  0.79100  0.16500  1.0000
  In  In2       1.0  0.58600  0.79100  0.16500  1.0000
  In  In3       1.0  0.79100  0.58600  0.33500  1.0000
  In  In4       1.0  0.79100  0.08120  0.33500  1.0000
  In  In5       1.0  0.20900  0.91900  0.66500  1.0000
  In  In6       1.0  0.20900  0.41400  0.66500  1.0000
  In  In7       1.0  0.41400  0.20900  0.83500  1.0000
  In  In8       1.0  0.91900  0.20900  0.83500  1.0000
  S   S1        1.0  0.85700  0.77000  0.07190  1.0000
  S   S2        1.0  0.35700  0.76800  0.07450  1.0000
  S   S3        1.0  0.06910  0.55400  0.24900  1.0000
  S   S4        1.0  0.06950  0.06950  0.25000  1.0000
  S   S5        1.0  0.55500  0.55500  0.25000  1.0000
  S   S6        1.0  0.55400  0.06910  0.25100  1.0000
  S   S7        1.0  0.76800  0.35700  0.42500  1.0000
  S   S8        1.0  0.77000  0.85700  0.42800  1.0000
  S   S9        1.0  0.23000  0.14300  0.57200  1.0000
  S   S10       1.0  0.23200  0.64300  0.57500  1.0000
  S   S11       1.0  0.44600  0.93100  0.74900  1.0000
  S   S12       1.0  0.44500  0.44500  0.75000  1.0000
  S   S13       1.0  0.93100  0.93100  0.75000  1.0000
  S   S14       1.0  0.93100  0.44600  0.75100  1.0000
  S   S15       1.0  0.64300  0.23200  0.92500  1.0000
  S   S16       1.0  0.14300  0.23000  0.92800  1.0000
