data_image0
_chemical_formula_structural       B30Na2
_chemical_formula_sum              "B30 Na2"
_cell_length_a       5.82977
_cell_length_b       7.24575
_cell_length_c       7.24575
_cell_angle_alpha    90.286
_cell_angle_beta     113.721
_cell_angle_gamma    113.721

_space_group_name_H-M_alt    "P 1"
_space_group_IT_number       1

loop_
  _space_group_symop_operation_xyz
  'x, y, z'

loop_
  _atom_site_type_symbol
  _atom_site_label
  _atom_site_symmetry_multiplicity
  _atom_site_fract_x
  _atom_site_fract_y
  _atom_site_fract_z
  _atom_site_occupancy
  B   B1        1.0  0.00497  0.21300  0.11800  1.0000
  B   B2        1.0  0.32600  0.21300  0.11800  1.0000
  B   B3        1.0  0.28400  0.95500  0.11800  1.0000
  B   B4        1.0  0.78900  0.95500  0.11800  1.0000
  B   B5        1.0  0.95400  0.78900  0.11800  1.0000
  B   B6        1.0  0.60600  0.96000  0.25200  1.0000
  B   B7        1.0  0.15300  0.05170  0.25500  1.0000
  B   B8        1.0  0.67400  0.38200  0.28700  1.0000
  B   B9        1.0  0.99500  0.38200  0.28700  1.0000
  B   B10       1.0  0.95400  0.61800  0.28900  1.0000
  B   B11       1.0  0.84700  0.24500  0.44800  1.0000
  B   B12       1.0  0.28400  0.61800  0.45500  1.0000
  B   B13       1.0  0.78900  0.61800  0.45500  1.0000
  B   B14       1.0  0.60600  0.75200  0.46000  1.0000
  B   B15       1.0  0.74700  0.99700  0.49700  1.0000
  B   B16       1.0  0.25300  0.00296  0.50300  1.0000
  B   B17       1.0  0.39400  0.24800  0.54000  1.0000
  B   B18       1.0  0.21100  0.38200  0.54500  1.0000
  B   B19       1.0  0.71600  0.38200  0.54500  1.0000
  B   B20       1.0  0.15300  0.75500  0.55200  1.0000
  B   B21       1.0  0.04650  0.38200  0.71100  1.0000
  B   B22       1.0  0.00496  0.61800  0.71300  1.0000
  B   B23       1.0  0.32600  0.61800  0.71300  1.0000
  B   B24       1.0  0.84700  0.94800  0.74500  1.0000
  B   B25       1.0  0.39400  0.03950  0.74800  1.0000
  B   B26       1.0  0.04650  0.21100  0.88200  1.0000
  B   B27       1.0  0.21100  0.04460  0.88200  1.0000
  B   B28       1.0  0.71600  0.04460  0.88200  1.0000
  B   B29       1.0  0.67400  0.78700  0.88200  1.0000
  B   B30       1.0  0.99500  0.78700  0.88200  1.0000
  Na  Na1       1.0  0.33900  0.58900  0.08880  1.0000
  Na  Na2       1.0  0.66100  0.41100  0.91100  1.0000
