data_image0
_chemical_formula_structural       Cs18O6Tl8
_chemical_formula_sum              "Cs18 O6 Tl8"
_cell_length_a       11.6995
_cell_length_b       11.6995
_cell_length_c       11.6995
_cell_angle_alpha    109.471
_cell_angle_beta     109.471
_cell_angle_gamma    109.471

_space_group_name_H-M_alt    "P 1"
_space_group_IT_number       1

loop_
  _space_group_symop_operation_xyz
  'x, y, z'

loop_
  _atom_site_type_symbol
  _atom_site_label
  _atom_site_symmetry_multiplicity
  _atom_site_fract_x
  _atom_site_fract_y
  _atom_site_fract_z
  _atom_site_occupancy
  Cs  Cs1       1.0  0.36500  0.36500  0.00000  1.0000
  Cs  Cs2       1.0  0.63500  0.63500  0.00000  1.0000
  Cs  Cs3       1.0  0.27600  0.66300  0.04060  1.0000
  Cs  Cs4       1.0  0.95900  0.62200  0.23500  1.0000
  Cs  Cs5       1.0  0.66300  0.04060  0.27600  1.0000
  Cs  Cs6       1.0  0.61300  0.37800  0.33700  1.0000
  Cs  Cs7       1.0  0.36500  0.00000  0.36500  1.0000
  Cs  Cs8       1.0  0.00000  0.36500  0.36500  1.0000
  Cs  Cs9       1.0  0.33700  0.61300  0.37800  1.0000
  Cs  Cs10      1.0  0.72400  0.76500  0.38700  1.0000
  Cs  Cs11      1.0  0.37800  0.33700  0.61300  1.0000
  Cs  Cs12      1.0  0.23500  0.95900  0.62200  1.0000
  Cs  Cs13      1.0  0.63500  0.00000  0.63500  1.0000
  Cs  Cs14      1.0  0.00000  0.63500  0.63500  1.0000
  Cs  Cs15      1.0  0.04060  0.27600  0.66300  1.0000
  Cs  Cs16      1.0  0.76500  0.38700  0.72400  1.0000
  Cs  Cs17      1.0  0.38700  0.72400  0.76500  1.0000
  Cs  Cs18      1.0  0.62200  0.23500  0.95900  1.0000
  O   O1        1.0  0.67100  0.50000  0.17100  1.0000
  O   O2        1.0  0.50000  0.82900  0.32900  1.0000
  O   O3        1.0  0.82900  0.32900  0.50000  1.0000
  O   O4        1.0  0.17100  0.67100  0.50000  1.0000
  O   O5        1.0  0.50000  0.17100  0.67100  1.0000
  O   O6        1.0  0.32900  0.50000  0.82900  1.0000
  Tl  Tl1       1.0  0.27700  0.00000  0.00000  1.0000
  Tl  Tl2       1.0  0.82400  0.00000  0.00000  1.0000
  Tl  Tl3       1.0  0.00000  0.27700  0.00000  1.0000
  Tl  Tl4       1.0  0.00000  0.82400  0.00000  1.0000
  Tl  Tl5       1.0  0.17600  0.17600  0.17600  1.0000
  Tl  Tl6       1.0  0.00000  0.00000  0.27700  1.0000
  Tl  Tl7       1.0  0.72300  0.72300  0.72300  1.0000
  Tl  Tl8       1.0  0.00000  0.00000  0.82400  1.0000
