data_image0
_chemical_formula_structural       C12Co2Cs4N12Na2
_chemical_formula_sum              "C12 Co2 Cs4 N12 Na2"
_cell_length_a       7.52047
_cell_length_b       7.61821
_cell_length_c       10.7628
_cell_angle_alpha    90
_cell_angle_beta     90.0091
_cell_angle_gamma    90

_space_group_name_H-M_alt    "P 1"
_space_group_IT_number       1

loop_
  _space_group_symop_operation_xyz
  'x, y, z'

loop_
  _atom_site_type_symbol
  _atom_site_label
  _atom_site_symmetry_multiplicity
  _atom_site_fract_x
  _atom_site_fract_y
  _atom_site_fract_z
  _atom_site_occupancy
  C   C1        1.0  0.80000  0.14100  0.01690  1.0000
  C   C2        1.0  0.85900  0.80100  0.02060  1.0000
  C   C3        1.0  0.03840  0.00591  0.17100  1.0000
  C   C4        1.0  0.46200  0.50600  0.32900  1.0000
  C   C5        1.0  0.64100  0.30100  0.47900  1.0000
  C   C6        1.0  0.70000  0.64100  0.48300  1.0000
  C   C7        1.0  0.30000  0.35900  0.51700  1.0000
  C   C8        1.0  0.35900  0.69900  0.52100  1.0000
  C   C9        1.0  0.53800  0.49400  0.67100  1.0000
  C   C10       1.0  0.96200  0.99400  0.82900  1.0000
  C   C11       1.0  0.14100  0.19900  0.97900  1.0000
  C   C12       1.0  0.20000  0.85900  0.98300  1.0000
  Co  Co1       1.0  0.00000  0.00000  0.00000  1.0000
  Co  Co2       1.0  0.50000  0.50000  0.50000  1.0000
  Cs  Cs1       1.0  0.99200  0.46400  0.25000  1.0000
  Cs  Cs2       1.0  0.50800  0.96400  0.25000  1.0000
  Cs  Cs3       1.0  0.49200  0.03550  0.75000  1.0000
  Cs  Cs4       1.0  0.00764  0.53600  0.75000  1.0000
  N   N1        1.0  0.67200  0.22900  0.02810  1.0000
  N   N2        1.0  0.77000  0.67600  0.03490  1.0000
  N   N3        1.0  0.43600  0.51200  0.22200  1.0000
  N   N4        1.0  0.06420  0.01200  0.27800  1.0000
  N   N5        1.0  0.73000  0.17600  0.46500  1.0000
  N   N6        1.0  0.82800  0.72900  0.47200  1.0000
  N   N7        1.0  0.17200  0.27100  0.52800  1.0000
  N   N8        1.0  0.27000  0.82400  0.53500  1.0000
  N   N9        1.0  0.93600  0.98800  0.72200  1.0000
  N   N10       1.0  0.56400  0.48800  0.77800  1.0000
  N   N11       1.0  0.23000  0.32400  0.96500  1.0000
  N   N12       1.0  0.32800  0.77100  0.97200  1.0000
  Na  Na1       1.0  0.50000  0.50000  0.00000  1.0000
  Na  Na2       1.0  0.00000  0.00000  0.50000  1.0000
