data_image0
_chemical_formula_structural       In8Rb8Se16
_chemical_formula_sum              "In8 Rb8 Se16"
_cell_length_a       8.23647
_cell_length_b       8.23647
_cell_length_c       16.4535
_cell_angle_alpha    97.1715
_cell_angle_beta     82.8285
_cell_angle_gamma    90.0269

_space_group_name_H-M_alt    "P 1"
_space_group_IT_number       1

loop_
  _space_group_symop_operation_xyz
  'x, y, z'

loop_
  _atom_site_type_symbol
  _atom_site_label
  _atom_site_symmetry_multiplicity
  _atom_site_fract_x
  _atom_site_fract_y
  _atom_site_fract_z
  _atom_site_occupancy
  In  In1       1.0  0.08650  0.29000  0.16000  1.0000
  In  In2       1.0  0.58300  0.29000  0.16100  1.0000
  In  In3       1.0  0.29000  0.58300  0.33900  1.0000
  In  In4       1.0  0.29000  0.08650  0.34000  1.0000
  In  In5       1.0  0.71000  0.91300  0.66000  1.0000
  In  In6       1.0  0.71000  0.41700  0.66100  1.0000
  In  In7       1.0  0.41700  0.71000  0.83900  1.0000
  In  In8       1.0  0.91300  0.71000  0.84000  1.0000
  Rb  Rb1       1.0  0.84800  0.77800  0.11000  1.0000
  Rb  Rb2       1.0  0.34600  0.77900  0.11400  1.0000
  Rb  Rb3       1.0  0.77900  0.34600  0.38600  1.0000
  Rb  Rb4       1.0  0.77800  0.84800  0.39000  1.0000
  Rb  Rb5       1.0  0.22200  0.15200  0.61000  1.0000
  Rb  Rb6       1.0  0.22100  0.65400  0.61400  1.0000
  Rb  Rb7       1.0  0.65400  0.22100  0.88600  1.0000
  Rb  Rb8       1.0  0.15200  0.22200  0.89000  1.0000
  Se  Se1       1.0  0.36000  0.26500  0.06020  1.0000
  Se  Se2       1.0  0.85900  0.26500  0.06110  1.0000
  Se  Se3       1.0  0.04870  0.57600  0.25000  1.0000
  Se  Se4       1.0  0.04870  0.04870  0.25000  1.0000
  Se  Se5       1.0  0.57600  0.57600  0.25000  1.0000
  Se  Se6       1.0  0.57600  0.04870  0.25000  1.0000
  Se  Se7       1.0  0.26500  0.85900  0.43900  1.0000
  Se  Se8       1.0  0.26500  0.36000  0.44000  1.0000
  Se  Se9       1.0  0.73500  0.64000  0.56000  1.0000
  Se  Se10      1.0  0.73500  0.14100  0.56100  1.0000
  Se  Se11      1.0  0.42400  0.95100  0.75000  1.0000
  Se  Se12      1.0  0.42400  0.42400  0.75000  1.0000
  Se  Se13      1.0  0.95100  0.95100  0.75000  1.0000
  Se  Se14      1.0  0.95100  0.42400  0.75000  1.0000
  Se  Se15      1.0  0.14100  0.73500  0.93900  1.0000
  Se  Se16      1.0  0.64000  0.73500  0.94000  1.0000
