data_image0
_chemical_formula_structural       As4Na4O20Ti4
_chemical_formula_sum              "As4 Na4 O20 Ti4"
_cell_length_a       6.67027
_cell_length_b       8.78821
_cell_length_c       7.15539
_cell_angle_alpha    90
_cell_angle_beta     114.176
_cell_angle_gamma    90

_space_group_name_H-M_alt    "P 1"
_space_group_IT_number       1

loop_
  _space_group_symop_operation_xyz
  'x, y, z'

loop_
  _atom_site_type_symbol
  _atom_site_label
  _atom_site_symmetry_multiplicity
  _atom_site_fract_x
  _atom_site_fract_y
  _atom_site_fract_z
  _atom_site_occupancy
  As  As1       1.0  0.24900  0.93300  0.24800  1.0000
  As  As2       1.0  0.75100  0.43300  0.25200  1.0000
  As  As3       1.0  0.24900  0.56700  0.74800  1.0000
  As  As4       1.0  0.75100  0.06730  0.75200  1.0000
  Na  Na1       1.0  0.24700  0.57600  0.23900  1.0000
  Na  Na2       1.0  0.75300  0.07630  0.26100  1.0000
  Na  Na3       1.0  0.24700  0.92400  0.73900  1.0000
  Na  Na4       1.0  0.75300  0.42400  0.76100  1.0000
  O   O1        1.0  0.05790  0.81600  0.07340  1.0000
  O   O2        1.0  0.56600  0.31200  0.07750  1.0000
  O   O3        1.0  0.36200  0.03780  0.11400  1.0000
  O   O4        1.0  0.85700  0.54100  0.11400  1.0000
  O   O5        1.0  0.25100  0.31500  0.24700  1.0000
  O   O6        1.0  0.74900  0.81500  0.25300  1.0000
  O   O7        1.0  0.14300  0.04130  0.38600  1.0000
  O   O8        1.0  0.63800  0.53800  0.38600  1.0000
  O   O9        1.0  0.43400  0.81200  0.42300  1.0000
  O   O10       1.0  0.94200  0.31600  0.42700  1.0000
  O   O11       1.0  0.05790  0.68400  0.57300  1.0000
  O   O12       1.0  0.56600  0.18800  0.57700  1.0000
  O   O13       1.0  0.36200  0.46200  0.61400  1.0000
  O   O14       1.0  0.85700  0.95900  0.61400  1.0000
  O   O15       1.0  0.25100  0.18500  0.74700  1.0000
  O   O16       1.0  0.74900  0.68500  0.75300  1.0000
  O   O17       1.0  0.14300  0.45900  0.88600  1.0000
  O   O18       1.0  0.63800  0.96200  0.88600  1.0000
  O   O19       1.0  0.43400  0.68800  0.92300  1.0000
  O   O20       1.0  0.94200  0.18400  0.92700  1.0000
  Ti  Ti1       1.0  0.74700  0.75400  0.00943  1.0000
  Ti  Ti2       1.0  0.25300  0.25400  0.49100  1.0000
  Ti  Ti3       1.0  0.74700  0.74600  0.50900  1.0000
  Ti  Ti4       1.0  0.25300  0.24600  0.99100  1.0000
