data_image0
_chemical_formula_structural       Al2B28Lu2
_chemical_formula_sum              "Al2 B28 Lu2"
_cell_length_a       5.89266
_cell_length_b       7.24145
_cell_length_c       7.24145
_cell_angle_alpha    91.8146
_cell_angle_beta     114.008
_cell_angle_gamma    114.008

_space_group_name_H-M_alt    "P 1"
_space_group_IT_number       1

loop_
  _space_group_symop_operation_xyz
  'x, y, z'

loop_
  _atom_site_type_symbol
  _atom_site_label
  _atom_site_symmetry_multiplicity
  _atom_site_fract_x
  _atom_site_fract_y
  _atom_site_fract_z
  _atom_site_occupancy
  Al  Al1       1.0  0.00000  0.50000  0.00000  1.0000
  Al  Al2       1.0  0.50000  0.50000  0.00000  1.0000
  B   B1        1.0  0.37600  0.73200  0.02120  1.0000
  B   B2        1.0  0.20000  0.87200  0.03220  1.0000
  B   B3        1.0  0.70400  0.87200  0.03220  1.0000
  B   B4        1.0  0.16800  0.25800  0.07850  1.0000
  B   B5        1.0  0.03380  0.86600  0.20100  1.0000
  B   B6        1.0  0.32600  0.10100  0.22500  1.0000
  B   B7        1.0  1.00000  0.10100  0.22500  1.0000
  B   B8        1.0  0.37600  0.52100  0.23200  1.0000
  B   B9        1.0  0.83200  0.42100  0.24200  1.0000
  B   B10       1.0  0.03380  0.70100  0.36600  1.0000
  B   B11       1.0  0.20000  0.53200  0.37200  1.0000
  B   B12       1.0  0.70400  0.53200  0.37200  1.0000
  B   B13       1.0  0.00018  0.27500  0.39900  1.0000
  B   B14       1.0  0.67400  0.27500  0.39900  1.0000
  B   B15       1.0  0.32600  0.72500  0.60100  1.0000
  B   B16       1.0  0.00000  0.72500  0.60100  1.0000
  B   B17       1.0  0.29600  0.46800  0.62800  1.0000
  B   B18       1.0  0.80000  0.46800  0.62800  1.0000
  B   B19       1.0  0.96600  0.29900  0.63400  1.0000
  B   B20       1.0  0.16800  0.57900  0.75800  1.0000
  B   B21       1.0  0.62400  0.47900  0.76800  1.0000
  B   B22       1.0  0.00018  0.89900  0.77500  1.0000
  B   B23       1.0  0.67400  0.89900  0.77500  1.0000
  B   B24       1.0  0.96600  0.13400  0.79900  1.0000
  B   B25       1.0  0.83200  0.74200  0.92100  1.0000
  B   B26       1.0  0.29600  0.12800  0.96800  1.0000
  B   B27       1.0  0.80000  0.12800  0.96800  1.0000
  B   B28       1.0  0.62400  0.26800  0.97900  1.0000
  Lu  Lu1       1.0  0.65200  0.90200  0.40200  1.0000
  Lu  Lu2       1.0  0.34800  0.09750  0.59800  1.0000
