data_image0
_chemical_formula_structural       As4Hg12O16
_chemical_formula_sum              "As4 Hg12 O16"
_cell_length_a       8.78388
_cell_length_b       5.13908
_cell_length_c       15.6641
_cell_angle_alpha    90
_cell_angle_beta     128.667
_cell_angle_gamma    90

_space_group_name_H-M_alt    "P 1"
_space_group_IT_number       1

loop_
  _space_group_symop_operation_xyz
  'x, y, z'

loop_
  _atom_site_type_symbol
  _atom_site_label
  _atom_site_symmetry_multiplicity
  _atom_site_fract_x
  _atom_site_fract_y
  _atom_site_fract_z
  _atom_site_occupancy
  As  As1       1.0  0.68300  0.14600  0.22300  1.0000
  As  As2       1.0  0.31700  0.64600  0.27700  1.0000
  As  As3       1.0  0.68300  0.35400  0.72300  1.0000
  As  As4       1.0  0.31700  0.85400  0.77700  1.0000
  Hg  Hg1       1.0  0.35200  0.66000  0.03750  1.0000
  Hg  Hg2       1.0  0.12200  0.14900  0.08330  1.0000
  Hg  Hg3       1.0  0.80700  0.66800  0.12300  1.0000
  Hg  Hg4       1.0  0.19300  0.16800  0.37700  1.0000
  Hg  Hg5       1.0  0.87800  0.64900  0.41700  1.0000
  Hg  Hg6       1.0  0.64800  0.16000  0.46200  1.0000
  Hg  Hg7       1.0  0.35200  0.84000  0.53800  1.0000
  Hg  Hg8       1.0  0.12200  0.35100  0.58300  1.0000
  Hg  Hg9       1.0  0.80700  0.83200  0.62300  1.0000
  Hg  Hg10      1.0  0.19300  0.33200  0.87700  1.0000
  Hg  Hg11      1.0  0.87800  0.85100  0.91700  1.0000
  Hg  Hg12      1.0  0.64800  0.34000  0.96200  1.0000
  O   O1        1.0  0.45200  0.05090  0.11300  1.0000
  O   O2        1.0  0.25400  0.53500  0.15400  1.0000
  O   O3        1.0  0.85700  0.03700  0.21100  1.0000
  O   O4        1.0  0.69100  0.48100  0.22800  1.0000
  O   O5        1.0  0.30900  0.98100  0.27200  1.0000
  O   O6        1.0  0.14300  0.53700  0.28900  1.0000
  O   O7        1.0  0.74600  0.03520  0.34600  1.0000
  O   O8        1.0  0.54800  0.55100  0.38700  1.0000
  O   O9        1.0  0.45200  0.44900  0.61300  1.0000
  O   O10       1.0  0.25400  0.96500  0.65400  1.0000
  O   O11       1.0  0.85700  0.46300  0.71100  1.0000
  O   O12       1.0  0.69100  0.01940  0.72800  1.0000
  O   O13       1.0  0.30900  0.51900  0.77200  1.0000
  O   O14       1.0  0.14300  0.96300  0.78900  1.0000
  O   O15       1.0  0.74600  0.46500  0.84600  1.0000
  O   O16       1.0  0.54800  0.94900  0.88700  1.0000
