data_image0
_chemical_formula_structural       Cu4O20Te8
_chemical_formula_sum              "Cu4 O20 Te8"
_cell_length_a       6.81405
_cell_length_b       9.29941
_cell_length_c       7.44145
_cell_angle_alpha    90
_cell_angle_beta     109.268
_cell_angle_gamma    90

_space_group_name_H-M_alt    "P 1"
_space_group_IT_number       1

loop_
  _space_group_symop_operation_xyz
  'x, y, z'

loop_
  _atom_site_type_symbol
  _atom_site_label
  _atom_site_symmetry_multiplicity
  _atom_site_fract_x
  _atom_site_fract_y
  _atom_site_fract_z
  _atom_site_occupancy
  Cu  Cu1       1.0  0.66100  0.98900  0.20600  1.0000
  Cu  Cu2       1.0  0.33900  0.48900  0.29400  1.0000
  Cu  Cu3       1.0  0.66100  0.51100  0.70600  1.0000
  Cu  Cu4       1.0  0.33900  0.01120  0.79400  1.0000
  O   O1        1.0  0.62500  0.12800  0.00662  1.0000
  O   O2        1.0  0.10600  0.67400  0.04030  1.0000
  O   O3        1.0  0.32100  0.35300  0.08950  1.0000
  O   O4        1.0  0.87100  0.86600  0.15300  1.0000
  O   O5        1.0  0.50900  0.60400  0.18200  1.0000
  O   O6        1.0  0.49100  0.10400  0.31800  1.0000
  O   O7        1.0  0.12900  0.36600  0.34700  1.0000
  O   O8        1.0  0.67900  0.85300  0.41100  1.0000
  O   O9        1.0  0.89400  0.17400  0.46000  1.0000
  O   O10       1.0  0.37500  0.62800  0.49300  1.0000
  O   O11       1.0  0.62500  0.37200  0.50700  1.0000
  O   O12       1.0  0.10600  0.82600  0.54000  1.0000
  O   O13       1.0  0.32100  0.14700  0.58900  1.0000
  O   O14       1.0  0.87100  0.63400  0.65300  1.0000
  O   O15       1.0  0.50900  0.89600  0.68200  1.0000
  O   O16       1.0  0.49100  0.39600  0.81800  1.0000
  O   O17       1.0  0.12900  0.13400  0.84700  1.0000
  O   O18       1.0  0.67900  0.64700  0.91100  1.0000
  O   O19       1.0  0.89400  0.32600  0.96000  1.0000
  O   O20       1.0  0.37500  0.87200  0.99300  1.0000
  Te  Te1       1.0  0.65000  0.32700  0.06500  1.0000
  Te  Te2       1.0  0.12900  0.20300  0.09450  1.0000
  Te  Te3       1.0  0.87100  0.70300  0.40500  1.0000
  Te  Te4       1.0  0.35000  0.82700  0.43500  1.0000
  Te  Te5       1.0  0.65000  0.17300  0.56500  1.0000
  Te  Te6       1.0  0.12900  0.29700  0.59500  1.0000
  Te  Te7       1.0  0.87100  0.79700  0.90500  1.0000
  Te  Te8       1.0  0.35000  0.67300  0.93500  1.0000
