data_image0
_chemical_formula_structural       Er12Ga20
_chemical_formula_sum              "Er12 Ga20"
_cell_length_a       11.369
_cell_length_b       9.60633
_cell_length_c       6.04807
_cell_angle_alpha    90
_cell_angle_beta     90
_cell_angle_gamma    90

_space_group_name_H-M_alt    "P 1"
_space_group_IT_number       1

loop_
  _space_group_symop_operation_xyz
  'x, y, z'

loop_
  _atom_site_type_symbol
  _atom_site_label
  _atom_site_symmetry_multiplicity
  _atom_site_fract_x
  _atom_site_fract_y
  _atom_site_fract_z
  _atom_site_occupancy
  Er  Er1       1.0  0.35200  0.00941  0.11000  1.0000
  Er  Er2       1.0  0.35200  0.49100  0.11000  1.0000
  Er  Er3       1.0  0.07370  0.25000  0.15200  1.0000
  Er  Er4       1.0  0.57400  0.25000  0.34800  1.0000
  Er  Er5       1.0  0.85200  0.00941  0.39000  1.0000
  Er  Er6       1.0  0.85200  0.49100  0.39000  1.0000
  Er  Er7       1.0  0.14800  0.50900  0.61000  1.0000
  Er  Er8       1.0  0.14800  0.99100  0.61000  1.0000
  Er  Er9       1.0  0.42600  0.75000  0.65200  1.0000
  Er  Er10      1.0  0.92600  0.75000  0.84800  1.0000
  Er  Er11      1.0  0.64800  0.50900  0.89000  1.0000
  Er  Er12      1.0  0.64800  0.99100  0.89000  1.0000
  Ga  Ga1       1.0  0.79900  0.25000  0.10400  1.0000
  Ga  Ga2       1.0  0.09090  0.55200  0.12500  1.0000
  Ga  Ga3       1.0  0.09090  0.94800  0.12500  1.0000
  Ga  Ga4       1.0  0.49500  0.75000  0.12700  1.0000
  Ga  Ga5       1.0  0.74800  0.75000  0.17300  1.0000
  Ga  Ga6       1.0  0.24800  0.75000  0.32700  1.0000
  Ga  Ga7       1.0  0.99500  0.75000  0.37300  1.0000
  Ga  Ga8       1.0  0.59100  0.55200  0.37500  1.0000
  Ga  Ga9       1.0  0.59100  0.94800  0.37500  1.0000
  Ga  Ga10      1.0  0.29900  0.25000  0.39600  1.0000
  Ga  Ga11      1.0  0.70100  0.75000  0.60400  1.0000
  Ga  Ga12      1.0  0.40900  0.05240  0.62500  1.0000
  Ga  Ga13      1.0  0.40900  0.44800  0.62500  1.0000
  Ga  Ga14      1.0  0.00533  0.25000  0.62700  1.0000
  Ga  Ga15      1.0  0.75200  0.25000  0.67300  1.0000
  Ga  Ga16      1.0  0.25200  0.25000  0.82700  1.0000
  Ga  Ga17      1.0  0.50500  0.25000  0.87300  1.0000
  Ga  Ga18      1.0  0.90900  0.05240  0.87500  1.0000
  Ga  Ga19      1.0  0.90900  0.44800  0.87500  1.0000
  Ga  Ga20      1.0  0.20100  0.75000  0.89600  1.0000
