data_image0
_chemical_formula_structural       As12Ti20
_chemical_formula_sum              "As12 Ti20"
_cell_length_a       9.80898
_cell_length_b       7.77784
_cell_length_c       6.74124
_cell_angle_alpha    90
_cell_angle_beta     90
_cell_angle_gamma    90

_space_group_name_H-M_alt    "P 1"
_space_group_IT_number       1

loop_
  _space_group_symop_operation_xyz
  'x, y, z'

loop_
  _atom_site_type_symbol
  _atom_site_label
  _atom_site_symmetry_multiplicity
  _atom_site_fract_x
  _atom_site_fract_y
  _atom_site_fract_z
  _atom_site_occupancy
  As  As1       1.0  0.32500  0.00966  0.07110  1.0000
  As  As2       1.0  0.32500  0.49000  0.07110  1.0000
  As  As3       1.0  0.02000  0.75000  0.08560  1.0000
  As  As4       1.0  0.52000  0.75000  0.41400  1.0000
  As  As5       1.0  0.82500  0.00966  0.42900  1.0000
  As  As6       1.0  0.82500  0.49000  0.42900  1.0000
  As  As7       1.0  0.17500  0.51000  0.57100  1.0000
  As  As8       1.0  0.17500  0.99000  0.57100  1.0000
  As  As9       1.0  0.48000  0.25000  0.58600  1.0000
  As  As10      1.0  0.98000  0.25000  0.91400  1.0000
  As  As11      1.0  0.67500  0.51000  0.92900  1.0000
  As  As12      1.0  0.67500  0.99000  0.92900  1.0000
  Ti  Ti1       1.0  0.49800  0.75000  0.02730  1.0000
  Ti  Ti2       1.0  0.78900  0.25000  0.16000  1.0000
  Ti  Ti3       1.0  0.76900  0.75000  0.17100  1.0000
  Ti  Ti4       1.0  0.06010  0.05310  0.19900  1.0000
  Ti  Ti5       1.0  0.06010  0.44700  0.19900  1.0000
  Ti  Ti6       1.0  0.56000  0.05310  0.30100  1.0000
  Ti  Ti7       1.0  0.56000  0.44700  0.30100  1.0000
  Ti  Ti8       1.0  0.26900  0.75000  0.32900  1.0000
  Ti  Ti9       1.0  0.28900  0.25000  0.34000  1.0000
  Ti  Ti10      1.0  0.99800  0.75000  0.47300  1.0000
  Ti  Ti11      1.0  0.00245  0.25000  0.52700  1.0000
  Ti  Ti12      1.0  0.71100  0.75000  0.66000  1.0000
  Ti  Ti13      1.0  0.73100  0.25000  0.67100  1.0000
  Ti  Ti14      1.0  0.44000  0.55300  0.69900  1.0000
  Ti  Ti15      1.0  0.44000  0.94700  0.69900  1.0000
  Ti  Ti16      1.0  0.94000  0.55300  0.80100  1.0000
  Ti  Ti17      1.0  0.94000  0.94700  0.80100  1.0000
  Ti  Ti18      1.0  0.23100  0.25000  0.82900  1.0000
  Ti  Ti19      1.0  0.21100  0.75000  0.84000  1.0000
  Ti  Ti20      1.0  0.50200  0.25000  0.97300  1.0000
