data_image0
_chemical_formula_structural       Ba8Ca4N16W4
_chemical_formula_sum              "Ba8 Ca4 N16 W4"
_cell_length_a       8.12861
_cell_length_b       8.12861
_cell_length_c       10.5035
_cell_angle_alpha    110.38
_cell_angle_beta     110.38
_cell_angle_gamma    95.7401

_space_group_name_H-M_alt    "P 1"
_space_group_IT_number       1

loop_
  _space_group_symop_operation_xyz
  'x, y, z'

loop_
  _atom_site_type_symbol
  _atom_site_label
  _atom_site_symmetry_multiplicity
  _atom_site_fract_x
  _atom_site_fract_y
  _atom_site_fract_z
  _atom_site_occupancy
  Ba  Ba1       1.0  0.51400  0.76400  0.02730  1.0000
  Ba  Ba2       1.0  0.94600  0.19600  0.25000  1.0000
  Ba  Ba3       1.0  0.30400  0.55400  0.25000  1.0000
  Ba  Ba4       1.0  0.73600  0.98600  0.47300  1.0000
  Ba  Ba5       1.0  0.26400  0.01360  0.52700  1.0000
  Ba  Ba6       1.0  0.69600  0.44600  0.75000  1.0000
  Ba  Ba7       1.0  0.05410  0.80400  0.75000  1.0000
  Ba  Ba8       1.0  0.48600  0.23600  0.97300  1.0000
  Ca  Ca1       1.0  0.03660  0.78700  0.07310  1.0000
  Ca  Ca2       1.0  0.71300  0.46300  0.42700  1.0000
  Ca  Ca3       1.0  0.28700  0.53700  0.57300  1.0000
  Ca  Ca4       1.0  0.96300  0.21300  0.92700  1.0000
  N   N1        1.0  0.19700  0.11400  0.07960  1.0000
  N   N2        1.0  0.88300  0.46500  0.07960  1.0000
  N   N3        1.0  0.60600  0.15800  0.23400  1.0000
  N   N4        1.0  0.62800  0.57600  0.23400  1.0000
  N   N5        1.0  0.92400  0.87200  0.26600  1.0000
  N   N6        1.0  0.34200  0.89400  0.26600  1.0000
  N   N7        1.0  0.38600  0.30300  0.42000  1.0000
  N   N8        1.0  0.03450  0.61700  0.42000  1.0000
  N   N9        1.0  0.96500  0.38300  0.58000  1.0000
  N   N10       1.0  0.61400  0.69700  0.58000  1.0000
  N   N11       1.0  0.65800  0.10600  0.73400  1.0000
  N   N12       1.0  0.07600  0.12800  0.73400  1.0000
  N   N13       1.0  0.37200  0.42400  0.76600  1.0000
  N   N14       1.0  0.39400  0.84200  0.76600  1.0000
  N   N15       1.0  0.11700  0.53500  0.92000  1.0000
  N   N16       1.0  0.80300  0.88600  0.92000  1.0000
  W   W1        1.0  0.38200  0.11800  0.25000  1.0000
  W   W2        1.0  0.86800  0.63200  0.25000  1.0000
  W   W3        1.0  0.13200  0.36800  0.75000  1.0000
  W   W4        1.0  0.61800  0.88200  0.75000  1.0000
