data_image0
_chemical_formula_structural       Ba8Cd8K4Sb12
_chemical_formula_sum              "Ba8 Cd8 K4 Sb12"
_cell_length_a       13.2503
_cell_length_b       4.99242
_cell_length_c       16.907
_cell_angle_alpha    90
_cell_angle_beta     90
_cell_angle_gamma    90

_space_group_name_H-M_alt    "P 1"
_space_group_IT_number       1

loop_
  _space_group_symop_operation_xyz
  'x, y, z'

loop_
  _atom_site_type_symbol
  _atom_site_label
  _atom_site_symmetry_multiplicity
  _atom_site_fract_x
  _atom_site_fract_y
  _atom_site_fract_z
  _atom_site_occupancy
  Ba  Ba1       1.0  0.60000  0.25000  0.07160  1.0000
  Ba  Ba2       1.0  0.87200  0.25000  0.21100  1.0000
  Ba  Ba3       1.0  0.37200  0.25000  0.28900  1.0000
  Ba  Ba4       1.0  0.10000  0.25000  0.42800  1.0000
  Ba  Ba5       1.0  0.90000  0.75000  0.57200  1.0000
  Ba  Ba6       1.0  0.62800  0.75000  0.71100  1.0000
  Ba  Ba7       1.0  0.12800  0.75000  0.78900  1.0000
  Ba  Ba8       1.0  0.40000  0.75000  0.92800  1.0000
  Cd  Cd1       1.0  0.30500  0.25000  0.08350  1.0000
  Cd  Cd2       1.0  0.63500  0.75000  0.21700  1.0000
  Cd  Cd3       1.0  0.13500  0.75000  0.28300  1.0000
  Cd  Cd4       1.0  0.80500  0.25000  0.41600  1.0000
  Cd  Cd5       1.0  0.19500  0.75000  0.58400  1.0000
  Cd  Cd6       1.0  0.86500  0.25000  0.71700  1.0000
  Cd  Cd7       1.0  0.36500  0.25000  0.78300  1.0000
  Cd  Cd8       1.0  0.69500  0.75000  0.91600  1.0000
  K   K1        1.0  0.10000  0.75000  0.05370  1.0000
  K   K2        1.0  0.60000  0.75000  0.44600  1.0000
  K   K3        1.0  0.40000  0.25000  0.55400  1.0000
  K   K4        1.0  0.90000  0.25000  0.94600  1.0000
  Sb  Sb1       1.0  0.78800  0.75000  0.07550  1.0000
  Sb  Sb2       1.0  0.42200  0.75000  0.13500  1.0000
  Sb  Sb3       1.0  0.13400  0.25000  0.19600  1.0000
  Sb  Sb4       1.0  0.63400  0.25000  0.30400  1.0000
  Sb  Sb5       1.0  0.92200  0.75000  0.36500  1.0000
  Sb  Sb6       1.0  0.28800  0.75000  0.42400  1.0000
  Sb  Sb7       1.0  0.71200  0.25000  0.57600  1.0000
  Sb  Sb8       1.0  0.07850  0.25000  0.63500  1.0000
  Sb  Sb9       1.0  0.36600  0.75000  0.69600  1.0000
  Sb  Sb10      1.0  0.86600  0.75000  0.80400  1.0000
  Sb  Sb11      1.0  0.57800  0.25000  0.86500  1.0000
  Sb  Sb12      1.0  0.21200  0.25000  0.92400  1.0000
