data_image0
_chemical_formula_structural       Li4Nb4Rb8S16
_chemical_formula_sum              "Li4 Nb4 Rb8 S16"
_cell_length_a       7.09389
_cell_length_b       11.4778
_cell_length_c       11.961
_cell_angle_alpha    71.5402
_cell_angle_beta     87.7522
_cell_angle_gamma    83.8065

_space_group_name_H-M_alt    "P 1"
_space_group_IT_number       1

loop_
  _space_group_symop_operation_xyz
  'x, y, z'

loop_
  _atom_site_type_symbol
  _atom_site_label
  _atom_site_symmetry_multiplicity
  _atom_site_fract_x
  _atom_site_fract_y
  _atom_site_fract_z
  _atom_site_occupancy
  Li  Li1       1.0  0.77700  0.47800  0.07090  1.0000
  Li  Li2       1.0  0.17800  0.01090  0.41600  1.0000
  Li  Li3       1.0  0.82200  0.98900  0.58400  1.0000
  Li  Li4       1.0  0.22300  0.52200  0.92900  1.0000
  Nb  Nb1       1.0  0.21800  0.23100  0.01450  1.0000
  Nb  Nb2       1.0  0.77600  0.27300  0.48600  1.0000
  Nb  Nb3       1.0  0.22400  0.72700  0.51400  1.0000
  Nb  Nb4       1.0  0.78200  0.76900  0.98600  1.0000
  Rb  Rb1       1.0  0.24800  0.84500  0.14400  1.0000
  Rb  Rb2       1.0  0.68400  0.09770  0.25000  1.0000
  Rb  Rb3       1.0  0.26400  0.37600  0.27700  1.0000
  Rb  Rb4       1.0  0.75100  0.65000  0.34900  1.0000
  Rb  Rb5       1.0  0.24900  0.35000  0.65100  1.0000
  Rb  Rb6       1.0  0.73600  0.62400  0.72300  1.0000
  Rb  Rb7       1.0  0.31600  0.90200  0.75000  1.0000
  Rb  Rb8       1.0  0.75200  0.15500  0.85600  1.0000
  S   S1        1.0  0.47200  0.34100  0.00529  1.0000
  S   S2        1.0  0.03330  0.62500  0.06000  1.0000
  S   S3        1.0  0.73200  0.89600  0.09950  1.0000
  S   S4        1.0  0.17000  0.11700  0.20600  1.0000
  S   S5        1.0  0.76200  0.38000  0.28800  1.0000
  S   S6        1.0  0.25300  0.59900  0.40200  1.0000
  S   S7        1.0  0.94500  0.85400  0.46700  1.0000
  S   S8        1.0  0.45700  0.85700  0.46800  1.0000
  S   S9        1.0  0.54300  0.14300  0.53200  1.0000
  S   S10       1.0  0.05520  0.14600  0.53300  1.0000
  S   S11       1.0  0.74700  0.40100  0.59800  1.0000
  S   S12       1.0  0.23800  0.62000  0.71200  1.0000
  S   S13       1.0  0.83000  0.88300  0.79400  1.0000
  S   S14       1.0  0.26800  0.10400  0.90100  1.0000
  S   S15       1.0  0.96700  0.37500  0.94000  1.0000
  S   S16       1.0  0.52800  0.65900  0.99500  1.0000
