data_image0
_chemical_formula_structural       K6O20S4V2
_chemical_formula_sum              "K6 O20 S4 V2"
_cell_length_a       9.86571
_cell_length_b       7.12426
_cell_length_c       7.25542
_cell_angle_alpha    90
_cell_angle_beta     104.864
_cell_angle_gamma    90

_space_group_name_H-M_alt    "P 1"
_space_group_IT_number       1

loop_
  _space_group_symop_operation_xyz
  'x, y, z'

loop_
  _atom_site_type_symbol
  _atom_site_label
  _atom_site_symmetry_multiplicity
  _atom_site_fract_x
  _atom_site_fract_y
  _atom_site_fract_z
  _atom_site_occupancy
  K   K1        1.0  0.73000  0.35000  0.01040  1.0000
  K   K2        1.0  0.95200  0.91600  0.29000  1.0000
  K   K3        1.0  0.58700  0.61400  0.41700  1.0000
  K   K4        1.0  0.41300  0.11400  0.58300  1.0000
  K   K5        1.0  0.04800  0.41600  0.71000  1.0000
  K   K6        1.0  0.27000  0.85000  0.99000  1.0000
  O   O1        1.0  0.25600  0.48300  0.05370  1.0000
  O   O2        1.0  0.00419  0.30500  0.07200  1.0000
  O   O3        1.0  0.49500  0.35400  0.12000  1.0000
  O   O4        1.0  0.69100  0.72300  0.13900  1.0000
  O   O5        1.0  0.29700  0.18300  0.19000  1.0000
  O   O6        1.0  0.11100  0.59400  0.32500  1.0000
  O   O7        1.0  0.78000  0.20900  0.35700  1.0000
  O   O8        1.0  0.31300  0.80900  0.37800  1.0000
  O   O9        1.0  0.12600  0.20600  0.42600  1.0000
  O   O10       1.0  0.34000  0.48200  0.48000  1.0000
  O   O11       1.0  0.66000  0.98200  0.52000  1.0000
  O   O12       1.0  0.87400  0.70600  0.57400  1.0000
  O   O13       1.0  0.68700  0.30900  0.62200  1.0000
  O   O14       1.0  0.22000  0.70900  0.64300  1.0000
  O   O15       1.0  0.88900  0.09450  0.67500  1.0000
  O   O16       1.0  0.70300  0.68300  0.81000  1.0000
  O   O17       1.0  0.30900  0.22300  0.86100  1.0000
  O   O18       1.0  0.50500  0.85400  0.88000  1.0000
  O   O19       1.0  0.99600  0.80500  0.92800  1.0000
  O   O20       1.0  0.74400  0.98300  0.94600  1.0000
  S   S1        1.0  0.34600  0.31400  0.04810  1.0000
  S   S2        1.0  0.25300  0.65500  0.46600  1.0000
  S   S3        1.0  0.74700  0.15500  0.53400  1.0000
  S   S4        1.0  0.65400  0.81400  0.95200  1.0000
  V   V1        1.0  0.14500  0.34100  0.24700  1.0000
  V   V2        1.0  0.85500  0.84100  0.75300  1.0000
