data_image0
_chemical_formula_structural       H20N4O8
_chemical_formula_sum              "H20 N4 O8"
_cell_length_a       6.10395
_cell_length_b       6.47547
_cell_length_c       5.94218
_cell_angle_alpha    90
_cell_angle_beta     116.063
_cell_angle_gamma    90

_space_group_name_H-M_alt    "P 1"
_space_group_IT_number       1

loop_
  _space_group_symop_operation_xyz
  'x, y, z'

loop_
  _atom_site_type_symbol
  _atom_site_label
  _atom_site_symmetry_multiplicity
  _atom_site_fract_x
  _atom_site_fract_y
  _atom_site_fract_z
  _atom_site_occupancy
  H   H1        1.0  0.78700  0.46900  0.12600  1.0000
  H   H2        1.0  0.28900  0.97500  0.13300  1.0000
  H   H3        1.0  0.59100  0.28300  0.14200  1.0000
  H   H4        1.0  0.10000  0.78200  0.14500  1.0000
  H   H5        1.0  0.24500  0.32500  0.24700  1.0000
  H   H6        1.0  0.75500  0.82500  0.25300  1.0000
  H   H7        1.0  0.90000  0.28200  0.35500  1.0000
  H   H8        1.0  0.40900  0.78300  0.35800  1.0000
  H   H9        1.0  0.71100  0.47500  0.36700  1.0000
  H   H10       1.0  0.21300  0.96900  0.37400  1.0000
  H   H11       1.0  0.78700  0.03120  0.62600  1.0000
  H   H12       1.0  0.28900  0.52500  0.63300  1.0000
  H   H13       1.0  0.59100  0.21700  0.64200  1.0000
  H   H14       1.0  0.10000  0.71800  0.64500  1.0000
  H   H15       1.0  0.24500  0.17500  0.74700  1.0000
  H   H16       1.0  0.75500  0.67500  0.75300  1.0000
  H   H17       1.0  0.90000  0.21800  0.85500  1.0000
  H   H18       1.0  0.40900  0.71700  0.85800  1.0000
  H   H19       1.0  0.71100  0.02530  0.86700  1.0000
  H   H20       1.0  0.21300  0.53100  0.87400  1.0000
  N   N1        1.0  0.74700  0.37300  0.24700  1.0000
  N   N2        1.0  0.25300  0.87300  0.25300  1.0000
  N   N3        1.0  0.74700  0.12700  0.74700  1.0000
  N   N4        1.0  0.25300  0.62700  0.75300  1.0000
  O   O1        1.0  0.67800  0.82600  0.02390  1.0000
  O   O2        1.0  0.17100  0.32900  0.02680  1.0000
  O   O3        1.0  0.82900  0.82900  0.47300  1.0000
  O   O4        1.0  0.32200  0.32600  0.47600  1.0000
  O   O5        1.0  0.67800  0.67400  0.52400  1.0000
  O   O6        1.0  0.17100  0.17100  0.52700  1.0000
  O   O7        1.0  0.82900  0.67100  0.97300  1.0000
  O   O8        1.0  0.32200  0.17400  0.97600  1.0000
