data_image0
_chemical_formula_structural       Cd8K4Sb12Yb8
_chemical_formula_sum              "Cd8 K4 Sb12 Yb8"
_cell_length_a       12.3552
_cell_length_b       4.78832
_cell_length_c       15.9281
_cell_angle_alpha    90
_cell_angle_beta     90
_cell_angle_gamma    90

_space_group_name_H-M_alt    "P 1"
_space_group_IT_number       1

loop_
  _space_group_symop_operation_xyz
  'x, y, z'

loop_
  _atom_site_type_symbol
  _atom_site_label
  _atom_site_symmetry_multiplicity
  _atom_site_fract_x
  _atom_site_fract_y
  _atom_site_fract_z
  _atom_site_occupancy
  Cd  Cd1       1.0  0.30000  0.25000  0.07110  1.0000
  Cd  Cd2       1.0  0.62300  0.75000  0.22200  1.0000
  Cd  Cd3       1.0  0.12300  0.75000  0.27800  1.0000
  Cd  Cd4       1.0  0.80000  0.25000  0.42900  1.0000
  Cd  Cd5       1.0  0.20000  0.75000  0.57100  1.0000
  Cd  Cd6       1.0  0.87700  0.25000  0.72200  1.0000
  Cd  Cd7       1.0  0.37700  0.25000  0.77800  1.0000
  Cd  Cd8       1.0  0.70000  0.75000  0.92900  1.0000
  K   K1        1.0  0.09080  0.75000  0.03690  1.0000
  K   K2        1.0  0.59100  0.75000  0.46300  1.0000
  K   K3        1.0  0.40900  0.25000  0.53700  1.0000
  K   K4        1.0  0.90900  0.25000  0.96300  1.0000
  Sb  Sb1       1.0  0.79100  0.75000  0.09520  1.0000
  Sb  Sb2       1.0  0.41800  0.75000  0.12400  1.0000
  Sb  Sb3       1.0  0.10900  0.25000  0.18600  1.0000
  Sb  Sb4       1.0  0.60900  0.25000  0.31400  1.0000
  Sb  Sb5       1.0  0.91800  0.75000  0.37600  1.0000
  Sb  Sb6       1.0  0.29100  0.75000  0.40500  1.0000
  Sb  Sb7       1.0  0.70900  0.25000  0.59500  1.0000
  Sb  Sb8       1.0  0.08160  0.25000  0.62400  1.0000
  Sb  Sb9       1.0  0.39100  0.75000  0.68600  1.0000
  Sb  Sb10      1.0  0.89100  0.75000  0.81400  1.0000
  Sb  Sb11      1.0  0.58200  0.25000  0.87600  1.0000
  Sb  Sb12      1.0  0.20900  0.25000  0.90500  1.0000
  Yb  Yb1       1.0  0.60100  0.25000  0.07950  1.0000
  Yb  Yb2       1.0  0.85400  0.25000  0.22600  1.0000
  Yb  Yb3       1.0  0.35400  0.25000  0.27400  1.0000
  Yb  Yb4       1.0  0.10100  0.25000  0.42000  1.0000
  Yb  Yb5       1.0  0.89900  0.75000  0.58000  1.0000
  Yb  Yb6       1.0  0.64600  0.75000  0.72600  1.0000
  Yb  Yb7       1.0  0.14600  0.75000  0.77400  1.0000
  Yb  Yb8       1.0  0.39900  0.75000  0.92000  1.0000
