data_image0
_chemical_formula_structural       Cd8K4Sb12Sr8
_chemical_formula_sum              "Cd8 K4 Sb12 Sr8"
_cell_length_a       12.7824
_cell_length_b       4.87994
_cell_length_c       16.486
_cell_angle_alpha    90
_cell_angle_beta     90
_cell_angle_gamma    90

_space_group_name_H-M_alt    "P 1"
_space_group_IT_number       1

loop_
  _space_group_symop_operation_xyz
  'x, y, z'

loop_
  _atom_site_type_symbol
  _atom_site_label
  _atom_site_symmetry_multiplicity
  _atom_site_fract_x
  _atom_site_fract_y
  _atom_site_fract_z
  _atom_site_occupancy
  Cd  Cd1       1.0  0.30200  0.25000  0.07770  1.0000
  Cd  Cd2       1.0  0.63200  0.75000  0.21800  1.0000
  Cd  Cd3       1.0  0.13200  0.75000  0.28200  1.0000
  Cd  Cd4       1.0  0.80200  0.25000  0.42200  1.0000
  Cd  Cd5       1.0  0.19800  0.75000  0.57800  1.0000
  Cd  Cd6       1.0  0.86800  0.25000  0.71800  1.0000
  Cd  Cd7       1.0  0.36800  0.25000  0.78200  1.0000
  Cd  Cd8       1.0  0.69800  0.75000  0.92200  1.0000
  K   K1        1.0  0.09260  0.75000  0.04850  1.0000
  K   K2        1.0  0.59300  0.75000  0.45200  1.0000
  K   K3        1.0  0.40700  0.25000  0.54800  1.0000
  K   K4        1.0  0.90700  0.25000  0.95200  1.0000
  Sb  Sb1       1.0  0.79200  0.75000  0.08370  1.0000
  Sb  Sb2       1.0  0.42100  0.75000  0.13000  1.0000
  Sb  Sb3       1.0  0.12400  0.25000  0.19300  1.0000
  Sb  Sb4       1.0  0.62400  0.25000  0.30700  1.0000
  Sb  Sb5       1.0  0.92100  0.75000  0.37000  1.0000
  Sb  Sb6       1.0  0.29200  0.75000  0.41600  1.0000
  Sb  Sb7       1.0  0.70800  0.25000  0.58400  1.0000
  Sb  Sb8       1.0  0.07890  0.25000  0.63000  1.0000
  Sb  Sb9       1.0  0.37600  0.75000  0.69300  1.0000
  Sb  Sb10      1.0  0.87600  0.75000  0.80700  1.0000
  Sb  Sb11      1.0  0.57900  0.25000  0.87000  1.0000
  Sb  Sb12      1.0  0.20800  0.25000  0.91600  1.0000
  Sr  Sr1       1.0  0.60200  0.25000  0.07410  1.0000
  Sr  Sr2       1.0  0.86500  0.25000  0.21800  1.0000
  Sr  Sr3       1.0  0.36500  0.25000  0.28200  1.0000
  Sr  Sr4       1.0  0.10200  0.25000  0.42600  1.0000
  Sr  Sr5       1.0  0.89800  0.75000  0.57400  1.0000
  Sr  Sr6       1.0  0.63500  0.75000  0.71800  1.0000
  Sr  Sr7       1.0  0.13500  0.75000  0.78200  1.0000
  Sr  Sr8       1.0  0.39800  0.75000  0.92600  1.0000
