data_image0
_chemical_formula_structural       Cl22P2W8
_chemical_formula_sum              "Cl22 P2 W8"
_cell_length_a       8.3501
_cell_length_b       8.3501
_cell_length_c       11.4417
_cell_angle_alpha    90.831
_cell_angle_beta     90.831
_cell_angle_gamma    73.1882

_space_group_name_H-M_alt    "P 1"
_space_group_IT_number       1

loop_
  _space_group_symop_operation_xyz
  'x, y, z'

loop_
  _atom_site_type_symbol
  _atom_site_label
  _atom_site_symmetry_multiplicity
  _atom_site_fract_x
  _atom_site_fract_y
  _atom_site_fract_z
  _atom_site_occupancy
  Cl  Cl1       1.0  0.87500  0.87500  0.00973  1.0000
  Cl  Cl2       1.0  0.81500  0.47400  0.01150  1.0000
  Cl  Cl3       1.0  0.47400  0.81500  0.01150  1.0000
  Cl  Cl4       1.0  0.92100  0.23400  0.24600  1.0000
  Cl  Cl5       1.0  0.23400  0.92100  0.24600  1.0000
  Cl  Cl6       1.0  0.98600  0.61000  0.25100  1.0000
  Cl  Cl7       1.0  0.61000  0.98600  0.25100  1.0000
  Cl  Cl8       1.0  0.48100  0.48100  0.25400  1.0000
  Cl  Cl9       1.0  0.81500  0.47400  0.48400  1.0000
  Cl  Cl10      1.0  0.47400  0.81500  0.48400  1.0000
  Cl  Cl11      1.0  0.87500  0.87500  0.49600  1.0000
  Cl  Cl12      1.0  0.12500  0.12500  0.50400  1.0000
  Cl  Cl13      1.0  0.52600  0.18500  0.51600  1.0000
  Cl  Cl14      1.0  0.18500  0.52600  0.51600  1.0000
  Cl  Cl15      1.0  0.51900  0.51900  0.74600  1.0000
  Cl  Cl16      1.0  0.39000  0.01360  0.74900  1.0000
  Cl  Cl17      1.0  0.01360  0.39000  0.74900  1.0000
  Cl  Cl18      1.0  0.76600  0.07870  0.75400  1.0000
  Cl  Cl19      1.0  0.07870  0.76600  0.75400  1.0000
  Cl  Cl20      1.0  0.52600  0.18500  0.98900  1.0000
  Cl  Cl21      1.0  0.18500  0.52600  0.98900  1.0000
  Cl  Cl22      1.0  0.12500  0.12500  0.99000  1.0000
  P   P1        1.0  0.32900  0.32900  0.25100  1.0000
  P   P2        1.0  0.67100  0.67100  0.74900  1.0000
  W   W1        1.0  0.35500  0.09240  0.12700  1.0000
  W   W2        1.0  0.09240  0.35500  0.12700  1.0000
  W   W3        1.0  0.35500  0.09250  0.37200  1.0000
  W   W4        1.0  0.09250  0.35500  0.37200  1.0000
  W   W5        1.0  0.90700  0.64500  0.62800  1.0000
  W   W6        1.0  0.64500  0.90700  0.62800  1.0000
  W   W7        1.0  0.90800  0.64500  0.87300  1.0000
  W   W8        1.0  0.64500  0.90800  0.87300  1.0000
