data_image0
_chemical_formula_structural       Ba4Se20U8
_chemical_formula_sum              "Ba4 Se20 U8"
_cell_length_a       13.2177
_cell_length_b       8.30108
_cell_length_c       7.88002
_cell_angle_alpha    90
_cell_angle_beta     90
_cell_angle_gamma    90

_space_group_name_H-M_alt    "P 1"
_space_group_IT_number       1

loop_
  _space_group_symop_operation_xyz
  'x, y, z'

loop_
  _atom_site_type_symbol
  _atom_site_label
  _atom_site_symmetry_multiplicity
  _atom_site_fract_x
  _atom_site_fract_y
  _atom_site_fract_z
  _atom_site_occupancy
  Ba  Ba1       1.0  0.50600  0.75000  0.08790  1.0000
  Ba  Ba2       1.0  0.00584  0.75000  0.41200  1.0000
  Ba  Ba3       1.0  0.99400  0.25000  0.58800  1.0000
  Ba  Ba4       1.0  0.49400  0.25000  0.91200  1.0000
  Se  Se1       1.0  0.00353  0.75000  0.00890  1.0000
  Se  Se2       1.0  0.62800  0.05280  0.16600  1.0000
  Se  Se3       1.0  0.62800  0.44700  0.16600  1.0000
  Se  Se4       1.0  0.31400  0.25000  0.18200  1.0000
  Se  Se5       1.0  0.27800  0.75000  0.21900  1.0000
  Se  Se6       1.0  0.77800  0.75000  0.28100  1.0000
  Se  Se7       1.0  0.81400  0.25000  0.31800  1.0000
  Se  Se8       1.0  0.12800  0.05280  0.33400  1.0000
  Se  Se9       1.0  0.12800  0.44700  0.33400  1.0000
  Se  Se10      1.0  0.50400  0.75000  0.49100  1.0000
  Se  Se11      1.0  0.49600  0.25000  0.50900  1.0000
  Se  Se12      1.0  0.87200  0.55300  0.66600  1.0000
  Se  Se13      1.0  0.87200  0.94700  0.66600  1.0000
  Se  Se14      1.0  0.18600  0.75000  0.68200  1.0000
  Se  Se15      1.0  0.22200  0.25000  0.71900  1.0000
  Se  Se16      1.0  0.72200  0.25000  0.78100  1.0000
  Se  Se17      1.0  0.68600  0.75000  0.81800  1.0000
  Se  Se18      1.0  0.37200  0.55300  0.83400  1.0000
  Se  Se19      1.0  0.37200  0.94700  0.83400  1.0000
  Se  Se20      1.0  0.99600  0.25000  0.99100  1.0000
  U   U1        1.0  0.81700  0.50000  0.00268  1.0000
  U   U2        1.0  0.81700  0.00000  0.00268  1.0000
  U   U3        1.0  0.31700  0.50000  0.49700  1.0000
  U   U4        1.0  0.31700  0.00000  0.49700  1.0000
  U   U5        1.0  0.68300  0.00048  0.50300  1.0000
  U   U6        1.0  0.68300  0.50000  0.50300  1.0000
  U   U7        1.0  0.18300  0.00048  0.99700  1.0000
  U   U8        1.0  0.18300  0.50000  0.99700  1.0000
