data_image0
_chemical_formula_structural       Bi12Y20
_chemical_formula_sum              "Bi12 Y20"
_cell_length_a       8.23993
_cell_length_b       9.5006
_cell_length_c       12.0281
_cell_angle_alpha    90
_cell_angle_beta     90
_cell_angle_gamma    90

_space_group_name_H-M_alt    "P 1"
_space_group_IT_number       1

loop_
  _space_group_symop_operation_xyz
  'x, y, z'

loop_
  _atom_site_type_symbol
  _atom_site_label
  _atom_site_symmetry_multiplicity
  _atom_site_fract_x
  _atom_site_fract_y
  _atom_site_fract_z
  _atom_site_occupancy
  Bi  Bi1       1.0  0.59000  0.25000  0.04230  1.0000
  Bi  Bi2       1.0  0.06610  0.50400  0.17400  1.0000
  Bi  Bi3       1.0  0.06610  0.99600  0.17400  1.0000
  Bi  Bi4       1.0  0.56600  0.50400  0.32600  1.0000
  Bi  Bi5       1.0  0.56600  0.99600  0.32600  1.0000
  Bi  Bi6       1.0  0.08960  0.25000  0.45800  1.0000
  Bi  Bi7       1.0  0.91000  0.75000  0.54200  1.0000
  Bi  Bi8       1.0  0.43400  0.00403  0.67400  1.0000
  Bi  Bi9       1.0  0.43400  0.49600  0.67400  1.0000
  Bi  Bi10      1.0  0.93400  0.00403  0.82600  1.0000
  Bi  Bi11      1.0  0.93400  0.49600  0.82600  1.0000
  Bi  Bi12      1.0  0.41000  0.75000  0.95800  1.0000
  Y   Y1        1.0  0.97400  0.25000  0.01120  1.0000
  Y   Y2        1.0  0.69400  0.56200  0.05920  1.0000
  Y   Y3        1.0  0.69400  0.93800  0.05920  1.0000
  Y   Y4        1.0  0.35400  0.75000  0.21400  1.0000
  Y   Y5        1.0  0.31400  0.25000  0.22000  1.0000
  Y   Y6        1.0  0.81400  0.25000  0.28000  1.0000
  Y   Y7        1.0  0.85400  0.75000  0.28600  1.0000
  Y   Y8        1.0  0.19400  0.56200  0.44100  1.0000
  Y   Y9        1.0  0.19400  0.93800  0.44100  1.0000
  Y   Y10       1.0  0.47400  0.25000  0.48900  1.0000
  Y   Y11       1.0  0.52600  0.75000  0.51100  1.0000
  Y   Y12       1.0  0.80600  0.06180  0.55900  1.0000
  Y   Y13       1.0  0.80600  0.43800  0.55900  1.0000
  Y   Y14       1.0  0.14600  0.25000  0.71400  1.0000
  Y   Y15       1.0  0.18600  0.75000  0.72000  1.0000
  Y   Y16       1.0  0.68600  0.75000  0.78000  1.0000
  Y   Y17       1.0  0.64600  0.25000  0.78600  1.0000
  Y   Y18       1.0  0.30600  0.06180  0.94100  1.0000
  Y   Y19       1.0  0.30600  0.43800  0.94100  1.0000
  Y   Y20       1.0  0.02610  0.75000  0.98900  1.0000
