data_image0
_chemical_formula_structural       Cr3F18Na3
_chemical_formula_sum              "Cr3 F18 Na3"
_cell_length_a       4.79085
_cell_length_b       4.79086
_cell_length_c       13.3607
_cell_angle_alpha    90.0003
_cell_angle_beta     90.0002
_cell_angle_gamma    120.001

_space_group_name_H-M_alt    "P 1"
_space_group_IT_number       1

loop_
  _space_group_symop_operation_xyz
  'x, y, z'

loop_
  _atom_site_type_symbol
  _atom_site_label
  _atom_site_symmetry_multiplicity
  _atom_site_fract_x
  _atom_site_fract_y
  _atom_site_fract_z
  _atom_site_occupancy
  Cr  Cr1       1.0  0.00000  0.00000  0.00000  1.0000
  Cr  Cr2       1.0  0.66700  0.33300  0.33300  1.0000
  Cr  Cr3       1.0  0.33300  0.66700  0.66700  1.0000
  F   F1        1.0  0.95800  0.28100  0.07620  1.0000
  F   F2        1.0  0.32300  0.04240  0.07620  1.0000
  F   F3        1.0  0.71900  0.67700  0.07620  1.0000
  F   F4        1.0  0.34400  0.29100  0.25700  1.0000
  F   F5        1.0  0.94700  0.65600  0.25700  1.0000
  F   F6        1.0  0.70900  0.05280  0.25700  1.0000
  F   F7        1.0  0.62400  0.61400  0.41000  1.0000
  F   F8        1.0  0.98900  0.37600  0.41000  1.0000
  F   F9        1.0  0.38600  0.01060  0.41000  1.0000
  F   F10       1.0  0.01050  0.62400  0.59000  1.0000
  F   F11       1.0  0.61400  0.99000  0.59000  1.0000
  F   F12       1.0  0.37600  0.38600  0.59000  1.0000
  F   F13       1.0  0.29100  0.94700  0.74300  1.0000
  F   F14       1.0  0.05270  0.34400  0.74300  1.0000
  F   F15       1.0  0.65600  0.70900  0.74300  1.0000
  F   F16       1.0  0.28000  0.32300  0.92400  1.0000
  F   F17       1.0  0.04240  0.72000  0.92400  1.0000
  F   F18       1.0  0.67700  0.95800  0.92400  1.0000
  Na  Na1       1.0  0.33300  0.66700  0.16700  1.0000
  Na  Na2       1.0  0.00000  0.00000  0.50000  1.0000
  Na  Na3       1.0  0.66700  0.33300  0.83300  1.0000
