data_image0
_chemical_formula_structural       Cl16N8P8
_chemical_formula_sum              "Cl16 N8 P8"
_cell_length_a       12.0037
_cell_length_b       12.0037
_cell_length_c       5.83379
_cell_angle_alpha    90
_cell_angle_beta     90
_cell_angle_gamma    90

_space_group_name_H-M_alt    "P 1"
_space_group_IT_number       1

loop_
  _space_group_symop_operation_xyz
  'x, y, z'

loop_
  _atom_site_type_symbol
  _atom_site_label
  _atom_site_symmetry_multiplicity
  _atom_site_fract_x
  _atom_site_fract_y
  _atom_site_fract_z
  _atom_site_occupancy
  Cl  Cl1       1.0  0.19500  0.10500  0.09920  1.0000
  Cl  Cl2       1.0  0.80500  0.89500  0.09920  1.0000
  Cl  Cl3       1.0  0.50900  0.14600  0.22100  1.0000
  Cl  Cl4       1.0  0.49100  0.85400  0.22100  1.0000
  Cl  Cl5       1.0  0.99100  0.35400  0.27900  1.0000
  Cl  Cl6       1.0  0.00932  0.64600  0.27900  1.0000
  Cl  Cl7       1.0  0.30500  0.39500  0.40100  1.0000
  Cl  Cl8       1.0  0.69500  0.60500  0.40100  1.0000
  Cl  Cl9       1.0  0.60500  0.30500  0.59900  1.0000
  Cl  Cl10      1.0  0.39500  0.69500  0.59900  1.0000
  Cl  Cl11      1.0  0.35400  0.00932  0.72100  1.0000
  Cl  Cl12      1.0  0.64600  0.99100  0.72100  1.0000
  Cl  Cl13      1.0  0.14600  0.49100  0.77900  1.0000
  Cl  Cl14      1.0  0.85400  0.50900  0.77900  1.0000
  Cl  Cl15      1.0  0.89500  0.19500  0.90100  1.0000
  Cl  Cl16      1.0  0.10500  0.80500  0.90100  1.0000
  N   N1        1.0  0.66500  0.34800  0.07730  1.0000
  N   N2        1.0  0.33500  0.65200  0.07730  1.0000
  N   N3        1.0  0.83500  0.15200  0.42300  1.0000
  N   N4        1.0  0.16500  0.84800  0.42300  1.0000
  N   N5        1.0  0.15200  0.16500  0.57700  1.0000
  N   N6        1.0  0.84800  0.83500  0.57700  1.0000
  N   N7        1.0  0.34800  0.33500  0.92300  1.0000
  N   N8        1.0  0.65200  0.66500  0.92300  1.0000
  P   P1        1.0  0.89300  0.21900  0.24100  1.0000
  P   P2        1.0  0.10700  0.78100  0.24100  1.0000
  P   P3        1.0  0.60700  0.28100  0.25900  1.0000
  P   P4        1.0  0.39300  0.71900  0.25900  1.0000
  P   P5        1.0  0.28100  0.39300  0.74100  1.0000
  P   P6        1.0  0.71900  0.60700  0.74100  1.0000
  P   P7        1.0  0.21900  0.10700  0.75900  1.0000
  P   P8        1.0  0.78100  0.89300  0.75900  1.0000
