data_image0
_chemical_formula_structural       F16Na8O4V4
_chemical_formula_sum              "F16 Na8 O4 V4"
_cell_length_a       6.64208
_cell_length_b       7.91968
_cell_length_c       7.91968
_cell_angle_alpha    77.1908
_cell_angle_beta     103.532
_cell_angle_gamma    103.532

_space_group_name_H-M_alt    "P 1"
_space_group_IT_number       1

loop_
  _space_group_symop_operation_xyz
  'x, y, z'

loop_
  _atom_site_type_symbol
  _atom_site_label
  _atom_site_symmetry_multiplicity
  _atom_site_fract_x
  _atom_site_fract_y
  _atom_site_fract_z
  _atom_site_occupancy
  F   F1        1.0  0.45800  0.17800  0.00405  1.0000
  F   F2        1.0  0.14500  0.66400  0.03660  1.0000
  F   F3        1.0  0.66200  0.50300  0.11600  1.0000
  F   F4        1.0  0.95800  0.00405  0.17800  1.0000
  F   F5        1.0  0.26700  0.36300  0.20500  1.0000
  F   F6        1.0  0.35500  0.96300  0.33600  1.0000
  F   F7        1.0  0.76700  0.20500  0.36300  1.0000
  F   F8        1.0  0.83800  0.88400  0.49700  1.0000
  F   F9        1.0  0.16200  0.11600  0.50300  1.0000
  F   F10       1.0  0.23300  0.79500  0.63700  1.0000
  F   F11       1.0  0.64500  0.03660  0.66400  1.0000
  F   F12       1.0  0.73300  0.63700  0.79500  1.0000
  F   F13       1.0  0.04230  0.99600  0.82200  1.0000
  F   F14       1.0  0.33800  0.49700  0.88400  1.0000
  F   F15       1.0  0.85500  0.33600  0.96300  1.0000
  F   F16       1.0  0.54200  0.82200  0.99600  1.0000
  Na  Na1       1.0  0.87400  0.79300  0.00826  1.0000
  Na  Na2       1.0  0.62600  0.99200  0.20700  1.0000
  Na  Na3       1.0  0.97700  0.42800  0.24300  1.0000
  Na  Na4       1.0  0.47700  0.24300  0.42800  1.0000
  Na  Na5       1.0  0.52300  0.75700  0.57200  1.0000
  Na  Na6       1.0  0.02310  0.57200  0.75700  1.0000
  Na  Na7       1.0  0.37400  0.00826  0.79300  1.0000
  Na  Na8       1.0  0.12600  0.20700  0.99200  1.0000
  O   O1        1.0  0.49600  0.65100  0.32500  1.0000
  O   O2        1.0  0.00441  0.67500  0.34900  1.0000
  O   O3        1.0  0.99600  0.32500  0.65100  1.0000
  O   O4        1.0  0.50400  0.34900  0.67500  1.0000
  V   V1        1.0  0.41600  0.60000  0.12600  1.0000
  V   V2        1.0  0.08420  0.87400  0.40000  1.0000
  V   V3        1.0  0.91600  0.12600  0.60000  1.0000
  V   V4        1.0  0.58400  0.40000  0.87400  1.0000
