data_image0
_chemical_formula_structural       S20U8Zr4
_chemical_formula_sum              "S20 U8 Zr4"
_cell_length_a       11.421
_cell_length_b       7.7378
_cell_length_c       7.24384
_cell_angle_alpha    90
_cell_angle_beta     90
_cell_angle_gamma    90

_space_group_name_H-M_alt    "P 1"
_space_group_IT_number       1

loop_
  _space_group_symop_operation_xyz
  'x, y, z'

loop_
  _atom_site_type_symbol
  _atom_site_label
  _atom_site_symmetry_multiplicity
  _atom_site_fract_x
  _atom_site_fract_y
  _atom_site_fract_z
  _atom_site_occupancy
  S   S1        1.0  0.00161  0.75000  0.04370  1.0000
  S   S2        1.0  0.31600  0.25000  0.16500  1.0000
  S   S3        1.0  0.59200  0.04120  0.16800  1.0000
  S   S4        1.0  0.59200  0.45900  0.16800  1.0000
  S   S5        1.0  0.28700  0.75000  0.18900  1.0000
  S   S6        1.0  0.78700  0.75000  0.31100  1.0000
  S   S7        1.0  0.09210  0.04120  0.33200  1.0000
  S   S8        1.0  0.09210  0.45900  0.33200  1.0000
  S   S9        1.0  0.81600  0.25000  0.33500  1.0000
  S   S10       1.0  0.50200  0.75000  0.45600  1.0000
  S   S11       1.0  0.49800  0.25000  0.54400  1.0000
  S   S12       1.0  0.18400  0.75000  0.66500  1.0000
  S   S13       1.0  0.90800  0.54100  0.66800  1.0000
  S   S14       1.0  0.90800  0.95900  0.66800  1.0000
  S   S15       1.0  0.21300  0.25000  0.68900  1.0000
  S   S16       1.0  0.71300  0.25000  0.81100  1.0000
  S   S17       1.0  0.40800  0.54100  0.83200  1.0000
  S   S18       1.0  0.40800  0.95900  0.83200  1.0000
  S   S19       1.0  0.68400  0.75000  0.83500  1.0000
  S   S20       1.0  0.99800  0.25000  0.95600  1.0000
  U   U1        1.0  0.82100  0.50100  0.03030  1.0000
  U   U2        1.0  0.82100  0.99900  0.03030  1.0000
  U   U3        1.0  0.32100  0.50100  0.47000  1.0000
  U   U4        1.0  0.32100  0.99900  0.47000  1.0000
  U   U5        1.0  0.67900  0.00144  0.53000  1.0000
  U   U6        1.0  0.67900  0.49900  0.53000  1.0000
  U   U7        1.0  0.17900  0.00144  0.97000  1.0000
  U   U8        1.0  0.17900  0.49900  0.97000  1.0000
  Zr  Zr1       1.0  0.50500  0.75000  0.08120  1.0000
  Zr  Zr2       1.0  0.00512  0.75000  0.41900  1.0000
  Zr  Zr3       1.0  0.99500  0.25000  0.58100  1.0000
  Zr  Zr4       1.0  0.49500  0.25000  0.91900  1.0000
