data_image0
_chemical_formula_structural       Co8Ge12S12
_chemical_formula_sum              "Co8 Ge12 S12"
_cell_length_a       8.02894
_cell_length_b       8.02894
_cell_length_c       8.02894
_cell_angle_alpha    90.0905
_cell_angle_beta     90.0905
_cell_angle_gamma    90.0905

_space_group_name_H-M_alt    "P 1"
_space_group_IT_number       1

loop_
  _space_group_symop_operation_xyz
  'x, y, z'

loop_
  _atom_site_type_symbol
  _atom_site_label
  _atom_site_symmetry_multiplicity
  _atom_site_fract_x
  _atom_site_fract_y
  _atom_site_fract_z
  _atom_site_occupancy
  Co  Co1       1.0  0.24400  0.24400  0.24400  1.0000
  Co  Co2       1.0  0.74100  0.74600  0.24400  1.0000
  Co  Co3       1.0  0.75700  0.26000  0.25500  1.0000
  Co  Co4       1.0  0.25500  0.75700  0.26000  1.0000
  Co  Co5       1.0  0.74600  0.24400  0.74100  1.0000
  Co  Co6       1.0  0.24400  0.74100  0.74600  1.0000
  Co  Co7       1.0  0.26000  0.25500  0.75700  1.0000
  Co  Co8       1.0  0.75800  0.75800  0.75800  1.0000
  Ge  Ge1       1.0  0.66500  0.15200  0.00156  1.0000
  Ge  Ge2       1.0  0.00156  0.66500  0.15200  1.0000
  Ge  Ge3       1.0  0.35000  0.50200  0.16600  1.0000
  Ge  Ge4       1.0  0.85000  0.00000  0.33600  1.0000
  Ge  Ge5       1.0  0.50200  0.16600  0.35000  1.0000
  Ge  Ge6       1.0  0.83400  0.65200  0.50000  1.0000
  Ge  Ge7       1.0  0.16600  0.35000  0.50200  1.0000
  Ge  Ge8       1.0  0.50000  0.83400  0.65200  1.0000
  Ge  Ge9       1.0  0.15200  0.00156  0.66500  1.0000
  Ge  Ge10      1.0  0.65200  0.50000  0.83400  1.0000
  Ge  Ge11      1.0  0.00000  0.33600  0.85000  1.0000
  Ge  Ge12      1.0  0.33600  0.85000  0.00000  1.0000
  S   S1        1.0  0.34600  0.14900  0.00317  1.0000
  S   S2        1.0  0.00317  0.34600  0.14900  1.0000
  S   S3        1.0  0.64900  0.49900  0.15500  1.0000
  S   S4        1.0  0.14900  0.00317  0.34600  1.0000
  S   S5        1.0  0.50200  0.84500  0.35300  1.0000
  S   S6        1.0  0.15500  0.64900  0.49900  1.0000
  S   S7        1.0  0.84500  0.35300  0.50200  1.0000
  S   S8        1.0  0.49900  0.15500  0.64900  1.0000
  S   S9        1.0  0.85300  0.99800  0.65600  1.0000
  S   S10       1.0  0.35300  0.50200  0.84500  1.0000
  S   S11       1.0  0.99800  0.65600  0.85300  1.0000
  S   S12       1.0  0.65600  0.85300  0.99800  1.0000
