data_image0
_chemical_formula_structural       Ag4O20Se4V4
_chemical_formula_sum              "Ag4 O20 Se4 V4"
_cell_length_a       4.06898
_cell_length_b       20.0755
_cell_length_c       5.23792
_cell_angle_alpha    90
_cell_angle_beta     90
_cell_angle_gamma    90

_space_group_name_H-M_alt    "P 1"
_space_group_IT_number       1

loop_
  _space_group_symop_operation_xyz
  'x, y, z'

loop_
  _atom_site_type_symbol
  _atom_site_label
  _atom_site_symmetry_multiplicity
  _atom_site_fract_x
  _atom_site_fract_y
  _atom_site_fract_z
  _atom_site_occupancy
  Ag  Ag1       1.0  0.36000  0.01800  0.25000  1.0000
  Ag  Ag2       1.0  0.64000  0.51800  0.25000  1.0000
  Ag  Ag3       1.0  0.36000  0.48200  0.75000  1.0000
  Ag  Ag4       1.0  0.64000  0.98200  0.75000  1.0000
  O   O1        1.0  0.50100  0.25000  0.00000  1.0000
  O   O2        1.0  0.49900  0.75000  0.00000  1.0000
  O   O3        1.0  0.50600  0.11800  0.00350  1.0000
  O   O4        1.0  0.49400  0.61800  0.00350  1.0000
  O   O5        1.0  0.99100  0.18500  0.25000  1.0000
  O   O6        1.0  0.12200  0.46000  0.25000  1.0000
  O   O7        1.0  0.00891  0.68500  0.25000  1.0000
  O   O8        1.0  0.87800  0.96000  0.25000  1.0000
  O   O9        1.0  0.50600  0.11800  0.49700  1.0000
  O   O10       1.0  0.49400  0.61800  0.49700  1.0000
  O   O11       1.0  0.50100  0.25000  0.50000  1.0000
  O   O12       1.0  0.49900  0.75000  0.50000  1.0000
  O   O13       1.0  0.50600  0.38200  0.50300  1.0000
  O   O14       1.0  0.49400  0.88200  0.50300  1.0000
  O   O15       1.0  0.12200  0.04040  0.75000  1.0000
  O   O16       1.0  0.99100  0.31500  0.75000  1.0000
  O   O17       1.0  0.87800  0.54000  0.75000  1.0000
  O   O18       1.0  0.00891  0.81500  0.75000  1.0000
  O   O19       1.0  0.50600  0.38200  0.99700  1.0000
  O   O20       1.0  0.49400  0.88200  0.99700  1.0000
  Se  Se1       1.0  0.22100  0.37700  0.25000  1.0000
  Se  Se2       1.0  0.77900  0.87700  0.25000  1.0000
  Se  Se3       1.0  0.22100  0.12300  0.75000  1.0000
  Se  Se4       1.0  0.77900  0.62300  0.75000  1.0000
  V   V1        1.0  0.59000  0.19100  0.25000  1.0000
  V   V2        1.0  0.41000  0.69100  0.25000  1.0000
  V   V3        1.0  0.59000  0.30900  0.75000  1.0000
  V   V4        1.0  0.41000  0.80900  0.75000  1.0000
