data_image0
_chemical_formula_structural       Er8Hf4S20
_chemical_formula_sum              "Er8 Hf4 S20"
_cell_length_a       11.4829
_cell_length_b       7.20654
_cell_length_c       7.67141
_cell_angle_alpha    90
_cell_angle_beta     90
_cell_angle_gamma    90

_space_group_name_H-M_alt    "P 1"
_space_group_IT_number       1

loop_
  _space_group_symop_operation_xyz
  'x, y, z'

loop_
  _atom_site_type_symbol
  _atom_site_label
  _atom_site_symmetry_multiplicity
  _atom_site_fract_x
  _atom_site_fract_y
  _atom_site_fract_z
  _atom_site_occupancy
  Er  Er1       1.0  0.67900  0.52200  0.00293  1.0000
  Er  Er2       1.0  0.17900  0.97800  0.00293  1.0000
  Er  Er3       1.0  0.67900  0.52200  0.49700  1.0000
  Er  Er4       1.0  0.17900  0.97800  0.49700  1.0000
  Er  Er5       1.0  0.82100  0.02160  0.50300  1.0000
  Er  Er6       1.0  0.32100  0.47800  0.50300  1.0000
  Er  Er7       1.0  0.82100  0.02160  0.99700  1.0000
  Er  Er8       1.0  0.32100  0.47800  0.99700  1.0000
  Hf  Hf1       1.0  0.99400  0.57600  0.25000  1.0000
  Hf  Hf2       1.0  0.49400  0.92400  0.25000  1.0000
  Hf  Hf3       1.0  0.50600  0.07630  0.75000  1.0000
  Hf  Hf4       1.0  0.00566  0.42400  0.75000  1.0000
  S   S1        1.0  0.59500  0.16100  0.03670  1.0000
  S   S2        1.0  0.09470  0.33900  0.03670  1.0000
  S   S3        1.0  0.31900  0.16900  0.25000  1.0000
  S   S4        1.0  0.81900  0.33100  0.25000  1.0000
  S   S5        1.0  0.49700  0.55100  0.25000  1.0000
  S   S6        1.0  0.20800  0.69000  0.25000  1.0000
  S   S7        1.0  0.70800  0.81000  0.25000  1.0000
  S   S8        1.0  0.99700  0.94900  0.25000  1.0000
  S   S9        1.0  0.59500  0.16100  0.46300  1.0000
  S   S10       1.0  0.09470  0.33900  0.46300  1.0000
  S   S11       1.0  0.90500  0.66100  0.53700  1.0000
  S   S12       1.0  0.40500  0.83900  0.53700  1.0000
  S   S13       1.0  0.00280  0.05140  0.75000  1.0000
  S   S14       1.0  0.29200  0.19000  0.75000  1.0000
  S   S15       1.0  0.79200  0.31000  0.75000  1.0000
  S   S16       1.0  0.50300  0.44900  0.75000  1.0000
  S   S17       1.0  0.18100  0.66900  0.75000  1.0000
  S   S18       1.0  0.68100  0.83100  0.75000  1.0000
  S   S19       1.0  0.90500  0.66100  0.96300  1.0000
  S   S20       1.0  0.40500  0.83900  0.96300  1.0000
