data_image0
_chemical_formula_structural       Dy8S20Zr4
_chemical_formula_sum              "Dy8 S20 Zr4"
_cell_length_a       11.5725
_cell_length_b       7.74812
_cell_length_c       7.25202
_cell_angle_alpha    90
_cell_angle_beta     90
_cell_angle_gamma    90

_space_group_name_H-M_alt    "P 1"
_space_group_IT_number       1

loop_
  _space_group_symop_operation_xyz
  'x, y, z'

loop_
  _atom_site_type_symbol
  _atom_site_label
  _atom_site_symmetry_multiplicity
  _atom_site_fract_x
  _atom_site_fract_y
  _atom_site_fract_z
  _atom_site_occupancy
  Dy  Dy1       1.0  0.82100  0.50300  0.02140  1.0000
  Dy  Dy2       1.0  0.82100  0.99700  0.02140  1.0000
  Dy  Dy3       1.0  0.32100  0.50300  0.47900  1.0000
  Dy  Dy4       1.0  0.32100  0.99700  0.47900  1.0000
  Dy  Dy5       1.0  0.67900  0.00267  0.52100  1.0000
  Dy  Dy6       1.0  0.67900  0.49700  0.52100  1.0000
  Dy  Dy7       1.0  0.17900  0.00267  0.97900  1.0000
  Dy  Dy8       1.0  0.17900  0.49700  0.97900  1.0000
  S   S1        1.0  0.00286  0.75000  0.04910  1.0000
  S   S2        1.0  0.59500  0.03800  0.16100  1.0000
  S   S3        1.0  0.59500  0.46200  0.16100  1.0000
  S   S4        1.0  0.31800  0.25000  0.16900  1.0000
  S   S5        1.0  0.29100  0.75000  0.19200  1.0000
  S   S6        1.0  0.79100  0.75000  0.30800  1.0000
  S   S7        1.0  0.81800  0.25000  0.33100  1.0000
  S   S8        1.0  0.09490  0.03800  0.33900  1.0000
  S   S9        1.0  0.09490  0.46200  0.33900  1.0000
  S   S10       1.0  0.50300  0.75000  0.45100  1.0000
  S   S11       1.0  0.49700  0.25000  0.54900  1.0000
  S   S12       1.0  0.90500  0.53800  0.66100  1.0000
  S   S13       1.0  0.90500  0.96200  0.66100  1.0000
  S   S14       1.0  0.18200  0.75000  0.66900  1.0000
  S   S15       1.0  0.20900  0.25000  0.69200  1.0000
  S   S16       1.0  0.70900  0.25000  0.80800  1.0000
  S   S17       1.0  0.68200  0.75000  0.83100  1.0000
  S   S18       1.0  0.40500  0.53800  0.83900  1.0000
  S   S19       1.0  0.40500  0.96200  0.83900  1.0000
  S   S20       1.0  0.99700  0.25000  0.95100  1.0000
  Zr  Zr1       1.0  0.50700  0.75000  0.07930  1.0000
  Zr  Zr2       1.0  0.00688  0.75000  0.42100  1.0000
  Zr  Zr3       1.0  0.99300  0.25000  0.57900  1.0000
  Zr  Zr4       1.0  0.49300  0.25000  0.92100  1.0000
