data_image0
_chemical_formula_structural       Ce8S20Th4
_chemical_formula_sum              "Ce8 S20 Th4"
_cell_length_a       12.1621
_cell_length_b       8.33073
_cell_length_c       7.63955
_cell_angle_alpha    90
_cell_angle_beta     90
_cell_angle_gamma    90

_space_group_name_H-M_alt    "P 1"
_space_group_IT_number       1

loop_
  _space_group_symop_operation_xyz
  'x, y, z'

loop_
  _atom_site_type_symbol
  _atom_site_label
  _atom_site_symmetry_multiplicity
  _atom_site_fract_x
  _atom_site_fract_y
  _atom_site_fract_z
  _atom_site_occupancy
  Ce  Ce1       1.0  0.82300  0.00032  0.02130  1.0000
  Ce  Ce2       1.0  0.82300  0.50000  0.02130  1.0000
  Ce  Ce3       1.0  0.32300  0.00032  0.47900  1.0000
  Ce  Ce4       1.0  0.32300  0.50000  0.47900  1.0000
  Ce  Ce5       1.0  0.67700  0.50000  0.52100  1.0000
  Ce  Ce6       1.0  0.67700  0.00000  0.52100  1.0000
  Ce  Ce7       1.0  0.17700  0.50000  0.97900  1.0000
  Ce  Ce8       1.0  0.17700  0.00000  0.97900  1.0000
  S   S1        1.0  0.00149  0.75000  0.04490  1.0000
  S   S2        1.0  0.59800  0.04160  0.16200  1.0000
  S   S3        1.0  0.59800  0.45800  0.16200  1.0000
  S   S4        1.0  0.31300  0.25000  0.17000  1.0000
  S   S5        1.0  0.28500  0.75000  0.19800  1.0000
  S   S6        1.0  0.78500  0.75000  0.30200  1.0000
  S   S7        1.0  0.81300  0.25000  0.33000  1.0000
  S   S8        1.0  0.09810  0.04160  0.33800  1.0000
  S   S9        1.0  0.09810  0.45800  0.33800  1.0000
  S   S10       1.0  0.50100  0.75000  0.45500  1.0000
  S   S11       1.0  0.49900  0.25000  0.54500  1.0000
  S   S12       1.0  0.90200  0.54200  0.66200  1.0000
  S   S13       1.0  0.90200  0.95800  0.66200  1.0000
  S   S14       1.0  0.18700  0.75000  0.67000  1.0000
  S   S15       1.0  0.21500  0.25000  0.69800  1.0000
  S   S16       1.0  0.71500  0.25000  0.80200  1.0000
  S   S17       1.0  0.68700  0.75000  0.83000  1.0000
  S   S18       1.0  0.40200  0.54200  0.83800  1.0000
  S   S19       1.0  0.40200  0.95800  0.83800  1.0000
  S   S20       1.0  0.99900  0.25000  0.95500  1.0000
  Th  Th1       1.0  0.50900  0.75000  0.07350  1.0000
  Th  Th2       1.0  0.00883  0.75000  0.42600  1.0000
  Th  Th3       1.0  0.99100  0.25000  0.57400  1.0000
  Th  Th4       1.0  0.49100  0.25000  0.92600  1.0000
