data_image0
_chemical_formula_structural       H2O20P6Pr2Rb2
_chemical_formula_sum              "H2 O20 P6 Pr2 Rb2"
_cell_length_a       7.05128
_cell_length_b       7.52298
_cell_length_c       8.62216
_cell_angle_alpha    72.9262
_cell_angle_beta     73.905
_cell_angle_gamma    83.1927

_space_group_name_H-M_alt    "P 1"
_space_group_IT_number       1

loop_
  _space_group_symop_operation_xyz
  'x, y, z'

loop_
  _atom_site_type_symbol
  _atom_site_label
  _atom_site_symmetry_multiplicity
  _atom_site_fract_x
  _atom_site_fract_y
  _atom_site_fract_z
  _atom_site_occupancy
  H   H1        1.0  0.80700  0.17600  0.08910  1.0000
  H   H2        1.0  0.19300  0.82400  0.91100  1.0000
  O   O1        1.0  0.75500  0.11900  0.01340  1.0000
  O   O2        1.0  0.90000  0.28500  0.16600  1.0000
  O   O3        1.0  0.29900  0.60900  0.22900  1.0000
  O   O4        1.0  0.95000  0.75400  0.23300  1.0000
  O   O5        1.0  0.21000  0.94400  0.25200  1.0000
  O   O6        1.0  0.38700  0.17600  0.30300  1.0000
  O   O7        1.0  0.54100  0.84300  0.32500  1.0000
  O   O8        1.0  0.63200  0.42300  0.37100  1.0000
  O   O9        1.0  0.96100  0.35500  0.42500  1.0000
  O   O10       1.0  0.76100  0.08300  0.45600  1.0000
  O   O11       1.0  0.23900  0.91700  0.54400  1.0000
  O   O12       1.0  0.03890  0.64500  0.57500  1.0000
  O   O13       1.0  0.36800  0.57700  0.62900  1.0000
  O   O14       1.0  0.45900  0.15700  0.67500  1.0000
  O   O15       1.0  0.61300  0.82400  0.69700  1.0000
  O   O16       1.0  0.79000  0.05610  0.74800  1.0000
  O   O17       1.0  0.04970  0.24600  0.76700  1.0000
  O   O18       1.0  0.70100  0.39100  0.77100  1.0000
  O   O19       1.0  0.09980  0.71500  0.83400  1.0000
  O   O20       1.0  0.24500  0.88100  0.98700  1.0000
  P   P1        1.0  0.17000  0.78000  0.17800  1.0000
  P   P2        1.0  0.82000  0.29500  0.34400  1.0000
  P   P3        1.0  0.36300  0.97000  0.34900  1.0000
  P   P4        1.0  0.63700  0.02990  0.65100  1.0000
  P   P5        1.0  0.18000  0.70500  0.65600  1.0000
  P   P6        1.0  0.83000  0.22000  0.82200  1.0000
  Pr  Pr1       1.0  0.27000  0.36600  0.49300  1.0000
  Pr  Pr2       1.0  0.73000  0.63400  0.50700  1.0000
  Rb  Rb1       1.0  0.70500  0.68600  0.02590  1.0000
  Rb  Rb2       1.0  0.29500  0.31400  0.97400  1.0000
