data_image0
_chemical_formula_structural       B10Ni19Y3
_chemical_formula_sum              "B10 Ni19 Y3"
_cell_length_a       5.77945
_cell_length_b       7.90818
_cell_length_c       7.90818
_cell_angle_alpha    67.08
_cell_angle_beta     91.1621
_cell_angle_gamma    91.1621

_space_group_name_H-M_alt    "P 1"
_space_group_IT_number       1

loop_
  _space_group_symop_operation_xyz
  'x, y, z'

loop_
  _atom_site_type_symbol
  _atom_site_label
  _atom_site_symmetry_multiplicity
  _atom_site_fract_x
  _atom_site_fract_y
  _atom_site_fract_z
  _atom_site_occupancy
  B   B1        1.0  0.56900  0.70000  0.06470  1.0000
  B   B2        1.0  0.97500  0.34900  0.14300  1.0000
  B   B3        1.0  0.43100  0.93500  0.30000  1.0000
  B   B4        1.0  0.97500  0.14300  0.34900  1.0000
  B   B5        1.0  0.00000  0.61600  0.38400  1.0000
  B   B6        1.0  0.00000  0.38400  0.61600  1.0000
  B   B7        1.0  0.02490  0.85700  0.65100  1.0000
  B   B8        1.0  0.56900  0.06470  0.70000  1.0000
  B   B9        1.0  0.02490  0.65100  0.85700  1.0000
  B   B10       1.0  0.43100  0.30000  0.93500  1.0000
  Ni  Ni1       1.0  0.50000  0.00000  0.00000  1.0000
  Ni  Ni2       1.0  0.30200  0.51800  0.04480  1.0000
  Ni  Ni3       1.0  0.92600  0.62200  0.12200  1.0000
  Ni  Ni4       1.0  0.70300  0.16300  0.16300  1.0000
  Ni  Ni5       1.0  0.27100  0.18200  0.18200  1.0000
  Ni  Ni6       1.0  0.30100  0.71200  0.22900  1.0000
  Ni  Ni7       1.0  0.69900  0.77100  0.28800  1.0000
  Ni  Ni8       1.0  0.12500  0.37800  0.37800  1.0000
  Ni  Ni9       1.0  0.07410  0.87800  0.37800  1.0000
  Ni  Ni10      1.0  0.69800  0.95500  0.48200  1.0000
  Ni  Ni11      1.0  0.30200  0.04480  0.51800  1.0000
  Ni  Ni12      1.0  0.92600  0.12200  0.62200  1.0000
  Ni  Ni13      1.0  0.87500  0.62200  0.62200  1.0000
  Ni  Ni14      1.0  0.30100  0.22900  0.71200  1.0000
  Ni  Ni15      1.0  0.69900  0.28800  0.77100  1.0000
  Ni  Ni16      1.0  0.72900  0.81800  0.81800  1.0000
  Ni  Ni17      1.0  0.29700  0.83700  0.83700  1.0000
  Ni  Ni18      1.0  0.07410  0.37800  0.87800  1.0000
  Ni  Ni19      1.0  0.69800  0.48200  0.95500  1.0000
  Y   Y1        1.0  0.00000  0.00000  0.00000  1.0000
  Y   Y2        1.0  0.61400  0.37400  0.37400  1.0000
  Y   Y3        1.0  0.38600  0.62600  0.62600  1.0000
