data_image0
_chemical_formula_structural       C12Cs4Fe2N12Rb2
_chemical_formula_sum              "C12 Cs4 Fe2 N12 Rb2"
_cell_length_a       7.67901
_cell_length_b       8.18649
_cell_length_c       11.1141
_cell_angle_alpha    90
_cell_angle_beta     90.4137
_cell_angle_gamma    90

_space_group_name_H-M_alt    "P 1"
_space_group_IT_number       1

loop_
  _space_group_symop_operation_xyz
  'x, y, z'

loop_
  _atom_site_type_symbol
  _atom_site_label
  _atom_site_symmetry_multiplicity
  _atom_site_fract_x
  _atom_site_fract_y
  _atom_site_fract_z
  _atom_site_occupancy
  C   C1        1.0  0.79500  0.12200  0.03330  1.0000
  C   C2        1.0  0.88300  0.80400  0.04380  1.0000
  C   C3        1.0  0.07700  0.02730  0.16100  1.0000
  C   C4        1.0  0.42300  0.52700  0.33900  1.0000
  C   C5        1.0  0.61700  0.30400  0.45600  1.0000
  C   C6        1.0  0.70500  0.62200  0.46700  1.0000
  C   C7        1.0  0.29500  0.37800  0.53300  1.0000
  C   C8        1.0  0.38300  0.69600  0.54400  1.0000
  C   C9        1.0  0.57700  0.47300  0.66100  1.0000
  C   C10       1.0  0.92300  0.97300  0.83900  1.0000
  C   C11       1.0  0.11700  0.19600  0.95600  1.0000
  C   C12       1.0  0.20500  0.87800  0.96700  1.0000
  Cs  Cs1       1.0  0.52200  0.92800  0.24800  1.0000
  Cs  Cs2       1.0  0.97800  0.42800  0.25200  1.0000
  Cs  Cs3       1.0  0.02240  0.57200  0.74800  1.0000
  Cs  Cs4       1.0  0.47800  0.07180  0.75200  1.0000
  Fe  Fe1       1.0  0.00000  0.00000  0.00000  1.0000
  Fe  Fe2       1.0  0.50000  0.50000  0.50000  1.0000
  N   N1        1.0  0.66700  0.19400  0.05670  1.0000
  N   N2        1.0  0.81100  0.68400  0.07210  1.0000
  N   N3        1.0  0.37200  0.54800  0.24000  1.0000
  N   N4        1.0  0.12800  0.04840  0.26000  1.0000
  N   N5        1.0  0.68900  0.18400  0.42800  1.0000
  N   N6        1.0  0.83300  0.69400  0.44300  1.0000
  N   N7        1.0  0.16700  0.30600  0.55700  1.0000
  N   N8        1.0  0.31100  0.81600  0.57200  1.0000
  N   N9        1.0  0.87200  0.95200  0.74000  1.0000
  N   N10       1.0  0.62800  0.45200  0.76000  1.0000
  N   N11       1.0  0.18900  0.31600  0.92800  1.0000
  N   N12       1.0  0.33300  0.80600  0.94300  1.0000
  Rb  Rb1       1.0  0.50000  0.50000  0.00000  1.0000
  Rb  Rb2       1.0  0.00000  0.00000  0.50000  1.0000
