data_image0
_chemical_formula_structural       K12O8S8V4
_chemical_formula_sum              "K12 O8 S8 V4"
_cell_length_a       10.5325
_cell_length_b       7.30829
_cell_length_c       11.6026
_cell_angle_alpha    90
_cell_angle_beta     121.52
_cell_angle_gamma    90

_space_group_name_H-M_alt    "P 1"
_space_group_IT_number       1

loop_
  _space_group_symop_operation_xyz
  'x, y, z'

loop_
  _atom_site_type_symbol
  _atom_site_label
  _atom_site_symmetry_multiplicity
  _atom_site_fract_x
  _atom_site_fract_y
  _atom_site_fract_z
  _atom_site_occupancy
  K   K1        1.0  0.06270  0.25900  0.11800  1.0000
  K   K2        1.0  0.48200  0.86600  0.16000  1.0000
  K   K3        1.0  0.77300  0.27400  0.21000  1.0000
  K   K4        1.0  0.22700  0.77400  0.29000  1.0000
  K   K5        1.0  0.51800  0.36600  0.34000  1.0000
  K   K6        1.0  0.93700  0.75900  0.38200  1.0000
  K   K7        1.0  0.06270  0.24100  0.61800  1.0000
  K   K8        1.0  0.48200  0.63400  0.66000  1.0000
  K   K9        1.0  0.77300  0.22600  0.71000  1.0000
  K   K10       1.0  0.22700  0.72600  0.79000  1.0000
  K   K11       1.0  0.51800  0.13400  0.84000  1.0000
  K   K12       1.0  0.93700  0.74100  0.88200  1.0000
  O   O1        1.0  0.47800  0.21600  0.08590  1.0000
  O   O2        1.0  0.69400  0.62800  0.16900  1.0000
  O   O3        1.0  0.30600  0.12800  0.33100  1.0000
  O   O4        1.0  0.52200  0.71600  0.41400  1.0000
  O   O5        1.0  0.47800  0.28400  0.58600  1.0000
  O   O6        1.0  0.69400  0.87200  0.66900  1.0000
  O   O7        1.0  0.30600  0.37200  0.83100  1.0000
  O   O8        1.0  0.52200  0.78400  0.91400  1.0000
  S   S1        1.0  0.24900  0.53700  0.05740  1.0000
  S   S2        1.0  0.86100  0.92000  0.09090  1.0000
  S   S3        1.0  0.13900  0.42000  0.40900  1.0000
  S   S4        1.0  0.75100  0.03660  0.44300  1.0000
  S   S5        1.0  0.24900  0.96300  0.55700  1.0000
  S   S6        1.0  0.86100  0.58000  0.59100  1.0000
  S   S7        1.0  0.13900  0.07970  0.90900  1.0000
  S   S8        1.0  0.75100  0.46300  0.94300  1.0000
  V   V1        1.0  0.69200  0.69800  0.02860  1.0000
  V   V2        1.0  0.30800  0.19800  0.47100  1.0000
  V   V3        1.0  0.69200  0.80200  0.52900  1.0000
  V   V4        1.0  0.30800  0.30200  0.97100  1.0000
