data_image0
_chemical_formula_structural       O5Rb2Tc2
_chemical_formula_sum              "O5 Rb2 Tc2"
_cell_length_a       5.24059
_cell_length_b       5.24058
_cell_length_c       6.70419
_cell_angle_alpha    67.8519
_cell_angle_beta     67.8512
_cell_angle_gamma    63.7666

_space_group_name_H-M_alt    "P 1"
_space_group_IT_number       1

loop_
  _space_group_symop_operation_xyz
  'x, y, z'

loop_
  _atom_site_type_symbol
  _atom_site_label
  _atom_site_symmetry_multiplicity
  _atom_site_fract_x
  _atom_site_fract_y
  _atom_site_fract_z
  _atom_site_occupancy
  O   O1        1.0  0.06610  0.56400  0.30000  1.0000
  O   O2        1.0  0.56400  0.06610  0.30000  1.0000
  O   O3        1.0  0.43700  0.93600  0.69400  1.0000
  O   O4        1.0  0.93600  0.43700  0.69400  1.0000
  O   O5        1.0  0.92900  0.92900  0.71100  1.0000
  Rb  Rb1       1.0  0.63000  0.63000  0.11800  1.0000
  Rb  Rb2       1.0  0.37300  0.37300  0.87700  1.0000
  Tc  Tc1       1.0  0.83500  0.83500  0.49900  1.0000
  Tc  Tc2       1.0  0.16400  0.16400  0.50400  1.0000
