data_image0
_chemical_formula_structural       Dy12Ga20
_chemical_formula_sum              "Dy12 Ga20"
_cell_length_a       11.4639
_cell_length_b       9.66869
_cell_length_c       6.10015
_cell_angle_alpha    90
_cell_angle_beta     90
_cell_angle_gamma    90

_space_group_name_H-M_alt    "P 1"
_space_group_IT_number       1

loop_
  _space_group_symop_operation_xyz
  'x, y, z'

loop_
  _atom_site_type_symbol
  _atom_site_label
  _atom_site_symmetry_multiplicity
  _atom_site_fract_x
  _atom_site_fract_y
  _atom_site_fract_z
  _atom_site_occupancy
  Dy  Dy1       1.0  0.35200  0.00977  0.11000  1.0000
  Dy  Dy2       1.0  0.35200  0.49000  0.11000  1.0000
  Dy  Dy3       1.0  0.07380  0.25000  0.15100  1.0000
  Dy  Dy4       1.0  0.57400  0.25000  0.34900  1.0000
  Dy  Dy5       1.0  0.85200  0.00977  0.39000  1.0000
  Dy  Dy6       1.0  0.85200  0.49000  0.39000  1.0000
  Dy  Dy7       1.0  0.14800  0.51000  0.61000  1.0000
  Dy  Dy8       1.0  0.14800  0.99000  0.61000  1.0000
  Dy  Dy9       1.0  0.42600  0.75000  0.65100  1.0000
  Dy  Dy10      1.0  0.92600  0.75000  0.84900  1.0000
  Dy  Dy11      1.0  0.64800  0.51000  0.89000  1.0000
  Dy  Dy12      1.0  0.64800  0.99000  0.89000  1.0000
  Ga  Ga1       1.0  0.79900  0.25000  0.10200  1.0000
  Ga  Ga2       1.0  0.09070  0.55300  0.12600  1.0000
  Ga  Ga3       1.0  0.09070  0.94700  0.12600  1.0000
  Ga  Ga4       1.0  0.49500  0.75000  0.12900  1.0000
  Ga  Ga5       1.0  0.74800  0.75000  0.17400  1.0000
  Ga  Ga6       1.0  0.24800  0.75000  0.32600  1.0000
  Ga  Ga7       1.0  0.99500  0.75000  0.37100  1.0000
  Ga  Ga8       1.0  0.59100  0.55300  0.37400  1.0000
  Ga  Ga9       1.0  0.59100  0.94700  0.37400  1.0000
  Ga  Ga10      1.0  0.29900  0.25000  0.39800  1.0000
  Ga  Ga11      1.0  0.70100  0.75000  0.60200  1.0000
  Ga  Ga12      1.0  0.40900  0.05320  0.62600  1.0000
  Ga  Ga13      1.0  0.40900  0.44700  0.62600  1.0000
  Ga  Ga14      1.0  0.00515  0.25000  0.62900  1.0000
  Ga  Ga15      1.0  0.75200  0.25000  0.67400  1.0000
  Ga  Ga16      1.0  0.25200  0.25000  0.82600  1.0000
  Ga  Ga17      1.0  0.50500  0.25000  0.87100  1.0000
  Ga  Ga18      1.0  0.90900  0.05320  0.87400  1.0000
  Ga  Ga19      1.0  0.90900  0.44700  0.87400  1.0000
  Ga  Ga20      1.0  0.20100  0.75000  0.89800  1.0000
