data_image0
_chemical_formula_structural       Ge4Te20Tl8
_chemical_formula_sum              "Ge4 Te20 Tl8"
_cell_length_a       8.46714
_cell_length_b       8.46714
_cell_length_c       15.0789
_cell_angle_alpha    90
_cell_angle_beta     90
_cell_angle_gamma    90.0028

_space_group_name_H-M_alt    "P 1"
_space_group_IT_number       1

loop_
  _space_group_symop_operation_xyz
  'x, y, z'

loop_
  _atom_site_type_symbol
  _atom_site_label
  _atom_site_symmetry_multiplicity
  _atom_site_fract_x
  _atom_site_fract_y
  _atom_site_fract_z
  _atom_site_occupancy
  Ge  Ge1       1.0  0.00000  0.00000  0.38200  1.0000
  Ge  Ge2       1.0  0.50000  0.50000  0.38200  1.0000
  Ge  Ge3       1.0  0.50000  0.50000  0.61800  1.0000
  Ge  Ge4       1.0  0.00000  0.00000  0.61800  1.0000
  Te  Te1       1.0  0.81300  0.18700  0.00000  1.0000
  Te  Te2       1.0  0.31300  0.31300  0.00000  1.0000
  Te  Te3       1.0  0.68700  0.68700  0.00000  1.0000
  Te  Te4       1.0  0.18700  0.81300  0.00000  1.0000
  Te  Te5       1.0  0.50000  0.50000  0.12800  1.0000
  Te  Te6       1.0  0.00000  0.00000  0.12800  1.0000
  Te  Te7       1.0  0.82100  0.17900  0.28000  1.0000
  Te  Te8       1.0  0.17900  0.82100  0.28000  1.0000
  Te  Te9       1.0  0.32100  0.32100  0.28000  1.0000
  Te  Te10      1.0  0.67900  0.67900  0.28000  1.0000
  Te  Te11      1.0  0.16800  0.16800  0.50000  1.0000
  Te  Te12      1.0  0.66800  0.33200  0.50000  1.0000
  Te  Te13      1.0  0.33200  0.66800  0.50000  1.0000
  Te  Te14      1.0  0.83200  0.83200  0.50000  1.0000
  Te  Te15      1.0  0.32100  0.32100  0.72000  1.0000
  Te  Te16      1.0  0.67900  0.67900  0.72000  1.0000
  Te  Te17      1.0  0.82100  0.17900  0.72000  1.0000
  Te  Te18      1.0  0.17900  0.82100  0.72000  1.0000
  Te  Te19      1.0  0.00000  0.00000  0.87200  1.0000
  Te  Te20      1.0  0.50000  0.50000  0.87200  1.0000
  Tl  Tl1       1.0  0.50000  0.00000  0.12200  1.0000
  Tl  Tl2       1.0  0.00000  0.50000  0.12200  1.0000
  Tl  Tl3       1.0  0.50000  0.00000  0.37900  1.0000
  Tl  Tl4       1.0  0.00000  0.50000  0.37900  1.0000
  Tl  Tl5       1.0  0.50000  0.00000  0.62100  1.0000
  Tl  Tl6       1.0  0.00000  0.50000  0.62100  1.0000
  Tl  Tl7       1.0  0.50000  0.00000  0.87800  1.0000
  Tl  Tl8       1.0  0.00000  0.50000  0.87800  1.0000
