data_image0
_chemical_formula_structural       Ce8Hf4S20
_chemical_formula_sum              "Ce8 Hf4 S20"
_cell_length_a       11.5937
_cell_length_b       7.42362
_cell_length_c       8.14017
_cell_angle_alpha    90
_cell_angle_beta     90
_cell_angle_gamma    90

_space_group_name_H-M_alt    "P 1"
_space_group_IT_number       1

loop_
  _space_group_symop_operation_xyz
  'x, y, z'

loop_
  _atom_site_type_symbol
  _atom_site_label
  _atom_site_symmetry_multiplicity
  _atom_site_fract_x
  _atom_site_fract_y
  _atom_site_fract_z
  _atom_site_occupancy
  Ce  Ce1       1.0  0.67400  0.54900  0.00016  1.0000
  Ce  Ce2       1.0  0.17400  0.95100  0.00016  1.0000
  Ce  Ce3       1.0  0.67400  0.54900  0.50000  1.0000
  Ce  Ce4       1.0  0.17400  0.95100  0.50000  1.0000
  Ce  Ce5       1.0  0.82600  0.04930  0.50000  1.0000
  Ce  Ce6       1.0  0.32600  0.45100  0.50000  1.0000
  Ce  Ce7       1.0  0.82600  0.04930  0.00000  1.0000
  Ce  Ce8       1.0  0.32600  0.45100  0.00000  1.0000
  Hf  Hf1       1.0  0.99200  0.57200  0.25000  1.0000
  Hf  Hf2       1.0  0.49200  0.92800  0.25000  1.0000
  Hf  Hf3       1.0  0.50800  0.07210  0.75000  1.0000
  Hf  Hf4       1.0  0.00848  0.42800  0.75000  1.0000
  S   S1        1.0  0.57700  0.17100  0.03450  1.0000
  S   S2        1.0  0.07710  0.32900  0.03450  1.0000
  S   S3        1.0  0.31300  0.14500  0.25000  1.0000
  S   S4        1.0  0.81300  0.35500  0.25000  1.0000
  S   S5        1.0  0.49400  0.56100  0.25000  1.0000
  S   S6        1.0  0.20500  0.66500  0.25000  1.0000
  S   S7        1.0  0.70500  0.83500  0.25000  1.0000
  S   S8        1.0  0.99400  0.93900  0.25000  1.0000
  S   S9        1.0  0.57700  0.17100  0.46600  1.0000
  S   S10       1.0  0.07710  0.32900  0.46600  1.0000
  S   S11       1.0  0.92300  0.67100  0.53400  1.0000
  S   S12       1.0  0.42300  0.82900  0.53400  1.0000
  S   S13       1.0  0.00569  0.06120  0.75000  1.0000
  S   S14       1.0  0.29500  0.16500  0.75000  1.0000
  S   S15       1.0  0.79500  0.33500  0.75000  1.0000
  S   S16       1.0  0.50600  0.43900  0.75000  1.0000
  S   S17       1.0  0.18700  0.64500  0.75000  1.0000
  S   S18       1.0  0.68700  0.85500  0.75000  1.0000
  S   S19       1.0  0.92300  0.67100  0.96600  1.0000
  S   S20       1.0  0.42300  0.82900  0.96600  1.0000
