data_image0
_chemical_formula_structural       Ce8S20Zr4
_chemical_formula_sum              "Ce8 S20 Zr4"
_cell_length_a       11.6909
_cell_length_b       8.14908
_cell_length_c       7.45105
_cell_angle_alpha    90
_cell_angle_beta     90
_cell_angle_gamma    90

_space_group_name_H-M_alt    "P 1"
_space_group_IT_number       1

loop_
  _space_group_symop_operation_xyz
  'x, y, z'

loop_
  _atom_site_type_symbol
  _atom_site_label
  _atom_site_symmetry_multiplicity
  _atom_site_fract_x
  _atom_site_fract_y
  _atom_site_fract_z
  _atom_site_occupancy
  Ce  Ce1       1.0  0.82500  0.50000  0.04310  1.0000
  Ce  Ce2       1.0  0.82500  0.00000  0.04310  1.0000
  Ce  Ce3       1.0  0.32500  0.50000  0.45700  1.0000
  Ce  Ce4       1.0  0.32500  0.00000  0.45700  1.0000
  Ce  Ce5       1.0  0.67500  0.00037  0.54300  1.0000
  Ce  Ce6       1.0  0.67500  0.50000  0.54300  1.0000
  Ce  Ce7       1.0  0.17500  0.00037  0.95700  1.0000
  Ce  Ce8       1.0  0.17500  0.50000  0.95700  1.0000
  S   S1        1.0  0.00481  0.75000  0.05780  1.0000
  S   S2        1.0  0.31400  0.25000  0.15100  1.0000
  S   S3        1.0  0.58100  0.03540  0.16900  1.0000
  S   S4        1.0  0.58100  0.46500  0.16900  1.0000
  S   S5        1.0  0.29400  0.75000  0.17200  1.0000
  S   S6        1.0  0.79400  0.75000  0.32800  1.0000
  S   S7        1.0  0.08100  0.03540  0.33100  1.0000
  S   S8        1.0  0.08100  0.46500  0.33100  1.0000
  S   S9        1.0  0.81400  0.25000  0.34900  1.0000
  S   S10       1.0  0.50500  0.75000  0.44200  1.0000
  S   S11       1.0  0.49500  0.25000  0.55800  1.0000
  S   S12       1.0  0.18600  0.75000  0.65100  1.0000
  S   S13       1.0  0.91900  0.53500  0.66900  1.0000
  S   S14       1.0  0.91900  0.96500  0.66900  1.0000
  S   S15       1.0  0.20600  0.25000  0.67200  1.0000
  S   S16       1.0  0.70600  0.25000  0.82800  1.0000
  S   S17       1.0  0.41900  0.53500  0.83100  1.0000
  S   S18       1.0  0.41900  0.96500  0.83100  1.0000
  S   S19       1.0  0.68600  0.75000  0.84900  1.0000
  S   S20       1.0  0.99500  0.25000  0.94200  1.0000
  Zr  Zr1       1.0  0.50900  0.75000  0.07500  1.0000
  Zr  Zr2       1.0  0.00902  0.75000  0.42500  1.0000
  Zr  Zr3       1.0  0.99100  0.25000  0.57500  1.0000
  Zr  Zr4       1.0  0.49100  0.25000  0.92500  1.0000
