data_image0
_chemical_formula_structural       Cl8Er4O12Rb4Se4
_chemical_formula_sum              "Cl8 Er4 O12 Rb4 Se4"
_cell_length_a       6.55349
_cell_length_b       6.93452
_cell_length_c       16.5316
_cell_angle_alpha    90
_cell_angle_beta     97.1283
_cell_angle_gamma    90

_space_group_name_H-M_alt    "P 1"
_space_group_IT_number       1

loop_
  _space_group_symop_operation_xyz
  'x, y, z'

loop_
  _atom_site_type_symbol
  _atom_site_label
  _atom_site_symmetry_multiplicity
  _atom_site_fract_x
  _atom_site_fract_y
  _atom_site_fract_z
  _atom_site_occupancy
  Cl  Cl1       1.0  0.32600  0.86000  0.08030  1.0000
  Cl  Cl2       1.0  0.99200  0.34000  0.10400  1.0000
  Cl  Cl3       1.0  0.50800  0.84000  0.39600  1.0000
  Cl  Cl4       1.0  0.17400  0.36000  0.42000  1.0000
  Cl  Cl5       1.0  0.82600  0.64000  0.58000  1.0000
  Cl  Cl6       1.0  0.49200  0.16000  0.60400  1.0000
  Cl  Cl7       1.0  0.00789  0.66000  0.89600  1.0000
  Cl  Cl8       1.0  0.67400  0.14000  0.92000  1.0000
  Er  Er1       1.0  0.37700  0.84500  0.24000  1.0000
  Er  Er2       1.0  0.12300  0.34500  0.26000  1.0000
  Er  Er3       1.0  0.87700  0.65500  0.74000  1.0000
  Er  Er4       1.0  0.62300  0.15500  0.76000  1.0000
  O   O1        1.0  0.71600  0.84800  0.22400  1.0000
  O   O2        1.0  0.42000  0.52200  0.23400  1.0000
  O   O3        1.0  0.42300  0.16700  0.24200  1.0000
  O   O4        1.0  0.07660  0.66700  0.25800  1.0000
  O   O5        1.0  0.07960  0.02230  0.26600  1.0000
  O   O6        1.0  0.78400  0.34800  0.27600  1.0000
  O   O7        1.0  0.21600  0.65200  0.72400  1.0000
  O   O8        1.0  0.92000  0.97800  0.73400  1.0000
  O   O9        1.0  0.92300  0.33300  0.74200  1.0000
  O   O10       1.0  0.57700  0.83300  0.75800  1.0000
  O   O11       1.0  0.58000  0.47800  0.76600  1.0000
  O   O12       1.0  0.28400  0.15200  0.77600  1.0000
  Rb  Rb1       1.0  0.82100  0.80100  0.05750  1.0000
  Rb  Rb2       1.0  0.67900  0.30100  0.44300  1.0000
  Rb  Rb3       1.0  0.32100  0.69900  0.55700  1.0000
  Rb  Rb4       1.0  0.17900  0.19900  0.94300  1.0000
  Se  Se1       1.0  0.57800  0.34000  0.20400  1.0000
  Se  Se2       1.0  0.92200  0.84000  0.29600  1.0000
  Se  Se3       1.0  0.07760  0.16000  0.70400  1.0000
  Se  Se4       1.0  0.42200  0.66000  0.79600  1.0000
