data_image0
_chemical_formula_structural       Ce8S20Si4
_chemical_formula_sum              "Ce8 S20 Si4"
_cell_length_a       7.64394
_cell_length_b       12.6622
_cell_length_c       7.90568
_cell_angle_alpha    90
_cell_angle_beta     101.353
_cell_angle_gamma    90

_space_group_name_H-M_alt    "P 1"
_space_group_IT_number       1

loop_
  _space_group_symop_operation_xyz
  'x, y, z'

loop_
  _atom_site_type_symbol
  _atom_site_label
  _atom_site_symmetry_multiplicity
  _atom_site_fract_x
  _atom_site_fract_y
  _atom_site_fract_z
  _atom_site_occupancy
  Ce  Ce1       1.0  0.23900  0.09540  0.04350  1.0000
  Ce  Ce2       1.0  0.16300  0.66400  0.13100  1.0000
  Ce  Ce3       1.0  0.83700  0.16400  0.36900  1.0000
  Ce  Ce4       1.0  0.76100  0.59500  0.45700  1.0000
  Ce  Ce5       1.0  0.23900  0.40500  0.54300  1.0000
  Ce  Ce6       1.0  0.16300  0.83600  0.63100  1.0000
  Ce  Ce7       1.0  0.83700  0.33600  0.86900  1.0000
  Ce  Ce8       1.0  0.76100  0.90500  0.95700  1.0000
  S   S1        1.0  0.86100  0.12200  0.00459  1.0000
  S   S2        1.0  0.52400  0.27200  0.05030  1.0000
  S   S3        1.0  0.82500  0.52900  0.11200  1.0000
  S   S4        1.0  0.12700  0.29800  0.19400  1.0000
  S   S5        1.0  0.57800  0.00125  0.21800  1.0000
  S   S6        1.0  0.42200  0.50100  0.28200  1.0000
  S   S7        1.0  0.87300  0.79800  0.30600  1.0000
  S   S8        1.0  0.17500  0.02920  0.38800  1.0000
  S   S9        1.0  0.47600  0.77200  0.45000  1.0000
  S   S10       1.0  0.13900  0.62200  0.49500  1.0000
  S   S11       1.0  0.86100  0.37800  0.50500  1.0000
  S   S12       1.0  0.52400  0.22800  0.55000  1.0000
  S   S13       1.0  0.82500  0.97100  0.61200  1.0000
  S   S14       1.0  0.12700  0.20200  0.69400  1.0000
  S   S15       1.0  0.57800  0.49900  0.71800  1.0000
  S   S16       1.0  0.42200  0.99900  0.78200  1.0000
  S   S17       1.0  0.87300  0.70200  0.80600  1.0000
  S   S18       1.0  0.17500  0.47100  0.88800  1.0000
  S   S19       1.0  0.47600  0.72800  0.95000  1.0000
  S   S20       1.0  0.13900  0.87800  0.99500  1.0000
  Si  Si1       1.0  0.33100  0.38300  0.09550  1.0000
  Si  Si2       1.0  0.66900  0.88300  0.40500  1.0000
  Si  Si3       1.0  0.33100  0.11700  0.59500  1.0000
  Si  Si4       1.0  0.66900  0.61700  0.90500  1.0000
