data_image0
_chemical_formula_structural       Cu8Rb4Ta4Te16
_chemical_formula_sum              "Cu8 Rb4 Ta4 Te16"
_cell_length_a       6.02849
_cell_length_b       20.4991
_cell_length_c       8.24788
_cell_angle_alpha    90
_cell_angle_beta     90
_cell_angle_gamma    90

_space_group_name_H-M_alt    "P 1"
_space_group_IT_number       1

loop_
  _space_group_symop_operation_xyz
  'x, y, z'

loop_
  _atom_site_type_symbol
  _atom_site_label
  _atom_site_symmetry_multiplicity
  _atom_site_fract_x
  _atom_site_fract_y
  _atom_site_fract_z
  _atom_site_occupancy
  Cu  Cu1       1.0  0.98900  0.74900  0.00363  1.0000
  Cu  Cu2       1.0  0.00000  0.14500  0.24500  1.0000
  Cu  Cu3       1.0  0.50000  0.64500  0.25500  1.0000
  Cu  Cu4       1.0  0.48900  0.24900  0.49600  1.0000
  Cu  Cu5       1.0  0.98900  0.75100  0.50400  1.0000
  Cu  Cu6       1.0  0.00000  0.35500  0.74500  1.0000
  Cu  Cu7       1.0  0.50000  0.85500  0.75500  1.0000
  Cu  Cu8       1.0  0.48900  0.25100  0.99600  1.0000
  Rb  Rb1       1.0  0.74200  0.43700  0.24400  1.0000
  Rb  Rb2       1.0  0.24200  0.93700  0.25600  1.0000
  Rb  Rb3       1.0  0.74200  0.06340  0.74400  1.0000
  Rb  Rb4       1.0  0.24200  0.56300  0.75600  1.0000
  Ta  Ta1       1.0  0.50000  0.14500  0.24500  1.0000
  Ta  Ta2       1.0  0.00000  0.64500  0.25500  1.0000
  Ta  Ta3       1.0  0.50000  0.35500  0.74500  1.0000
  Ta  Ta4       1.0  0.00000  0.85500  0.75500  1.0000
  Te  Te1       1.0  0.24700  0.35700  0.00640  1.0000
  Te  Te2       1.0  0.74600  0.85500  0.01670  1.0000
  Te  Te3       1.0  0.75000  0.04000  0.24100  1.0000
  Te  Te4       1.0  0.75800  0.25100  0.24600  1.0000
  Te  Te5       1.0  0.25800  0.75100  0.25400  1.0000
  Te  Te6       1.0  0.25000  0.54000  0.25900  1.0000
  Te  Te7       1.0  0.24600  0.35500  0.48300  1.0000
  Te  Te8       1.0  0.74700  0.85700  0.49400  1.0000
  Te  Te9       1.0  0.24700  0.14300  0.50600  1.0000
  Te  Te10      1.0  0.74600  0.64500  0.51700  1.0000
  Te  Te11      1.0  0.75000  0.46000  0.74100  1.0000
  Te  Te12      1.0  0.75800  0.24900  0.74600  1.0000
  Te  Te13      1.0  0.25800  0.74900  0.75400  1.0000
  Te  Te14      1.0  0.25000  0.96000  0.75900  1.0000
  Te  Te15      1.0  0.24600  0.14500  0.98300  1.0000
  Te  Te16      1.0  0.74700  0.64300  0.99400  1.0000
