data_image0
_chemical_formula_structural       Cs4Cu8Ta4Te16
_chemical_formula_sum              "Cs4 Cu8 Ta4 Te16"
_cell_length_a       8.30949
_cell_length_b       6.04734
_cell_length_c       20.8242
_cell_angle_alpha    90
_cell_angle_beta     90
_cell_angle_gamma    90

_space_group_name_H-M_alt    "P 1"
_space_group_IT_number       1

loop_
  _space_group_symop_operation_xyz
  'x, y, z'

loop_
  _atom_site_type_symbol
  _atom_site_label
  _atom_site_symmetry_multiplicity
  _atom_site_fract_x
  _atom_site_fract_y
  _atom_site_fract_z
  _atom_site_occupancy
  Cs  Cs1       1.0  0.79600  0.01420  0.06150  1.0000
  Cs  Cs2       1.0  0.29600  0.01420  0.43800  1.0000
  Cs  Cs3       1.0  0.70400  0.51400  0.56200  1.0000
  Cs  Cs4       1.0  0.20400  0.51400  0.93800  1.0000
  Cu  Cu1       1.0  0.29400  0.75900  0.14600  1.0000
  Cu  Cu2       1.0  0.03710  0.26800  0.24700  1.0000
  Cu  Cu3       1.0  0.53700  0.26800  0.25300  1.0000
  Cu  Cu4       1.0  0.79400  0.75900  0.35400  1.0000
  Cu  Cu5       1.0  0.20600  0.25900  0.64600  1.0000
  Cu  Cu6       1.0  0.46300  0.76800  0.74700  1.0000
  Cu  Cu7       1.0  0.96300  0.76800  0.75300  1.0000
  Cu  Cu8       1.0  0.70600  0.25900  0.85400  1.0000
  Ta  Ta1       1.0  0.29500  0.25900  0.14700  1.0000
  Ta  Ta2       1.0  0.79500  0.25900  0.35300  1.0000
  Ta  Ta3       1.0  0.20500  0.75900  0.64700  1.0000
  Ta  Ta4       1.0  0.70500  0.75900  0.85300  1.0000
  Te  Te1       1.0  0.31000  0.01010  0.04360  1.0000
  Te  Te2       1.0  0.03470  0.51100  0.14200  1.0000
  Te  Te3       1.0  0.55300  0.51200  0.15000  1.0000
  Te  Te4       1.0  0.78700  0.00144  0.24900  1.0000
  Te  Te5       1.0  0.28700  0.00144  0.25100  1.0000
  Te  Te6       1.0  0.05310  0.51200  0.35000  1.0000
  Te  Te7       1.0  0.53500  0.51100  0.35800  1.0000
  Te  Te8       1.0  0.81000  0.01010  0.45600  1.0000
  Te  Te9       1.0  0.19000  0.51000  0.54400  1.0000
  Te  Te10      1.0  0.46500  0.01090  0.64200  1.0000
  Te  Te11      1.0  0.94700  0.01240  0.65000  1.0000
  Te  Te12      1.0  0.71300  0.50100  0.74900  1.0000
  Te  Te13      1.0  0.21300  0.50100  0.75100  1.0000
  Te  Te14      1.0  0.44700  0.01240  0.85000  1.0000
  Te  Te15      1.0  0.96500  0.01090  0.85800  1.0000
  Te  Te16      1.0  0.69000  0.51000  0.95600  1.0000
