data_image0
_chemical_formula_structural       Cs4O20V8
_chemical_formula_sum              "Cs4 O20 V8"
_cell_length_a       6.9055
_cell_length_b       9.87716
_cell_length_c       7.7557
_cell_angle_alpha    90
_cell_angle_beta     90.7479
_cell_angle_gamma    90

_space_group_name_H-M_alt    "P 1"
_space_group_IT_number       1

loop_
  _space_group_symop_operation_xyz
  'x, y, z'

loop_
  _atom_site_type_symbol
  _atom_site_label
  _atom_site_symmetry_multiplicity
  _atom_site_fract_x
  _atom_site_fract_y
  _atom_site_fract_z
  _atom_site_occupancy
  Cs  Cs1       1.0  0.61700  0.12600  0.22100  1.0000
  Cs  Cs2       1.0  0.38300  0.62600  0.27900  1.0000
  Cs  Cs3       1.0  0.61700  0.37400  0.72100  1.0000
  Cs  Cs4       1.0  0.38300  0.87400  0.77900  1.0000
  O   O1        1.0  0.07850  0.38800  0.02620  1.0000
  O   O2        1.0  0.65800  0.82700  0.09190  1.0000
  O   O3        1.0  0.65700  0.41900  0.11300  1.0000
  O   O4        1.0  0.06110  0.86400  0.13500  1.0000
  O   O5        1.0  0.12000  0.13100  0.19100  1.0000
  O   O6        1.0  0.88000  0.63100  0.30900  1.0000
  O   O7        1.0  0.93900  0.36400  0.36500  1.0000
  O   O8        1.0  0.34300  0.91900  0.38700  1.0000
  O   O9        1.0  0.34200  0.32700  0.40800  1.0000
  O   O10       1.0  0.92100  0.88800  0.47400  1.0000
  O   O11       1.0  0.07850  0.11200  0.52600  1.0000
  O   O12       1.0  0.65800  0.67300  0.59200  1.0000
  O   O13       1.0  0.65700  0.08070  0.61300  1.0000
  O   O14       1.0  0.06110  0.63600  0.63500  1.0000
  O   O15       1.0  0.12000  0.36900  0.69100  1.0000
  O   O16       1.0  0.88000  0.86900  0.80900  1.0000
  O   O17       1.0  0.93900  0.13600  0.86500  1.0000
  O   O18       1.0  0.34300  0.58100  0.88700  1.0000
  O   O19       1.0  0.34200  0.17300  0.90800  1.0000
  O   O20       1.0  0.92100  0.61200  0.97400  1.0000
  V   V1        1.0  0.87500  0.79400  0.01350  1.0000
  V   V2        1.0  0.87600  0.47500  0.16300  1.0000
  V   V3        1.0  0.12400  0.97500  0.33700  1.0000
  V   V4        1.0  0.12500  0.29400  0.48600  1.0000
  V   V5        1.0  0.87500  0.70600  0.51400  1.0000
  V   V6        1.0  0.87600  0.02490  0.66300  1.0000
  V   V7        1.0  0.12400  0.52500  0.83700  1.0000
  V   V8        1.0  0.12500  0.20600  0.98600  1.0000
