data_image0
_chemical_formula_structural       Cs2Mo2N6O22
_chemical_formula_sum              "Cs2 Mo2 N6 O22"
_cell_length_a       7.40697
_cell_length_b       7.40697
_cell_length_c       9.71663
_cell_angle_alpha    110.428
_cell_angle_beta     69.5724
_cell_angle_gamma    114.775

_space_group_name_H-M_alt    "P 1"
_space_group_IT_number       1

loop_
  _space_group_symop_operation_xyz
  'x, y, z'

loop_
  _atom_site_type_symbol
  _atom_site_label
  _atom_site_symmetry_multiplicity
  _atom_site_fract_x
  _atom_site_fract_y
  _atom_site_fract_z
  _atom_site_occupancy
  Cs  Cs1       1.0  0.99800  0.99800  0.00000  1.0000
  Cs  Cs2       1.0  0.60400  0.60400  0.50000  1.0000
  Mo  Mo1       1.0  0.29300  0.68800  0.21400  1.0000
  Mo  Mo2       1.0  0.68800  0.29300  0.78600  1.0000
  N   N1        1.0  0.78700  0.47500  0.08760  1.0000
  N   N2        1.0  0.31400  0.08950  0.28900  1.0000
  N   N3        1.0  0.79500  0.13600  0.44400  1.0000
  N   N4        1.0  0.13600  0.79500  0.55600  1.0000
  N   N5        1.0  0.08950  0.31400  0.71100  1.0000
  N   N6        1.0  0.47500  0.78700  0.91200  1.0000
  O   O1        1.0  0.52300  0.79000  0.03550  1.0000
  O   O2        1.0  0.70800  0.29500  0.09580  1.0000
  O   O3        1.0  0.16200  0.45200  0.11800  1.0000
  O   O4        1.0  0.86300  0.62300  0.18300  1.0000
  O   O5        1.0  0.21300  0.93200  0.19700  1.0000
  O   O6        1.0  0.46800  0.64800  0.26600  1.0000
  O   O7        1.0  0.29200  0.25500  0.32200  1.0000
  O   O8        1.0  0.43000  0.05080  0.33700  1.0000
  O   O9        1.0  0.82300  0.99000  0.34100  1.0000
  O   O10       1.0  0.09080  0.71800  0.41500  1.0000
  O   O11       1.0  0.82600  0.30700  0.43500  1.0000
  O   O12       1.0  0.30700  0.82600  0.56500  1.0000
  O   O13       1.0  0.71800  0.09080  0.58500  1.0000
  O   O14       1.0  0.99000  0.82300  0.65900  1.0000
  O   O15       1.0  0.05080  0.43000  0.66300  1.0000
  O   O16       1.0  0.25500  0.29200  0.67800  1.0000
  O   O17       1.0  0.64800  0.46800  0.73400  1.0000
  O   O18       1.0  0.93200  0.21300  0.80300  1.0000
  O   O19       1.0  0.62300  0.86300  0.81700  1.0000
  O   O20       1.0  0.45200  0.16200  0.88200  1.0000
  O   O21       1.0  0.29500  0.70800  0.90400  1.0000
  O   O22       1.0  0.79000  0.52300  0.96500  1.0000
