data_image0
_chemical_formula_structural       Ca4H8O16Si4
_chemical_formula_sum              "Ca4 H8 O16 Si4"
_cell_length_a       5.95022
_cell_length_b       6.23815
_cell_length_c       10.2347
_cell_angle_alpha    97.969
_cell_angle_beta     73.1007
_cell_angle_gamma    118.485

_space_group_name_H-M_alt    "P 1"
_space_group_IT_number       1

loop_
  _space_group_symop_operation_xyz
  'x, y, z'

loop_
  _atom_site_type_symbol
  _atom_site_label
  _atom_site_symmetry_multiplicity
  _atom_site_fract_x
  _atom_site_fract_y
  _atom_site_fract_z
  _atom_site_occupancy
  Ca  Ca1       1.0  0.08280  0.31400  0.14700  1.0000
  Ca  Ca2       1.0  0.48000  0.81400  0.35300  1.0000
  Ca  Ca3       1.0  0.01840  0.18600  0.64700  1.0000
  Ca  Ca4       1.0  0.91600  0.68600  0.85300  1.0000
  H   H1        1.0  0.59500  0.90300  0.06070  1.0000
  H   H2        1.0  0.69100  0.49500  0.13900  1.0000
  H   H3        1.0  0.07960  0.99500  0.36100  1.0000
  H   H4        1.0  0.90600  0.40300  0.43900  1.0000
  H   H5        1.0  0.94300  0.59700  0.56100  1.0000
  H   H6        1.0  0.44600  0.00455  0.63900  1.0000
  H   H7        1.0  0.33400  0.50500  0.86100  1.0000
  H   H8        1.0  0.75300  0.09750  0.93900  1.0000
  O   O1        1.0  0.24800  0.00000  0.00000  1.0000
  O   O2        1.0  0.77800  0.00000  0.00000  1.0000
  O   O3        1.0  0.88300  0.55800  0.07250  1.0000
  O   O4        1.0  0.30200  0.75500  0.17300  1.0000
  O   O5        1.0  0.44200  0.42800  0.24700  1.0000
  O   O6        1.0  0.93900  0.92800  0.25300  1.0000
  O   O7        1.0  0.72500  0.25500  0.32700  1.0000
  O   O8        1.0  0.20500  0.05810  0.42800  1.0000
  O   O9        1.0  0.02760  0.50000  0.50000  1.0000
  O   O10       1.0  0.49800  0.50000  0.50000  1.0000
  O   O11       1.0  0.57500  0.94200  0.57200  1.0000
  O   O12       1.0  0.79700  0.74500  0.67300  1.0000
  O   O13       1.0  0.26400  0.07220  0.74700  1.0000
  O   O14       1.0  0.26100  0.57200  0.75300  1.0000
  O   O15       1.0  0.72100  0.24500  0.82700  1.0000
  O   O16       1.0  0.39700  0.44200  0.92800  1.0000
  Si  Si1       1.0  0.09610  0.81400  0.13300  1.0000
  Si  Si2       1.0  0.47900  0.31400  0.36700  1.0000
  Si  Si3       1.0  0.53200  0.68600  0.63300  1.0000
  Si  Si4       1.0  0.41500  0.18600  0.86700  1.0000
