data_image0
_chemical_formula_structural       Ce8S20U4
_chemical_formula_sum              "Ce8 S20 U4"
_cell_length_a       12.0211
_cell_length_b       8.18529
_cell_length_c       7.56428
_cell_angle_alpha    90
_cell_angle_beta     90
_cell_angle_gamma    90

_space_group_name_H-M_alt    "P 1"
_space_group_IT_number       1

loop_
  _space_group_symop_operation_xyz
  'x, y, z'

loop_
  _atom_site_type_symbol
  _atom_site_label
  _atom_site_symmetry_multiplicity
  _atom_site_fract_x
  _atom_site_fract_y
  _atom_site_fract_z
  _atom_site_occupancy
  Ce  Ce1       1.0  0.82400  0.00036  0.02900  1.0000
  Ce  Ce2       1.0  0.82400  0.50000  0.02900  1.0000
  Ce  Ce3       1.0  0.32400  0.00036  0.47100  1.0000
  Ce  Ce4       1.0  0.32400  0.50000  0.47100  1.0000
  Ce  Ce5       1.0  0.67600  0.50000  0.52900  1.0000
  Ce  Ce6       1.0  0.67600  0.00000  0.52900  1.0000
  Ce  Ce7       1.0  0.17600  0.50000  0.97100  1.0000
  Ce  Ce8       1.0  0.17600  0.00000  0.97100  1.0000
  S   S1        1.0  0.00105  0.75000  0.04970  1.0000
  S   S2        1.0  0.59300  0.03990  0.16300  1.0000
  S   S3        1.0  0.59300  0.46000  0.16300  1.0000
  S   S4        1.0  0.31300  0.25000  0.16600  1.0000
  S   S5        1.0  0.28800  0.75000  0.19100  1.0000
  S   S6        1.0  0.78800  0.75000  0.30900  1.0000
  S   S7        1.0  0.81300  0.25000  0.33400  1.0000
  S   S8        1.0  0.09260  0.03990  0.33700  1.0000
  S   S9        1.0  0.09260  0.46000  0.33700  1.0000
  S   S10       1.0  0.50100  0.75000  0.45000  1.0000
  S   S11       1.0  0.49900  0.25000  0.55000  1.0000
  S   S12       1.0  0.90700  0.54000  0.66300  1.0000
  S   S13       1.0  0.90700  0.96000  0.66300  1.0000
  S   S14       1.0  0.18700  0.75000  0.66600  1.0000
  S   S15       1.0  0.21200  0.25000  0.69100  1.0000
  S   S16       1.0  0.71200  0.25000  0.80900  1.0000
  S   S17       1.0  0.68700  0.75000  0.83400  1.0000
  S   S18       1.0  0.40700  0.54000  0.83700  1.0000
  S   S19       1.0  0.40700  0.96000  0.83700  1.0000
  S   S20       1.0  0.99900  0.25000  0.95000  1.0000
  U   U1        1.0  0.50800  0.75000  0.06660  1.0000
  U   U2        1.0  0.00759  0.75000  0.43300  1.0000
  U   U3        1.0  0.99200  0.25000  0.56700  1.0000
  U   U4        1.0  0.49200  0.25000  0.93300  1.0000
