data_image0
_chemical_formula_structural       Ca4Se20U8
_chemical_formula_sum              "Ca4 Se20 U8"
_cell_length_a       12.4274
_cell_length_b       8.16442
_cell_length_c       7.68483
_cell_angle_alpha    90
_cell_angle_beta     90
_cell_angle_gamma    90

_space_group_name_H-M_alt    "P 1"
_space_group_IT_number       1

loop_
  _space_group_symop_operation_xyz
  'x, y, z'

loop_
  _atom_site_type_symbol
  _atom_site_label
  _atom_site_symmetry_multiplicity
  _atom_site_fract_x
  _atom_site_fract_y
  _atom_site_fract_z
  _atom_site_occupancy
  Ca  Ca1       1.0  0.50600  0.75000  0.07520  1.0000
  Ca  Ca2       1.0  0.00616  0.75000  0.42500  1.0000
  Ca  Ca3       1.0  0.99400  0.25000  0.57500  1.0000
  Ca  Ca4       1.0  0.49400  0.25000  0.92500  1.0000
  Se  Se1       1.0  0.00157  0.75000  0.02480  1.0000
  Se  Se2       1.0  0.61100  0.04370  0.16800  1.0000
  Se  Se3       1.0  0.61100  0.45600  0.16800  1.0000
  Se  Se4       1.0  0.31600  0.25000  0.17600  1.0000
  Se  Se5       1.0  0.28600  0.75000  0.20300  1.0000
  Se  Se6       1.0  0.78600  0.75000  0.29700  1.0000
  Se  Se7       1.0  0.81600  0.25000  0.32400  1.0000
  Se  Se8       1.0  0.11100  0.04370  0.33200  1.0000
  Se  Se9       1.0  0.11100  0.45600  0.33200  1.0000
  Se  Se10      1.0  0.50200  0.75000  0.47500  1.0000
  Se  Se11      1.0  0.49800  0.25000  0.52500  1.0000
  Se  Se12      1.0  0.88900  0.54400  0.66800  1.0000
  Se  Se13      1.0  0.88900  0.95600  0.66800  1.0000
  Se  Se14      1.0  0.18400  0.75000  0.67600  1.0000
  Se  Se15      1.0  0.21400  0.25000  0.70300  1.0000
  Se  Se16      1.0  0.71400  0.25000  0.79700  1.0000
  Se  Se17      1.0  0.68400  0.75000  0.82400  1.0000
  Se  Se18      1.0  0.38900  0.54400  0.83200  1.0000
  Se  Se19      1.0  0.38900  0.95600  0.83200  1.0000
  Se  Se20      1.0  0.99800  0.25000  0.97500  1.0000
  U   U1        1.0  0.81800  0.00028  0.01340  1.0000
  U   U2        1.0  0.81800  0.50000  0.01340  1.0000
  U   U3        1.0  0.31800  0.00028  0.48700  1.0000
  U   U4        1.0  0.31800  0.50000  0.48700  1.0000
  U   U5        1.0  0.68200  0.50000  0.51300  1.0000
  U   U6        1.0  0.68200  0.00000  0.51300  1.0000
  U   U7        1.0  0.18200  0.50000  0.98700  1.0000
  U   U8        1.0  0.18200  0.00000  0.98700  1.0000
