data_image0
_chemical_formula_structural       As8S16Tl8
_chemical_formula_sum              "As8 S16 Tl8"
_cell_length_a       12.7635
_cell_length_b       11.5686
_cell_length_c       6.24599
_cell_angle_alpha    90
_cell_angle_beta     105.04
_cell_angle_gamma    90

_space_group_name_H-M_alt    "P 1"
_space_group_IT_number       1

loop_
  _space_group_symop_operation_xyz
  'x, y, z'

loop_
  _atom_site_type_symbol
  _atom_site_label
  _atom_site_symmetry_multiplicity
  _atom_site_fract_x
  _atom_site_fract_y
  _atom_site_fract_z
  _atom_site_occupancy
  As  As1       1.0  0.20000  0.83100  0.23200  1.0000
  As  As2       1.0  0.70000  0.66900  0.23200  1.0000
  As  As3       1.0  0.85900  0.41100  0.46200  1.0000
  As  As4       1.0  0.35900  0.08850  0.46200  1.0000
  As  As5       1.0  0.64100  0.91100  0.53800  1.0000
  As  As6       1.0  0.14100  0.58900  0.53800  1.0000
  As  As7       1.0  0.30000  0.33100  0.76800  1.0000
  As  As8       1.0  0.80000  0.16900  0.76800  1.0000
  S   S1        1.0  0.65000  0.93900  0.19000  1.0000
  S   S2        1.0  0.15000  0.56100  0.19000  1.0000
  S   S3        1.0  0.18200  0.03350  0.27100  1.0000
  S   S4        1.0  0.68200  0.46700  0.27100  1.0000
  S   S5        1.0  0.87700  0.68600  0.28900  1.0000
  S   S6        1.0  0.37700  0.81400  0.28900  1.0000
  S   S7        1.0  0.32700  0.28700  0.42000  1.0000
  S   S8        1.0  0.82700  0.21300  0.42000  1.0000
  S   S9        1.0  0.17300  0.78700  0.58000  1.0000
  S   S10       1.0  0.67300  0.71300  0.58000  1.0000
  S   S11       1.0  0.62300  0.18600  0.71100  1.0000
  S   S12       1.0  0.12300  0.31400  0.71100  1.0000
  S   S13       1.0  0.31800  0.53300  0.72900  1.0000
  S   S14       1.0  0.81800  0.96700  0.72900  1.0000
  S   S15       1.0  0.85000  0.43900  0.81000  1.0000
  S   S16       1.0  0.35000  0.06150  0.81000  1.0000
  Tl  Tl1       1.0  0.55800  0.18000  0.15600  1.0000
  Tl  Tl2       1.0  0.05770  0.32000  0.15600  1.0000
  Tl  Tl3       1.0  0.89300  0.94300  0.26700  1.0000
  Tl  Tl4       1.0  0.39300  0.55700  0.26700  1.0000
  Tl  Tl5       1.0  0.60700  0.44300  0.73300  1.0000
  Tl  Tl6       1.0  0.10700  0.05650  0.73300  1.0000
  Tl  Tl7       1.0  0.94200  0.68000  0.84400  1.0000
  Tl  Tl8       1.0  0.44200  0.82000  0.84400  1.0000
