data_image0
_chemical_formula_structural       C12Cs4Mn2N12Na2
_chemical_formula_sum              "C12 Cs4 Mn2 N12 Na2"
_cell_length_a       7.50739
_cell_length_b       7.70404
_cell_length_c       10.8239
_cell_angle_alpha    90
_cell_angle_beta     90.2061
_cell_angle_gamma    90

_space_group_name_H-M_alt    "P 1"
_space_group_IT_number       1

loop_
  _space_group_symop_operation_xyz
  'x, y, z'

loop_
  _atom_site_type_symbol
  _atom_site_label
  _atom_site_symmetry_multiplicity
  _atom_site_fract_x
  _atom_site_fract_y
  _atom_site_fract_z
  _atom_site_occupancy
  C   C1        1.0  0.78800  0.14300  0.02260  1.0000
  C   C2        1.0  0.85500  0.79300  0.02590  1.0000
  C   C3        1.0  0.04710  0.00816  0.17700  1.0000
  C   C4        1.0  0.45300  0.50800  0.32300  1.0000
  C   C5        1.0  0.64500  0.29300  0.47400  1.0000
  C   C6        1.0  0.71200  0.64300  0.47700  1.0000
  C   C7        1.0  0.28800  0.35700  0.52300  1.0000
  C   C8        1.0  0.35500  0.70700  0.52600  1.0000
  C   C9        1.0  0.54700  0.49200  0.67700  1.0000
  C   C10       1.0  0.95300  0.99200  0.82300  1.0000
  C   C11       1.0  0.14500  0.20700  0.97400  1.0000
  C   C12       1.0  0.21200  0.85700  0.97700  1.0000
  Cs  Cs1       1.0  0.51100  0.95300  0.25000  1.0000
  Cs  Cs2       1.0  0.98900  0.45300  0.25000  1.0000
  Cs  Cs3       1.0  0.01140  0.54700  0.75000  1.0000
  Cs  Cs4       1.0  0.48900  0.04660  0.75000  1.0000
  Mn  Mn1       1.0  0.00000  0.00000  0.00000  1.0000
  Mn  Mn2       1.0  0.50000  0.50000  0.50000  1.0000
  N   N1        1.0  0.66100  0.23000  0.03730  1.0000
  N   N2        1.0  0.77100  0.66600  0.04180  1.0000
  N   N3        1.0  0.42200  0.51700  0.21700  1.0000
  N   N4        1.0  0.07780  0.01740  0.28300  1.0000
  N   N5        1.0  0.72900  0.16600  0.45800  1.0000
  N   N6        1.0  0.83900  0.73000  0.46300  1.0000
  N   N7        1.0  0.16100  0.27000  0.53700  1.0000
  N   N8        1.0  0.27100  0.83400  0.54200  1.0000
  N   N9        1.0  0.92200  0.98300  0.71700  1.0000
  N   N10       1.0  0.57800  0.48300  0.78300  1.0000
  N   N11       1.0  0.22900  0.33400  0.95800  1.0000
  N   N12       1.0  0.33900  0.77000  0.96300  1.0000
  Na  Na1       1.0  0.50000  0.50000  0.00000  1.0000
  Na  Na2       1.0  0.00000  0.00000  0.50000  1.0000
