data_image0
_chemical_formula_structural       C4F8Gd4K4O12
_chemical_formula_sum              "C4 F8 Gd4 K4 O12"
_cell_length_a       6.47495
_cell_length_b       6.47495
_cell_length_c       11.4009
_cell_angle_alpha    99.3503
_cell_angle_beta     99.3503
_cell_angle_gamma    115.332

_space_group_name_H-M_alt    "P 1"
_space_group_IT_number       1

loop_
  _space_group_symop_operation_xyz
  'x, y, z'

loop_
  _atom_site_type_symbol
  _atom_site_label
  _atom_site_symmetry_multiplicity
  _atom_site_fract_x
  _atom_site_fract_y
  _atom_site_fract_z
  _atom_site_occupancy
  C   C1        1.0  0.50300  0.25300  0.00627  1.0000
  C   C2        1.0  0.74700  0.49700  0.49400  1.0000
  C   C3        1.0  0.25300  0.50300  0.50600  1.0000
  C   C4        1.0  0.49700  0.74700  0.99400  1.0000
  F   F1        1.0  0.15200  0.18800  0.21800  1.0000
  F   F2        1.0  0.06610  0.53000  0.21800  1.0000
  F   F3        1.0  0.81200  0.84800  0.28200  1.0000
  F   F4        1.0  0.47000  0.93400  0.28200  1.0000
  F   F5        1.0  0.53000  0.06610  0.71800  1.0000
  F   F6        1.0  0.18800  0.15200  0.71800  1.0000
  F   F7        1.0  0.93400  0.47000  0.78200  1.0000
  F   F8        1.0  0.84800  0.81200  0.78200  1.0000
  Gd  Gd1       1.0  0.80800  0.19200  0.25000  1.0000
  Gd  Gd2       1.0  0.44200  0.55800  0.25000  1.0000
  Gd  Gd3       1.0  0.55800  0.44200  0.75000  1.0000
  Gd  Gd4       1.0  0.19200  0.80800  0.75000  1.0000
  K   K1        1.0  0.04150  0.79100  0.08300  1.0000
  K   K2        1.0  0.20900  0.95900  0.41700  1.0000
  K   K3        1.0  0.79100  0.04150  0.58300  1.0000
  K   K4        1.0  0.95900  0.20900  0.91700  1.0000
  O   O1        1.0  0.36300  0.61300  0.05120  1.0000
  O   O2        1.0  0.68800  0.93800  0.05120  1.0000
  O   O3        1.0  0.56300  0.31300  0.12700  1.0000
  O   O4        1.0  0.68700  0.43700  0.37300  1.0000
  O   O5        1.0  0.06150  0.31200  0.44900  1.0000
  O   O6        1.0  0.38700  0.63700  0.44900  1.0000
  O   O7        1.0  0.61300  0.36300  0.55100  1.0000
  O   O8        1.0  0.93800  0.68800  0.55100  1.0000
  O   O9        1.0  0.31300  0.56300  0.62700  1.0000
  O   O10       1.0  0.43700  0.68700  0.87300  1.0000
  O   O11       1.0  0.31200  0.06150  0.94900  1.0000
  O   O12       1.0  0.63700  0.38700  0.94900  1.0000
