data_image0
_chemical_formula_structural       Ce8Hf4Se20
_chemical_formula_sum              "Ce8 Hf4 Se20"
_cell_length_a       12.1564
_cell_length_b       7.78003
_cell_length_c       8.46133
_cell_angle_alpha    90
_cell_angle_beta     90
_cell_angle_gamma    90

_space_group_name_H-M_alt    "P 1"
_space_group_IT_number       1

loop_
  _space_group_symop_operation_xyz
  'x, y, z'

loop_
  _atom_site_type_symbol
  _atom_site_label
  _atom_site_symmetry_multiplicity
  _atom_site_fract_x
  _atom_site_fract_y
  _atom_site_fract_z
  _atom_site_occupancy
  Ce  Ce1       1.0  0.32500  0.54300  0.00231  1.0000
  Ce  Ce2       1.0  0.82500  0.95700  0.00231  1.0000
  Ce  Ce3       1.0  0.32500  0.54300  0.49800  1.0000
  Ce  Ce4       1.0  0.82500  0.95700  0.49800  1.0000
  Ce  Ce5       1.0  0.17500  0.04290  0.50200  1.0000
  Ce  Ce6       1.0  0.67500  0.45700  0.50200  1.0000
  Ce  Ce7       1.0  0.17500  0.04290  0.99800  1.0000
  Ce  Ce8       1.0  0.67500  0.45700  0.99800  1.0000
  Hf  Hf1       1.0  0.00829  0.57500  0.25000  1.0000
  Hf  Hf2       1.0  0.50800  0.92500  0.25000  1.0000
  Hf  Hf3       1.0  0.49200  0.07540  0.75000  1.0000
  Hf  Hf4       1.0  0.99200  0.42500  0.75000  1.0000
  Se  Se1       1.0  0.42000  0.16900  0.03650  1.0000
  Se  Se2       1.0  0.92000  0.33100  0.03650  1.0000
  Se  Se3       1.0  0.68400  0.15200  0.25000  1.0000
  Se  Se4       1.0  0.18400  0.34800  0.25000  1.0000
  Se  Se5       1.0  0.50600  0.55900  0.25000  1.0000
  Se  Se6       1.0  0.79400  0.67100  0.25000  1.0000
  Se  Se7       1.0  0.29400  0.82900  0.25000  1.0000
  Se  Se8       1.0  0.00614  0.94100  0.25000  1.0000
  Se  Se9       1.0  0.42000  0.16900  0.46400  1.0000
  Se  Se10      1.0  0.92000  0.33100  0.46400  1.0000
  Se  Se11      1.0  0.08000  0.66900  0.53600  1.0000
  Se  Se12      1.0  0.58000  0.83100  0.53600  1.0000
  Se  Se13      1.0  0.99400  0.05880  0.75000  1.0000
  Se  Se14      1.0  0.70600  0.17100  0.75000  1.0000
  Se  Se15      1.0  0.20600  0.32900  0.75000  1.0000
  Se  Se16      1.0  0.49400  0.44100  0.75000  1.0000
  Se  Se17      1.0  0.81600  0.65200  0.75000  1.0000
  Se  Se18      1.0  0.31600  0.84800  0.75000  1.0000
  Se  Se19      1.0  0.08000  0.66900  0.96400  1.0000
  Se  Se20      1.0  0.58000  0.83100  0.96400  1.0000
