data_image0
_chemical_formula_structural       H8Na6O14P4
_chemical_formula_sum              "H8 Na6 O14 P4"
_cell_length_a       5.94321
_cell_length_b       6.10817
_cell_length_c       11.2772
_cell_angle_alpha    99.0891
_cell_angle_beta     96.0787
_cell_angle_gamma    117.65

_space_group_name_H-M_alt    "P 1"
_space_group_IT_number       1

loop_
  _space_group_symop_operation_xyz
  'x, y, z'

loop_
  _atom_site_type_symbol
  _atom_site_label
  _atom_site_symmetry_multiplicity
  _atom_site_fract_x
  _atom_site_fract_y
  _atom_site_fract_z
  _atom_site_occupancy
  H   H1        1.0  0.25600  0.23200  0.32600  1.0000
  H   H2        1.0  0.09110  0.37400  0.35500  1.0000
  H   H3        1.0  0.24200  0.89400  0.38700  1.0000
  H   H4        1.0  0.77800  0.20200  0.48700  1.0000
  H   H5        1.0  0.22200  0.79800  0.51300  1.0000
  H   H6        1.0  0.75800  0.10600  0.61300  1.0000
  H   H7        1.0  0.90900  0.62600  0.64500  1.0000
  H   H8        1.0  0.74400  0.76800  0.67400  1.0000
  Na  Na1       1.0  0.92500  0.82700  0.12100  1.0000
  Na  Na2       1.0  0.33200  0.49000  0.14900  1.0000
  Na  Na3       1.0  0.72700  0.69500  0.42400  1.0000
  Na  Na4       1.0  0.27300  0.30500  0.57600  1.0000
  Na  Na5       1.0  0.66800  0.51000  0.85100  1.0000
  Na  Na6       1.0  0.07530  0.17300  0.87900  1.0000
  O   O1        1.0  0.92000  0.18400  0.05690  1.0000
  O   O2        1.0  0.63000  0.39900  0.05810  1.0000
  O   O3        1.0  0.30800  0.98200  0.25100  1.0000
  O   O4        1.0  0.67400  0.87200  0.25400  1.0000
  O   O5        1.0  0.77800  0.33000  0.34700  1.0000
  O   O6        1.0  0.27100  0.40100  0.35900  1.0000
  O   O7        1.0  0.18300  0.90300  0.46600  1.0000
  O   O8        1.0  0.81700  0.09720  0.53400  1.0000
  O   O9        1.0  0.72900  0.59900  0.64100  1.0000
  O   O10       1.0  0.22200  0.67000  0.65300  1.0000
  O   O11       1.0  0.32600  0.12800  0.74600  1.0000
  O   O12       1.0  0.69200  0.01780  0.74900  1.0000
  O   O13       1.0  0.37000  0.60100  0.94200  1.0000
  O   O14       1.0  0.08010  0.81600  0.94300  1.0000
  P   P1        1.0  0.65900  0.16700  0.07110  1.0000
  P   P2        1.0  0.59900  0.07950  0.25100  1.0000
  P   P3        1.0  0.40100  0.92100  0.74900  1.0000
  P   P4        1.0  0.34100  0.83300  0.92900  1.0000
