data_image0
_chemical_formula_structural       H16I12N4
_chemical_formula_sum              "H16 I12 N4"
_cell_length_a       10.7388
_cell_length_b       6.6584
_cell_length_c       9.63297
_cell_angle_alpha    90
_cell_angle_beta     90
_cell_angle_gamma    90

_space_group_name_H-M_alt    "P 1"
_space_group_IT_number       1

loop_
  _space_group_symop_operation_xyz
  'x, y, z'

loop_
  _atom_site_type_symbol
  _atom_site_label
  _atom_site_symmetry_multiplicity
  _atom_site_fract_x
  _atom_site_fract_y
  _atom_site_fract_z
  _atom_site_occupancy
  H   H1        1.0  0.67300  0.62200  0.03530  1.0000
  H   H2        1.0  0.67300  0.87800  0.03530  1.0000
  H   H3        1.0  0.43000  0.25000  0.06620  1.0000
  H   H4        1.0  0.27500  0.25000  0.10700  1.0000
  H   H5        1.0  0.77500  0.25000  0.39300  1.0000
  H   H6        1.0  0.93000  0.25000  0.43400  1.0000
  H   H7        1.0  0.17300  0.62200  0.46500  1.0000
  H   H8        1.0  0.17300  0.87800  0.46500  1.0000
  H   H9        1.0  0.82700  0.12200  0.53500  1.0000
  H   H10       1.0  0.82700  0.37800  0.53500  1.0000
  H   H11       1.0  0.07040  0.75000  0.56600  1.0000
  H   H12       1.0  0.22500  0.75000  0.60700  1.0000
  H   H13       1.0  0.72500  0.75000  0.89300  1.0000
  H   H14       1.0  0.57000  0.75000  0.93400  1.0000
  H   H15       1.0  0.32700  0.12200  0.96500  1.0000
  H   H16       1.0  0.32700  0.37800  0.96500  1.0000
  I   I1        1.0  0.12400  0.75000  0.05340  1.0000
  I   I2        1.0  0.65700  0.25000  0.15600  1.0000
  I   I3        1.0  0.91800  0.75000  0.23900  1.0000
  I   I4        1.0  0.41800  0.75000  0.26100  1.0000
  I   I5        1.0  0.15700  0.25000  0.34400  1.0000
  I   I6        1.0  0.62400  0.75000  0.44700  1.0000
  I   I7        1.0  0.37600  0.25000  0.55300  1.0000
  I   I8        1.0  0.84300  0.75000  0.65600  1.0000
  I   I9        1.0  0.58200  0.25000  0.73900  1.0000
  I   I10       1.0  0.08180  0.25000  0.76100  1.0000
  I   I11       1.0  0.34300  0.75000  0.84400  1.0000
  I   I12       1.0  0.87600  0.25000  0.94700  1.0000
  N   N1        1.0  0.33900  0.25000  0.02550  1.0000
  N   N2        1.0  0.83900  0.25000  0.47500  1.0000
  N   N3        1.0  0.16100  0.75000  0.52500  1.0000
  N   N4        1.0  0.66100  0.75000  0.97500  1.0000
