data_image0
_chemical_formula_structural       Nb2O5Tl2
_chemical_formula_sum              "Nb2 O5 Tl2"
_cell_length_a       8.7886
_cell_length_b       4.01833
_cell_length_c       4.01833
_cell_angle_alpha    90
_cell_angle_beta     90
_cell_angle_gamma    90

_space_group_name_H-M_alt    "P 1"
_space_group_IT_number       1

loop_
  _space_group_symop_operation_xyz
  'x, y, z'

loop_
  _atom_site_type_symbol
  _atom_site_label
  _atom_site_symmetry_multiplicity
  _atom_site_fract_x
  _atom_site_fract_y
  _atom_site_fract_z
  _atom_site_occupancy
  Nb  Nb1       1.0  0.27200  0.50000  0.50000  1.0000
  Nb  Nb2       1.0  0.72800  0.50000  0.50000  1.0000
  O   O1        1.0  0.25500  0.50000  0.00000  1.0000
  O   O2        1.0  0.74500  0.50000  0.00000  1.0000
  O   O3        1.0  0.25500  0.00000  0.50000  1.0000
  O   O4        1.0  0.74500  0.00000  0.50000  1.0000
  O   O5        1.0  0.50000  0.50000  0.50000  1.0000
  Tl  Tl1       1.0  0.00000  0.00000  0.00000  1.0000
  Tl  Tl2       1.0  0.50000  0.00000  0.00000  1.0000
