data_image0
_chemical_formula_structural       F4Ge4Ho6Li2O16
_chemical_formula_sum              "F4 Ge4 Ho6 Li2 O16"
_cell_length_a       5.02567
_cell_length_b       9.0902
_cell_length_c       9.17904
_cell_angle_alpha    92.732
_cell_angle_beta     105.888
_cell_angle_gamma    106.047

_space_group_name_H-M_alt    "P 1"
_space_group_IT_number       1

loop_
  _space_group_symop_operation_xyz
  'x, y, z'

loop_
  _atom_site_type_symbol
  _atom_site_label
  _atom_site_symmetry_multiplicity
  _atom_site_fract_x
  _atom_site_fract_y
  _atom_site_fract_z
  _atom_site_occupancy
  F   F1        1.0  0.69400  0.02520  0.16800  1.0000
  F   F2        1.0  0.00098  0.47500  0.33200  1.0000
  F   F3        1.0  0.99900  0.52500  0.66800  1.0000
  F   F4        1.0  0.30600  0.97500  0.83200  1.0000
  Ge  Ge1       1.0  0.39400  0.30300  0.00848  1.0000
  Ge  Ge2       1.0  0.58200  0.19700  0.49200  1.0000
  Ge  Ge3       1.0  0.41800  0.80300  0.50800  1.0000
  Ge  Ge4       1.0  0.60600  0.69700  0.99200  1.0000
  Ho  Ho1       1.0  0.23400  0.90700  0.14900  1.0000
  Ho  Ho2       1.0  0.04060  0.25000  0.25000  1.0000
  Ho  Ho3       1.0  0.67800  0.59300  0.35100  1.0000
  Ho  Ho4       1.0  0.32200  0.40700  0.64900  1.0000
  Ho  Ho5       1.0  0.95900  0.75000  0.75000  1.0000
  Ho  Ho6       1.0  0.76600  0.09320  0.85100  1.0000
  Li  Li1       1.0  0.00000  0.50000  0.00000  1.0000
  Li  Li2       1.0  0.00000  0.00000  0.50000  1.0000
  O   O1        1.0  0.74100  0.29000  0.02400  1.0000
  O   O2        1.0  0.18600  0.13800  0.07280  1.0000
  O   O3        1.0  0.35900  0.44800  0.13300  1.0000
  O   O4        1.0  0.85300  0.71300  0.17300  1.0000
  O   O5        1.0  0.46700  0.78700  0.32700  1.0000
  O   O6        1.0  0.27800  0.05180  0.36700  1.0000
  O   O7        1.0  0.47500  0.36200  0.42700  1.0000
  O   O8        1.0  0.92700  0.21000  0.47600  1.0000
  O   O9        1.0  0.07300  0.79000  0.52400  1.0000
  O   O10       1.0  0.52500  0.63800  0.57300  1.0000
  O   O11       1.0  0.72200  0.94800  0.63300  1.0000
  O   O12       1.0  0.53300  0.21300  0.67300  1.0000
  O   O13       1.0  0.14700  0.28700  0.82700  1.0000
  O   O14       1.0  0.64100  0.55200  0.86700  1.0000
  O   O15       1.0  0.81400  0.86200  0.92700  1.0000
  O   O16       1.0  0.25900  0.71000  0.97600  1.0000
