data_image0
_chemical_formula_structural       S20Ti4U8
_chemical_formula_sum              "S20 Ti4 U8"
_cell_length_a       10.8271
_cell_length_b       7.88367
_cell_length_c       7.01553
_cell_angle_alpha    90
_cell_angle_beta     90
_cell_angle_gamma    90

_space_group_name_H-M_alt    "P 1"
_space_group_IT_number       1

loop_
  _space_group_symop_operation_xyz
  'x, y, z'

loop_
  _atom_site_type_symbol
  _atom_site_label
  _atom_site_symmetry_multiplicity
  _atom_site_fract_x
  _atom_site_fract_y
  _atom_site_fract_z
  _atom_site_occupancy
  S   S1        1.0  0.00491  0.75000  0.04930  1.0000
  S   S2        1.0  0.31000  0.25000  0.14400  1.0000
  S   S3        1.0  0.28900  0.75000  0.16300  1.0000
  S   S4        1.0  0.57500  0.03640  0.17700  1.0000
  S   S5        1.0  0.57500  0.46400  0.17700  1.0000
  S   S6        1.0  0.07520  0.03640  0.32300  1.0000
  S   S7        1.0  0.07520  0.46400  0.32300  1.0000
  S   S8        1.0  0.78900  0.75000  0.33700  1.0000
  S   S9        1.0  0.81000  0.25000  0.35600  1.0000
  S   S10       1.0  0.50500  0.75000  0.45100  1.0000
  S   S11       1.0  0.49500  0.25000  0.54900  1.0000
  S   S12       1.0  0.19000  0.75000  0.64400  1.0000
  S   S13       1.0  0.21100  0.25000  0.66300  1.0000
  S   S14       1.0  0.92500  0.53600  0.67700  1.0000
  S   S15       1.0  0.92500  0.96400  0.67700  1.0000
  S   S16       1.0  0.42500  0.53600  0.82300  1.0000
  S   S17       1.0  0.42500  0.96400  0.82300  1.0000
  S   S18       1.0  0.71100  0.25000  0.83700  1.0000
  S   S19       1.0  0.69000  0.75000  0.85600  1.0000
  S   S20       1.0  0.99500  0.25000  0.95100  1.0000
  Ti  Ti1       1.0  0.50800  0.75000  0.08160  1.0000
  Ti  Ti2       1.0  0.00822  0.75000  0.41800  1.0000
  Ti  Ti3       1.0  0.99200  0.25000  0.58200  1.0000
  Ti  Ti4       1.0  0.49200  0.25000  0.91800  1.0000
  U   U1        1.0  0.82500  0.50100  0.05740  1.0000
  U   U2        1.0  0.82500  0.99900  0.05740  1.0000
  U   U3        1.0  0.32500  0.50100  0.44300  1.0000
  U   U4        1.0  0.32500  0.99900  0.44300  1.0000
  U   U5        1.0  0.67500  0.00145  0.55700  1.0000
  U   U6        1.0  0.67500  0.49900  0.55700  1.0000
  U   U7        1.0  0.17500  0.00145  0.94300  1.0000
  U   U8        1.0  0.17500  0.49900  0.94300  1.0000
