data_image0
_chemical_formula_structural       Li8O16Sb8
_chemical_formula_sum              "Li8 O16 Sb8"
_cell_length_a       4.80651
_cell_length_b       17.5251
_cell_length_c       5.51741
_cell_angle_alpha    90
_cell_angle_beta     90.1544
_cell_angle_gamma    90

_space_group_name_H-M_alt    "P 1"
_space_group_IT_number       1

loop_
  _space_group_symop_operation_xyz
  'x, y, z'

loop_
  _atom_site_type_symbol
  _atom_site_label
  _atom_site_symmetry_multiplicity
  _atom_site_fract_x
  _atom_site_fract_y
  _atom_site_fract_z
  _atom_site_occupancy
  Li  Li1       1.0  0.25700  0.21100  0.03690  1.0000
  Li  Li2       1.0  0.24400  0.71100  0.12200  1.0000
  Li  Li3       1.0  0.75600  0.21100  0.37800  1.0000
  Li  Li4       1.0  0.74300  0.71100  0.46300  1.0000
  Li  Li5       1.0  0.25700  0.28900  0.53700  1.0000
  Li  Li6       1.0  0.24400  0.78900  0.62200  1.0000
  Li  Li7       1.0  0.75600  0.28900  0.87800  1.0000
  Li  Li8       1.0  0.74300  0.78900  0.96300  1.0000
  O   O1        1.0  0.66400  0.19500  0.03730  1.0000
  O   O2        1.0  0.64300  0.38900  0.07280  1.0000
  O   O3        1.0  0.83700  0.69600  0.12300  1.0000
  O   O4        1.0  0.85700  0.88900  0.15700  1.0000
  O   O5        1.0  0.14300  0.38900  0.34300  1.0000
  O   O6        1.0  0.16300  0.19600  0.37700  1.0000
  O   O7        1.0  0.35700  0.88900  0.42700  1.0000
  O   O8        1.0  0.33600  0.69500  0.46300  1.0000
  O   O9        1.0  0.66400  0.30500  0.53700  1.0000
  O   O10       1.0  0.64300  0.11100  0.57300  1.0000
  O   O11       1.0  0.83700  0.80400  0.62300  1.0000
  O   O12       1.0  0.85700  0.61100  0.65700  1.0000
  O   O13       1.0  0.14300  0.11100  0.84300  1.0000
  O   O14       1.0  0.16300  0.30400  0.87700  1.0000
  O   O15       1.0  0.35700  0.61100  0.92700  1.0000
  O   O16       1.0  0.33600  0.80500  0.96300  1.0000
  Sb  Sb1       1.0  0.76600  0.59400  0.01270  1.0000
  Sb  Sb2       1.0  0.26500  0.90700  0.07110  1.0000
  Sb  Sb3       1.0  0.73500  0.40700  0.42900  1.0000
  Sb  Sb4       1.0  0.23400  0.09400  0.48700  1.0000
  Sb  Sb5       1.0  0.76600  0.90600  0.51300  1.0000
  Sb  Sb6       1.0  0.26500  0.59300  0.57100  1.0000
  Sb  Sb7       1.0  0.73500  0.09290  0.92900  1.0000
  Sb  Sb8       1.0  0.23400  0.40600  0.98700  1.0000
