data_image0
_chemical_formula_structural       Cs2O5Pa2
_chemical_formula_sum              "Cs2 O5 Pa2"
_cell_length_a       9.66764
_cell_length_b       4.4577
_cell_length_c       4.4577
_cell_angle_alpha    90
_cell_angle_beta     90
_cell_angle_gamma    90

_space_group_name_H-M_alt    "P 1"
_space_group_IT_number       1

loop_
  _space_group_symop_operation_xyz
  'x, y, z'

loop_
  _atom_site_type_symbol
  _atom_site_label
  _atom_site_symmetry_multiplicity
  _atom_site_fract_x
  _atom_site_fract_y
  _atom_site_fract_z
  _atom_site_occupancy
  Cs  Cs1       1.0  0.00000  0.00000  0.00000  1.0000
  Cs  Cs2       1.0  0.50000  0.00000  0.00000  1.0000
  O   O1        1.0  0.23700  0.50000  0.00000  1.0000
  O   O2        1.0  0.76300  0.50000  0.00000  1.0000
  O   O3        1.0  0.23700  0.00000  0.50000  1.0000
  O   O4        1.0  0.76300  0.00000  0.50000  1.0000
  O   O5        1.0  0.50000  0.50000  0.50000  1.0000
  Pa  Pa1       1.0  0.27200  0.50000  0.50000  1.0000
  Pa  Pa2       1.0  0.72800  0.50000  0.50000  1.0000
