data_image0
_chemical_formula_structural       Pd2Tb2
_chemical_formula_sum              "Pd2 Tb2"
_cell_length_a       3.71464
_cell_length_b       4.58433
_cell_length_c       5.59416
_cell_angle_alpha    90
_cell_angle_beta     70.6091
_cell_angle_gamma    90

_space_group_name_H-M_alt    "P 1"
_space_group_IT_number       1

loop_
  _space_group_symop_operation_xyz
  'x, y, z'

loop_
  _atom_site_type_symbol
  _atom_site_label
  _atom_site_symmetry_multiplicity
  _atom_site_fract_x
  _atom_site_fract_y
  _atom_site_fract_z
  _atom_site_occupancy
  Pd  Pd1       1.0  0.41300  0.75000  0.17400  1.0000
  Pd  Pd2       1.0  0.58700  0.25000  0.82600  1.0000
  Tb  Tb1       1.0  0.86300  0.25000  0.27500  1.0000
  Tb  Tb2       1.0  0.13700  0.75000  0.72500  1.0000
