data_image0
_chemical_formula_structural       Ga8S16Tl8
_chemical_formula_sum              "Ga8 S16 Tl8"
_cell_length_a       7.36686
_cell_length_b       7.36686
_cell_length_c       15.3073
_cell_angle_alpha    96.9511
_cell_angle_beta     83.0489
_cell_angle_gamma    90.007

_space_group_name_H-M_alt    "P 1"
_space_group_IT_number       1

loop_
  _space_group_symop_operation_xyz
  'x, y, z'

loop_
  _atom_site_type_symbol
  _atom_site_label
  _atom_site_symmetry_multiplicity
  _atom_site_fract_x
  _atom_site_fract_y
  _atom_site_fract_z
  _atom_site_occupancy
  Ga  Ga1       1.0  0.20900  0.91900  0.16300  1.0000
  Ga  Ga2       1.0  0.20900  0.41400  0.16400  1.0000
  Ga  Ga3       1.0  0.41400  0.20900  0.33600  1.0000
  Ga  Ga4       1.0  0.91900  0.20900  0.33700  1.0000
  Ga  Ga5       1.0  0.08140  0.79100  0.66300  1.0000
  Ga  Ga6       1.0  0.58600  0.79100  0.66400  1.0000
  Ga  Ga7       1.0  0.79100  0.58600  0.83600  1.0000
  Ga  Ga8       1.0  0.79100  0.08140  0.83700  1.0000
  S   S1        1.0  0.23100  0.14400  0.07120  1.0000
  S   S2        1.0  0.23100  0.64300  0.07360  1.0000
  S   S3        1.0  0.44600  0.93100  0.24900  1.0000
  S   S4        1.0  0.44500  0.44500  0.25000  1.0000
  S   S5        1.0  0.93100  0.93100  0.25000  1.0000
  S   S6        1.0  0.93100  0.44600  0.25100  1.0000
  S   S7        1.0  0.64300  0.23100  0.42600  1.0000
  S   S8        1.0  0.14400  0.23100  0.42900  1.0000
  S   S9        1.0  0.85600  0.76900  0.57100  1.0000
  S   S10       1.0  0.35700  0.76900  0.57400  1.0000
  S   S11       1.0  0.06940  0.55400  0.74900  1.0000
  S   S12       1.0  0.06920  0.06920  0.75000  1.0000
  S   S13       1.0  0.55500  0.55500  0.75000  1.0000
  S   S14       1.0  0.55400  0.06940  0.75100  1.0000
  S   S15       1.0  0.76900  0.35700  0.92600  1.0000
  S   S16       1.0  0.76900  0.85600  0.92900  1.0000
  Tl  Tl1       1.0  0.72400  0.65200  0.10900  1.0000
  Tl  Tl2       1.0  0.72300  0.15500  0.11400  1.0000
  Tl  Tl3       1.0  0.15500  0.72300  0.38600  1.0000
  Tl  Tl4       1.0  0.65200  0.72400  0.39100  1.0000
  Tl  Tl5       1.0  0.34800  0.27600  0.60900  1.0000
  Tl  Tl6       1.0  0.84500  0.27700  0.61400  1.0000
  Tl  Tl7       1.0  0.27700  0.84500  0.88600  1.0000
  Tl  Tl8       1.0  0.27600  0.34800  0.89100  1.0000
