data_image0
_chemical_formula_structural       C12Co2Cs4N12Rb2
_chemical_formula_sum              "C12 Co2 Cs4 N12 Rb2"
_cell_length_a       7.62872
_cell_length_b       8.13972
_cell_length_c       11.052
_cell_angle_alpha    90
_cell_angle_beta     90.4815
_cell_angle_gamma    90

_space_group_name_H-M_alt    "P 1"
_space_group_IT_number       1

loop_
  _space_group_symop_operation_xyz
  'x, y, z'

loop_
  _atom_site_type_symbol
  _atom_site_label
  _atom_site_symmetry_multiplicity
  _atom_site_fract_x
  _atom_site_fract_y
  _atom_site_fract_z
  _atom_site_occupancy
  C   C1        1.0  0.79800  0.12000  0.03310  1.0000
  C   C2        1.0  0.88500  0.80600  0.04330  1.0000
  C   C3        1.0  0.07700  0.02680  0.15900  1.0000
  C   C4        1.0  0.42300  0.52700  0.34100  1.0000
  C   C5        1.0  0.61500  0.30600  0.45700  1.0000
  C   C6        1.0  0.70200  0.62000  0.46700  1.0000
  C   C7        1.0  0.29800  0.38000  0.53300  1.0000
  C   C8        1.0  0.38500  0.69400  0.54300  1.0000
  C   C9        1.0  0.57700  0.47300  0.65900  1.0000
  C   C10       1.0  0.92300  0.97300  0.84100  1.0000
  C   C11       1.0  0.11500  0.19400  0.95700  1.0000
  C   C12       1.0  0.20200  0.88000  0.96700  1.0000
  Co  Co1       1.0  0.00000  0.00000  0.00000  1.0000
  Co  Co2       1.0  0.50000  0.50000  0.50000  1.0000
  Cs  Cs1       1.0  0.52200  0.92900  0.24900  1.0000
  Cs  Cs2       1.0  0.97800  0.42900  0.25100  1.0000
  Cs  Cs3       1.0  0.02210  0.57100  0.74900  1.0000
  Cs  Cs4       1.0  0.47800  0.07080  0.75100  1.0000
  N   N1        1.0  0.66900  0.19200  0.05580  1.0000
  N   N2        1.0  0.81200  0.68500  0.07120  1.0000
  N   N3        1.0  0.37200  0.54800  0.24200  1.0000
  N   N4        1.0  0.12800  0.04800  0.25800  1.0000
  N   N5        1.0  0.68800  0.18500  0.42900  1.0000
  N   N6        1.0  0.83100  0.69200  0.44400  1.0000
  N   N7        1.0  0.16900  0.30800  0.55600  1.0000
  N   N8        1.0  0.31200  0.81500  0.57100  1.0000
  N   N9        1.0  0.87200  0.95200  0.74200  1.0000
  N   N10       1.0  0.62800  0.45200  0.75800  1.0000
  N   N11       1.0  0.18800  0.31500  0.92900  1.0000
  N   N12       1.0  0.33100  0.80800  0.94400  1.0000
  Rb  Rb1       1.0  0.50000  0.50000  0.00000  1.0000
  Rb  Rb2       1.0  0.00000  0.00000  0.50000  1.0000
