data_image0
_chemical_formula_structural       Cs2O5Si2
_chemical_formula_sum              "Cs2 O5 Si2"
_cell_length_a       8.75615
_cell_length_b       4.47355
_cell_length_c       4.47355
_cell_angle_alpha    90
_cell_angle_beta     90
_cell_angle_gamma    90

_space_group_name_H-M_alt    "P 1"
_space_group_IT_number       1

loop_
  _space_group_symop_operation_xyz
  'x, y, z'

loop_
  _atom_site_type_symbol
  _atom_site_label
  _atom_site_symmetry_multiplicity
  _atom_site_fract_x
  _atom_site_fract_y
  _atom_site_fract_z
  _atom_site_occupancy
  Cs  Cs1       1.0  0.19700  0.50000  0.50000  1.0000
  Cs  Cs2       1.0  0.80300  0.50000  0.50000  1.0000
  O   O1        1.0  0.16300  0.50000  0.00000  1.0000
  O   O2        1.0  0.83700  0.50000  0.00000  1.0000
  O   O3        1.0  0.16300  0.00000  0.50000  1.0000
  O   O4        1.0  0.83700  0.00000  0.50000  1.0000
  O   O5        1.0  0.50000  0.50000  0.50000  1.0000
  Si  Si1       1.0  0.00000  0.00000  0.00000  1.0000
  Si  Si2       1.0  0.50000  0.00000  0.00000  1.0000
