data_image0
_chemical_formula_structural       H12La2O12P6
_chemical_formula_sum              "H12 La2 O12 P6"
_cell_length_a       6.79296
_cell_length_b       7.10486
_cell_length_c       8.42534
_cell_angle_alpha    82.7215
_cell_angle_beta     78.5875
_cell_angle_gamma    76.1472

_space_group_name_H-M_alt    "P 1"
_space_group_IT_number       1

loop_
  _space_group_symop_operation_xyz
  'x, y, z'

loop_
  _atom_site_type_symbol
  _atom_site_label
  _atom_site_symmetry_multiplicity
  _atom_site_fract_x
  _atom_site_fract_y
  _atom_site_fract_z
  _atom_site_occupancy
  H   H1        1.0  0.99900  0.96100  0.03460  1.0000
  H   H2        1.0  0.77800  0.38900  0.09690  1.0000
  H   H3        1.0  0.73500  0.08520  0.12200  1.0000
  H   H4        1.0  0.18000  0.19300  0.14800  1.0000
  H   H5        1.0  0.62600  0.84100  0.16300  1.0000
  H   H6        1.0  0.68200  0.93500  0.39300  1.0000
  H   H7        1.0  0.31800  0.06510  0.60700  1.0000
  H   H8        1.0  0.37400  0.15900  0.83700  1.0000
  H   H9        1.0  0.82000  0.80700  0.85200  1.0000
  H   H10       1.0  0.26500  0.91500  0.87800  1.0000
  H   H11       1.0  0.22200  0.61100  0.90300  1.0000
  H   H12       1.0  0.00113  0.03900  0.96500  1.0000
  La  La1       1.0  0.26000  0.59700  0.35900  1.0000
  La  La2       1.0  0.74000  0.40300  0.64100  1.0000
  O   O1        1.0  0.41600  0.69800  0.08040  1.0000
  O   O2        1.0  0.45300  0.31400  0.23200  1.0000
  O   O3        1.0  0.95700  0.71600  0.23400  1.0000
  O   O4        1.0  0.22600  0.95100  0.37300  1.0000
  O   O5        1.0  0.62200  0.61500  0.39500  1.0000
  O   O6        1.0  0.05040  0.31900  0.40900  1.0000
  O   O7        1.0  0.95000  0.68100  0.59100  1.0000
  O   O8        1.0  0.37800  0.38500  0.60500  1.0000
  O   O9        1.0  0.77400  0.04860  0.62700  1.0000
  O   O10       1.0  0.04300  0.28400  0.76600  1.0000
  O   O11       1.0  0.54700  0.68600  0.76800  1.0000
  O   O12       1.0  0.58400  0.30200  0.92000  1.0000
  P   P1        1.0  0.63200  0.27800  0.09080  1.0000
  P   P2        1.0  0.72600  0.77500  0.29700  1.0000
  P   P3        1.0  0.09070  0.14000  0.31100  1.0000
  P   P4        1.0  0.90900  0.86000  0.68900  1.0000
  P   P5        1.0  0.27400  0.22500  0.70300  1.0000
  P   P6        1.0  0.36800  0.72200  0.90900  1.0000
