data_image0
_chemical_formula_structural       Ba2O5Te2
_chemical_formula_sum              "Ba2 O5 Te2"
_cell_length_a       8.14205
_cell_length_b       4.36248
_cell_length_c       4.36248
_cell_angle_alpha    90
_cell_angle_beta     90
_cell_angle_gamma    90

_space_group_name_H-M_alt    "P 1"
_space_group_IT_number       1

loop_
  _space_group_symop_operation_xyz
  'x, y, z'

loop_
  _atom_site_type_symbol
  _atom_site_label
  _atom_site_symmetry_multiplicity
  _atom_site_fract_x
  _atom_site_fract_y
  _atom_site_fract_z
  _atom_site_occupancy
  Ba  Ba1       1.0  0.00000  0.00000  0.00000  1.0000
  Ba  Ba2       1.0  0.50000  0.00000  0.00000  1.0000
  O   O1        1.0  0.23500  0.50000  0.00000  1.0000
  O   O2        1.0  0.76500  0.50000  0.00000  1.0000
  O   O3        1.0  0.23500  0.00000  0.50000  1.0000
  O   O4        1.0  0.76500  0.00000  0.50000  1.0000
  O   O5        1.0  0.50000  0.50000  0.50000  1.0000
  Te  Te1       1.0  0.22900  0.50000  0.50000  1.0000
  Te  Te2       1.0  0.77100  0.50000  0.50000  1.0000
