data_image0
_chemical_formula_structural       B8O20Th4
_chemical_formula_sum              "B8 O20 Th4"
_cell_length_a       6.77296
_cell_length_b       6.77296
_cell_length_c       10.164
_cell_angle_alpha    99.7752
_cell_angle_beta     99.7752
_cell_angle_gamma    61.6541

_space_group_name_H-M_alt    "P 1"
_space_group_IT_number       1

loop_
  _space_group_symop_operation_xyz
  'x, y, z'

loop_
  _atom_site_type_symbol
  _atom_site_label
  _atom_site_symmetry_multiplicity
  _atom_site_fract_x
  _atom_site_fract_y
  _atom_site_fract_z
  _atom_site_occupancy
  B   B1        1.0  0.27600  0.77700  0.00285  1.0000
  B   B2        1.0  0.17600  0.55400  0.13900  1.0000
  B   B3        1.0  0.44600  0.82400  0.36100  1.0000
  B   B4        1.0  0.22300  0.72400  0.49700  1.0000
  B   B5        1.0  0.77700  0.27600  0.50300  1.0000
  B   B6        1.0  0.55400  0.17600  0.63900  1.0000
  B   B7        1.0  0.82400  0.44600  0.86100  1.0000
  B   B8        1.0  0.72400  0.22300  0.99700  1.0000
  O   O1        1.0  0.39500  0.89900  0.03400  1.0000
  O   O2        1.0  0.29600  0.63500  0.09040  1.0000
  O   O3        1.0  0.84200  0.20300  0.12200  1.0000
  O   O4        1.0  0.94900  0.66700  0.15100  1.0000
  O   O5        1.0  0.28900  0.34800  0.19000  1.0000
  O   O6        1.0  0.65200  0.71100  0.31000  1.0000
  O   O7        1.0  0.33300  0.05060  0.34900  1.0000
  O   O8        1.0  0.79700  0.15800  0.37800  1.0000
  O   O9        1.0  0.36500  0.70400  0.41000  1.0000
  O   O10       1.0  0.10100  0.60500  0.46600  1.0000
  O   O11       1.0  0.89900  0.39500  0.53400  1.0000
  O   O12       1.0  0.63500  0.29600  0.59000  1.0000
  O   O13       1.0  0.20300  0.84200  0.62200  1.0000
  O   O14       1.0  0.66700  0.94900  0.65100  1.0000
  O   O15       1.0  0.34800  0.28900  0.69000  1.0000
  O   O16       1.0  0.71100  0.65200  0.81000  1.0000
  O   O17       1.0  0.05060  0.33300  0.84900  1.0000
  O   O18       1.0  0.15800  0.79700  0.87800  1.0000
  O   O19       1.0  0.70400  0.36500  0.91000  1.0000
  O   O20       1.0  0.60500  0.10100  0.96600  1.0000
  Th  Th1       1.0  0.62800  0.01020  0.19500  1.0000
  Th  Th2       1.0  0.99000  0.37200  0.30500  1.0000
  Th  Th3       1.0  0.01020  0.62800  0.69500  1.0000
  Th  Th4       1.0  0.37200  0.99000  0.80500  1.0000
