data_image0
_chemical_formula_structural       F8H4N4O12Xe4
_chemical_formula_sum              "F8 H4 N4 O12 Xe4"
_cell_length_a       16.7037
_cell_length_b       5.33251
_cell_length_c       4.61946
_cell_angle_alpha    90
_cell_angle_beta     90
_cell_angle_gamma    90

_space_group_name_H-M_alt    "P 1"
_space_group_IT_number       1

loop_
  _space_group_symop_operation_xyz
  'x, y, z'

loop_
  _atom_site_type_symbol
  _atom_site_label
  _atom_site_symmetry_multiplicity
  _atom_site_fract_x
  _atom_site_fract_y
  _atom_site_fract_z
  _atom_site_occupancy
  F   F1        1.0  0.16600  0.75000  0.05730  1.0000
  F   F2        1.0  0.50700  0.75000  0.13800  1.0000
  F   F3        1.0  0.00728  0.75000  0.36200  1.0000
  F   F4        1.0  0.66600  0.75000  0.44300  1.0000
  F   F5        1.0  0.33400  0.25000  0.55700  1.0000
  F   F6        1.0  0.99300  0.25000  0.63800  1.0000
  F   F7        1.0  0.49300  0.25000  0.86200  1.0000
  F   F8        1.0  0.83400  0.25000  0.94300  1.0000
  H   H1        1.0  0.74200  0.25000  0.00453  1.0000
  H   H2        1.0  0.24200  0.25000  0.49500  1.0000
  H   H3        1.0  0.75800  0.75000  0.50500  1.0000
  H   H4        1.0  0.25800  0.75000  0.99500  1.0000
  N   N1        1.0  0.17200  0.25000  0.17000  1.0000
  N   N2        1.0  0.67200  0.25000  0.33000  1.0000
  N   N3        1.0  0.32800  0.75000  0.67000  1.0000
  N   N4        1.0  0.82800  0.75000  0.83000  1.0000
  O   O1        1.0  0.23300  0.25000  0.01940  1.0000
  O   O2        1.0  0.68200  0.25000  0.03610  1.0000
  O   O3        1.0  0.10200  0.25000  0.08840  1.0000
  O   O4        1.0  0.60200  0.25000  0.41200  1.0000
  O   O5        1.0  0.18200  0.25000  0.46400  1.0000
  O   O6        1.0  0.73300  0.25000  0.48100  1.0000
  O   O7        1.0  0.26700  0.75000  0.51900  1.0000
  O   O8        1.0  0.81800  0.75000  0.53600  1.0000
  O   O9        1.0  0.39800  0.75000  0.58800  1.0000
  O   O10       1.0  0.89800  0.75000  0.91200  1.0000
  O   O11       1.0  0.31800  0.75000  0.96400  1.0000
  O   O12       1.0  0.76700  0.75000  0.98100  1.0000
  Xe  Xe1       1.0  0.41600  0.25000  0.20700  1.0000
  Xe  Xe2       1.0  0.91600  0.25000  0.29300  1.0000
  Xe  Xe3       1.0  0.08380  0.75000  0.70700  1.0000
  Xe  Xe4       1.0  0.58400  0.75000  0.79300  1.0000
