data_image0
_chemical_formula_structural       In8O20V4
_chemical_formula_sum              "In8 O20 V4"
_cell_length_a       7.23302
_cell_length_b       3.53537
_cell_length_c       14.7958
_cell_angle_alpha    90
_cell_angle_beta     90
_cell_angle_gamma    90

_space_group_name_H-M_alt    "P 1"
_space_group_IT_number       1

loop_
  _space_group_symop_operation_xyz
  'x, y, z'

loop_
  _atom_site_type_symbol
  _atom_site_label
  _atom_site_symmetry_multiplicity
  _atom_site_fract_x
  _atom_site_fract_y
  _atom_site_fract_z
  _atom_site_occupancy
  In  In1       1.0  0.10200  0.25000  0.08220  1.0000
  In  In2       1.0  0.32700  0.75000  0.23900  1.0000
  In  In3       1.0  0.82700  0.75000  0.26100  1.0000
  In  In4       1.0  0.60200  0.25000  0.41800  1.0000
  In  In5       1.0  0.39800  0.75000  0.58200  1.0000
  In  In6       1.0  0.17300  0.25000  0.73900  1.0000
  In  In7       1.0  0.67300  0.25000  0.76100  1.0000
  In  In8       1.0  0.89800  0.75000  0.91800  1.0000
  O   O1        1.0  0.84400  0.25000  0.00432  1.0000
  O   O2        1.0  0.56500  0.75000  0.04150  1.0000
  O   O3        1.0  0.37000  0.25000  0.15200  1.0000
  O   O4        1.0  0.05930  0.75000  0.17500  1.0000
  O   O5        1.0  0.73700  0.25000  0.17600  1.0000
  O   O6        1.0  0.23700  0.25000  0.32400  1.0000
  O   O7        1.0  0.55900  0.75000  0.32500  1.0000
  O   O8        1.0  0.87000  0.25000  0.34800  1.0000
  O   O9        1.0  0.06510  0.75000  0.45900  1.0000
  O   O10       1.0  0.34400  0.25000  0.49600  1.0000
  O   O11       1.0  0.65600  0.75000  0.50400  1.0000
  O   O12       1.0  0.93500  0.25000  0.54100  1.0000
  O   O13       1.0  0.13000  0.75000  0.65200  1.0000
  O   O14       1.0  0.44100  0.25000  0.67500  1.0000
  O   O15       1.0  0.76300  0.75000  0.67600  1.0000
  O   O16       1.0  0.26300  0.75000  0.82400  1.0000
  O   O17       1.0  0.94100  0.25000  0.82500  1.0000
  O   O18       1.0  0.63000  0.75000  0.84800  1.0000
  O   O19       1.0  0.43500  0.25000  0.95900  1.0000
  O   O20       1.0  0.15600  0.75000  0.99600  1.0000
  V   V1        1.0  0.60300  0.25000  0.07510  1.0000
  V   V2        1.0  0.10300  0.25000  0.42500  1.0000
  V   V3        1.0  0.89700  0.75000  0.57500  1.0000
  V   V4        1.0  0.39700  0.75000  0.92500  1.0000
