data_image0
_chemical_formula_structural       As2F22H2N2Te2Xe2
_chemical_formula_sum              "As2 F22 H2 N2 Te2 Xe2"
_cell_length_a       5.18436
_cell_length_b       6.74836
_cell_length_c       11.8111
_cell_angle_alpha    87.0048
_cell_angle_beta     83.3774
_cell_angle_gamma    85.0982

_space_group_name_H-M_alt    "P 1"
_space_group_IT_number       1

loop_
  _space_group_symop_operation_xyz
  'x, y, z'

loop_
  _atom_site_type_symbol
  _atom_site_label
  _atom_site_symmetry_multiplicity
  _atom_site_fract_x
  _atom_site_fract_y
  _atom_site_fract_z
  _atom_site_occupancy
  As  As1       1.0  0.89300  0.76900  0.16100  1.0000
  As  As2       1.0  0.10700  0.23100  0.83900  1.0000
  F   F1        1.0  0.11000  0.81000  0.03770  1.0000
  F   F2        1.0  0.62600  0.85200  0.07830  1.0000
  F   F3        1.0  0.85900  0.52800  0.11300  1.0000
  F   F4        1.0  0.90100  0.01450  0.19900  1.0000
  F   F5        1.0  0.15100  0.68100  0.23700  1.0000
  F   F6        1.0  0.66300  0.72500  0.27800  1.0000
  F   F7        1.0  0.96700  0.32400  0.34000  1.0000
  F   F8        1.0  0.29100  0.00559  0.34000  1.0000
  F   F9        1.0  0.91600  0.83500  0.46200  1.0000
  F   F10       1.0  0.26300  0.50600  0.46400  1.0000
  F   F11       1.0  0.57600  0.17800  0.47400  1.0000
  F   F12       1.0  0.42400  0.82200  0.52600  1.0000
  F   F13       1.0  0.73700  0.49400  0.53600  1.0000
  F   F14       1.0  0.08440  0.16500  0.53800  1.0000
  F   F15       1.0  0.70900  0.99400  0.66000  1.0000
  F   F16       1.0  0.03330  0.67600  0.66000  1.0000
  F   F17       1.0  0.33700  0.27500  0.72200  1.0000
  F   F18       1.0  0.84900  0.31900  0.76300  1.0000
  F   F19       1.0  0.09850  0.98500  0.80100  1.0000
  F   F20       1.0  0.14100  0.47200  0.88700  1.0000
  F   F21       1.0  0.37400  0.14800  0.92200  1.0000
  F   F22       1.0  0.89000  0.19000  0.96200  1.0000
  H   H1        1.0  0.49300  0.50100  0.26600  1.0000
  H   H2        1.0  0.50700  0.49900  0.73400  1.0000
  N   N1        1.0  0.51400  0.34600  0.26900  1.0000
  N   N2        1.0  0.48600  0.65400  0.73100  1.0000
  Te  Te1       1.0  0.27500  0.25300  0.40600  1.0000
  Te  Te2       1.0  0.72500  0.74700  0.59400  1.0000
  Xe  Xe1       1.0  0.39100  0.27500  0.11500  1.0000
  Xe  Xe2       1.0  0.61000  0.72500  0.88500  1.0000
