data_image0
_chemical_formula_structural       Cl20K8Pr4
_chemical_formula_sum              "Cl20 K8 Pr4"
_cell_length_a       8.04647
_cell_length_b       8.81319
_cell_length_c       12.8021
_cell_angle_alpha    90
_cell_angle_beta     90
_cell_angle_gamma    90

_space_group_name_H-M_alt    "P 1"
_space_group_IT_number       1

loop_
  _space_group_symop_operation_xyz
  'x, y, z'

loop_
  _atom_site_type_symbol
  _atom_site_label
  _atom_site_symmetry_multiplicity
  _atom_site_fract_x
  _atom_site_fract_y
  _atom_site_fract_z
  _atom_site_occupancy
  Cl  Cl1       1.0  0.07460  0.25000  0.00698  1.0000
  Cl  Cl2       1.0  0.33400  0.54400  0.07890  1.0000
  Cl  Cl3       1.0  0.33400  0.95600  0.07890  1.0000
  Cl  Cl4       1.0  0.63000  0.25000  0.18200  1.0000
  Cl  Cl5       1.0  0.66700  0.75000  0.20600  1.0000
  Cl  Cl6       1.0  0.16700  0.25000  0.29400  1.0000
  Cl  Cl7       1.0  0.13000  0.75000  0.31800  1.0000
  Cl  Cl8       1.0  0.83400  0.04360  0.42100  1.0000
  Cl  Cl9       1.0  0.83400  0.45600  0.42100  1.0000
  Cl  Cl10      1.0  0.57500  0.75000  0.49300  1.0000
  Cl  Cl11      1.0  0.42500  0.25000  0.50700  1.0000
  Cl  Cl12      1.0  0.16600  0.54400  0.57900  1.0000
  Cl  Cl13      1.0  0.16600  0.95600  0.57900  1.0000
  Cl  Cl14      1.0  0.87000  0.25000  0.68200  1.0000
  Cl  Cl15      1.0  0.83300  0.75000  0.70600  1.0000
  Cl  Cl16      1.0  0.33300  0.25000  0.79400  1.0000
  Cl  Cl17      1.0  0.37000  0.75000  0.81800  1.0000
  Cl  Cl18      1.0  0.66600  0.04360  0.92100  1.0000
  Cl  Cl19      1.0  0.66600  0.45600  0.92100  1.0000
  Cl  Cl20      1.0  0.92500  0.75000  0.99300  1.0000
  K   K1        1.0  0.94900  0.00516  0.17200  1.0000
  K   K2        1.0  0.94900  0.49500  0.17200  1.0000
  K   K3        1.0  0.44900  0.50500  0.32800  1.0000
  K   K4        1.0  0.44900  0.99500  0.32800  1.0000
  K   K5        1.0  0.55100  0.00516  0.67200  1.0000
  K   K6        1.0  0.55100  0.49500  0.67200  1.0000
  K   K7        1.0  0.05060  0.50500  0.82800  1.0000
  K   K8        1.0  0.05060  0.99500  0.82800  1.0000
  Pr  Pr1       1.0  0.42400  0.25000  0.00679  1.0000
  Pr  Pr2       1.0  0.92400  0.75000  0.49300  1.0000
  Pr  Pr3       1.0  0.07590  0.25000  0.50700  1.0000
  Pr  Pr4       1.0  0.57600  0.75000  0.99300  1.0000
