data_image0
_chemical_formula_structural       Hf2Ir2O5
_chemical_formula_sum              "Hf2 Ir2 O5"
_cell_length_a       8.45492
_cell_length_b       3.62461
_cell_length_c       3.62461
_cell_angle_alpha    90
_cell_angle_beta     90
_cell_angle_gamma    90

_space_group_name_H-M_alt    "P 1"
_space_group_IT_number       1

loop_
  _space_group_symop_operation_xyz
  'x, y, z'

loop_
  _atom_site_type_symbol
  _atom_site_label
  _atom_site_symmetry_multiplicity
  _atom_site_fract_x
  _atom_site_fract_y
  _atom_site_fract_z
  _atom_site_occupancy
  Hf  Hf1       1.0  0.26800  0.50000  0.50000  1.0000
  Hf  Hf2       1.0  0.73200  0.50000  0.50000  1.0000
  Ir  Ir1       1.0  0.00000  0.00000  0.00000  1.0000
  Ir  Ir2       1.0  0.50000  0.00000  0.00000  1.0000
  O   O1        1.0  0.14400  0.50000  0.00000  1.0000
  O   O2        1.0  0.85600  0.50000  0.00000  1.0000
  O   O3        1.0  0.14400  0.00000  0.50000  1.0000
  O   O4        1.0  0.85600  0.00000  0.50000  1.0000
  O   O5        1.0  0.50000  0.50000  0.50000  1.0000
