data_image0
_chemical_formula_structural       As2Cu2O8Tl4
_chemical_formula_sum              "As2 Cu2 O8 Tl4"
_cell_length_a       5.92065
_cell_length_b       5.32892
_cell_length_c       8.6657
_cell_angle_alpha    90
_cell_angle_beta     97.7092
_cell_angle_gamma    90

_space_group_name_H-M_alt    "P 1"
_space_group_IT_number       1

loop_
  _space_group_symop_operation_xyz
  'x, y, z'

loop_
  _atom_site_type_symbol
  _atom_site_label
  _atom_site_symmetry_multiplicity
  _atom_site_fract_x
  _atom_site_fract_y
  _atom_site_fract_z
  _atom_site_occupancy
  As  As1       1.0  0.76000  0.49000  0.22000  1.0000
  As  As2       1.0  0.24000  0.99000  0.78000  1.0000
  Cu  Cu1       1.0  0.68000  0.04130  0.01350  1.0000
  Cu  Cu2       1.0  0.32000  0.54100  0.98700  1.0000
  O   O1        1.0  0.88700  0.65300  0.08360  1.0000
  O   O2        1.0  0.46500  0.52100  0.19200  1.0000
  O   O3        1.0  0.81000  0.16700  0.21000  1.0000
  O   O4        1.0  0.86200  0.58000  0.40600  1.0000
  O   O5        1.0  0.13800  0.07970  0.59400  1.0000
  O   O6        1.0  0.19000  0.66700  0.79000  1.0000
  O   O7        1.0  0.53500  0.02100  0.80800  1.0000
  O   O8        1.0  0.11300  0.15300  0.91600  1.0000
  Tl  Tl1       1.0  0.22900  0.99200  0.19900  1.0000
  Tl  Tl2       1.0  0.71700  0.00898  0.49400  1.0000
  Tl  Tl3       1.0  0.28300  0.50900  0.50600  1.0000
  Tl  Tl4       1.0  0.77100  0.49200  0.80100  1.0000
