data_image0
_chemical_formula_structural       Cr8I4O16P4
_chemical_formula_sum              "Cr8 I4 O16 P4"
_cell_length_a       6.43425
_cell_length_b       6.30973
_cell_length_c       12.6093
_cell_angle_alpha    90
_cell_angle_beta     103.892
_cell_angle_gamma    90

_space_group_name_H-M_alt    "P 1"
_space_group_IT_number       1

loop_
  _space_group_symop_operation_xyz
  'x, y, z'

loop_
  _atom_site_type_symbol
  _atom_site_label
  _atom_site_symmetry_multiplicity
  _atom_site_fract_x
  _atom_site_fract_y
  _atom_site_fract_z
  _atom_site_occupancy
  Cr  Cr1       1.0  0.56700  0.15000  0.10300  1.0000
  Cr  Cr2       1.0  0.19300  0.51700  0.10900  1.0000
  Cr  Cr3       1.0  0.30700  0.01720  0.39100  1.0000
  Cr  Cr4       1.0  0.93300  0.65000  0.39700  1.0000
  Cr  Cr5       1.0  0.06720  0.35000  0.60300  1.0000
  Cr  Cr6       1.0  0.69300  0.98300  0.60900  1.0000
  Cr  Cr7       1.0  0.80700  0.48300  0.89100  1.0000
  Cr  Cr8       1.0  0.43300  0.85000  0.89700  1.0000
  I   I1        1.0  0.15600  0.02550  0.15700  1.0000
  I   I2        1.0  0.34400  0.52600  0.34300  1.0000
  I   I3        1.0  0.65600  0.47400  0.65700  1.0000
  I   I4        1.0  0.84400  0.97400  0.84300  1.0000
  O   O1        1.0  0.59800  0.83600  0.06070  1.0000
  O   O2        1.0  0.86000  0.53000  0.06360  1.0000
  O   O3        1.0  0.50600  0.46900  0.10900  1.0000
  O   O4        1.0  0.79400  0.67700  0.24000  1.0000
  O   O5        1.0  0.70600  0.17700  0.26000  1.0000
  O   O6        1.0  0.99400  0.96900  0.39100  1.0000
  O   O7        1.0  0.64000  0.03000  0.43600  1.0000
  O   O8        1.0  0.90200  0.33600  0.43900  1.0000
  O   O9        1.0  0.09760  0.66400  0.56100  1.0000
  O   O10       1.0  0.36000  0.97000  0.56400  1.0000
  O   O11       1.0  0.00595  0.03100  0.60900  1.0000
  O   O12       1.0  0.29400  0.82300  0.74000  1.0000
  O   O13       1.0  0.20600  0.32300  0.76000  1.0000
  O   O14       1.0  0.49400  0.53100  0.89100  1.0000
  O   O15       1.0  0.14000  0.47000  0.93600  1.0000
  O   O16       1.0  0.40200  0.16400  0.93900  1.0000
  P   P1        1.0  0.69400  0.63100  0.12200  1.0000
  P   P2        1.0  0.80600  0.13100  0.37800  1.0000
  P   P3        1.0  0.19400  0.86900  0.62200  1.0000
  P   P4        1.0  0.30600  0.36900  0.87800  1.0000
