data_image0
_chemical_formula_structural       O16Se4Sm6Ti6
_chemical_formula_sum              "O16 Se4 Sm6 Ti6"
_cell_length_a       3.91509
_cell_length_b       9.71478
_cell_length_c       13.3131
_cell_angle_alpha    110.923
_cell_angle_beta     90
_cell_angle_gamma    90

_space_group_name_H-M_alt    "P 1"
_space_group_IT_number       1

loop_
  _space_group_symop_operation_xyz
  'x, y, z'

loop_
  _atom_site_type_symbol
  _atom_site_label
  _atom_site_symmetry_multiplicity
  _atom_site_fract_x
  _atom_site_fract_y
  _atom_site_fract_z
  _atom_site_occupancy
  O   O1        1.0  0.25000  0.55500  0.08250  1.0000
  O   O2        1.0  0.75000  0.64200  0.23700  1.0000
  O   O3        1.0  0.25000  0.87900  0.25000  1.0000
  O   O4        1.0  0.75000  0.12100  0.25300  1.0000
  O   O5        1.0  0.25000  0.75100  0.39300  1.0000
  O   O6        1.0  0.25000  0.17800  0.42700  1.0000
  O   O7        1.0  0.75000  0.98900  0.42700  1.0000
  O   O8        1.0  0.75000  0.39000  0.47100  1.0000
  O   O9        1.0  0.25000  0.61000  0.52900  1.0000
  O   O10       1.0  0.25000  0.01100  0.57300  1.0000
  O   O11       1.0  0.75000  0.82200  0.57300  1.0000
  O   O12       1.0  0.75000  0.24900  0.60700  1.0000
  O   O13       1.0  0.25000  0.87900  0.74700  1.0000
  O   O14       1.0  0.75000  0.12100  0.75000  1.0000
  O   O15       1.0  0.25000  0.35800  0.76300  1.0000
  O   O16       1.0  0.75000  0.44500  0.91800  1.0000
  Se  Se1       1.0  0.75000  0.83700  0.01890  1.0000
  Se  Se2       1.0  0.25000  0.39300  0.25400  1.0000
  Se  Se3       1.0  0.75000  0.60700  0.74600  1.0000
  Se  Se4       1.0  0.25000  0.16300  0.98100  1.0000
  Sm  Sm1       1.0  0.75000  0.41400  0.08440  1.0000
  Sm  Sm2       1.0  0.25000  0.05280  0.16000  1.0000
  Sm  Sm3       1.0  0.75000  0.59200  0.41500  1.0000
  Sm  Sm4       1.0  0.25000  0.40800  0.58500  1.0000
  Sm  Sm5       1.0  0.75000  0.94700  0.84000  1.0000
  Sm  Sm6       1.0  0.25000  0.58600  0.91600  1.0000
  Ti  Ti1       1.0  0.25000  0.67800  0.23100  1.0000
  Ti  Ti2       1.0  0.75000  0.18200  0.39900  1.0000
  Ti  Ti3       1.0  0.25000  0.95900  0.40500  1.0000
  Ti  Ti4       1.0  0.75000  0.04140  0.59500  1.0000
  Ti  Ti5       1.0  0.25000  0.81800  0.60100  1.0000
  Ti  Ti6       1.0  0.75000  0.32200  0.76900  1.0000
