data_image0
_chemical_formula_structural       K2O5Ru2
_chemical_formula_sum              "K2 O5 Ru2"
_cell_length_a       5.14369
_cell_length_b       5.71422
_cell_length_c       6.55555
_cell_angle_alpha    62.2078
_cell_angle_beta     64.7322
_cell_angle_gamma    56.4181

_space_group_name_H-M_alt    "P 1"
_space_group_IT_number       1

loop_
  _space_group_symop_operation_xyz
  'x, y, z'

loop_
  _atom_site_type_symbol
  _atom_site_label
  _atom_site_symmetry_multiplicity
  _atom_site_fract_x
  _atom_site_fract_y
  _atom_site_fract_z
  _atom_site_occupancy
  K   K1        1.0  0.61700  0.62800  0.11100  1.0000
  K   K2        1.0  0.38100  0.37300  0.89300  1.0000
  O   O1        1.0  0.06640  0.56700  0.28400  1.0000
  O   O2        1.0  0.08990  0.05270  0.28600  1.0000
  O   O3        1.0  0.43900  0.85900  0.69200  1.0000
  O   O4        1.0  0.86600  0.97100  0.70500  1.0000
  O   O5        1.0  0.99000  0.40900  0.71100  1.0000
  Ru  Ru1       1.0  0.85500  0.81300  0.49800  1.0000
  Ru  Ru2       1.0  0.13600  0.17100  0.50700  1.0000
