data_image0
_chemical_formula_structural       Te20U12
_chemical_formula_sum              "Te20 U12"
_cell_length_a       4.14256
_cell_length_b       14.0788
_cell_length_c       16.1398
_cell_angle_alpha    90
_cell_angle_beta     90
_cell_angle_gamma    90

_space_group_name_H-M_alt    "P 1"
_space_group_IT_number       1

loop_
  _space_group_symop_operation_xyz
  'x, y, z'

loop_
  _atom_site_type_symbol
  _atom_site_label
  _atom_site_symmetry_multiplicity
  _atom_site_fract_x
  _atom_site_fract_y
  _atom_site_fract_z
  _atom_site_occupancy
  Te  Te1       1.0  0.25000  0.61000  0.02470  1.0000
  Te  Te2       1.0  0.25000  0.20200  0.06850  1.0000
  Te  Te3       1.0  0.25000  0.91900  0.07480  1.0000
  Te  Te4       1.0  0.75000  0.54700  0.21500  1.0000
  Te  Te5       1.0  0.75000  0.27900  0.23600  1.0000
  Te  Te6       1.0  0.25000  0.77900  0.26400  1.0000
  Te  Te7       1.0  0.25000  0.04650  0.28500  1.0000
  Te  Te8       1.0  0.75000  0.41900  0.42500  1.0000
  Te  Te9       1.0  0.75000  0.70200  0.43100  1.0000
  Te  Te10      1.0  0.75000  0.11000  0.47500  1.0000
  Te  Te11      1.0  0.25000  0.89000  0.52500  1.0000
  Te  Te12      1.0  0.25000  0.29800  0.56900  1.0000
  Te  Te13      1.0  0.25000  0.58100  0.57500  1.0000
  Te  Te14      1.0  0.75000  0.95300  0.71500  1.0000
  Te  Te15      1.0  0.75000  0.22100  0.73600  1.0000
  Te  Te16      1.0  0.25000  0.72100  0.76400  1.0000
  Te  Te17      1.0  0.25000  0.45300  0.78500  1.0000
  Te  Te18      1.0  0.75000  0.08140  0.92500  1.0000
  Te  Te19      1.0  0.75000  0.79800  0.93100  1.0000
  Te  Te20      1.0  0.75000  0.39000  0.97500  1.0000
  U   U1        1.0  0.75000  0.75000  0.11900  1.0000
  U   U2        1.0  0.25000  0.41000  0.12700  1.0000
  U   U3        1.0  0.75000  0.06800  0.13900  1.0000
  U   U4        1.0  0.25000  0.56800  0.36100  1.0000
  U   U5        1.0  0.75000  0.91000  0.37300  1.0000
  U   U6        1.0  0.25000  0.25000  0.38100  1.0000
  U   U7        1.0  0.75000  0.75000  0.61900  1.0000
  U   U8        1.0  0.25000  0.09010  0.62700  1.0000
  U   U9        1.0  0.75000  0.43200  0.63900  1.0000
  U   U10       1.0  0.25000  0.93200  0.86100  1.0000
  U   U11       1.0  0.75000  0.59000  0.87300  1.0000
  U   U12       1.0  0.25000  0.25000  0.88100  1.0000
