data_image0
_chemical_formula_structural       Cl8O12Si4Sr8
_chemical_formula_sum              "Cl8 O12 Si4 Sr8"
_cell_length_a       9.23877
_cell_length_b       9.23877
_cell_length_c       9.23877
_cell_angle_alpha    105.432
_cell_angle_beta     105.432
_cell_angle_gamma    117.893

_space_group_name_H-M_alt    "P 1"
_space_group_IT_number       1

loop_
  _space_group_symop_operation_xyz
  'x, y, z'

loop_
  _atom_site_type_symbol
  _atom_site_label
  _atom_site_symmetry_multiplicity
  _atom_site_fract_x
  _atom_site_fract_y
  _atom_site_fract_z
  _atom_site_occupancy
  Cl  Cl1       1.0  0.19800  0.19800  0.00000  1.0000
  Cl  Cl2       1.0  0.80200  0.80200  0.00000  1.0000
  Cl  Cl3       1.0  0.25500  0.90000  0.15500  1.0000
  Cl  Cl4       1.0  0.10000  0.25500  0.35500  1.0000
  Cl  Cl5       1.0  0.25000  0.75000  0.50000  1.0000
  Cl  Cl6       1.0  0.75000  0.25000  0.50000  1.0000
  Cl  Cl7       1.0  0.90000  0.74500  0.64500  1.0000
  Cl  Cl8       1.0  0.74500  0.10000  0.84500  1.0000
  O   O1        1.0  0.44900  0.66500  0.11400  1.0000
  O   O2        1.0  0.59900  0.22400  0.11800  1.0000
  O   O3        1.0  0.89400  0.51900  0.11800  1.0000
  O   O4        1.0  0.66500  0.55100  0.21600  1.0000
  O   O5        1.0  0.48100  0.59900  0.37500  1.0000
  O   O6        1.0  0.77600  0.89400  0.37500  1.0000
  O   O7        1.0  0.22400  0.10600  0.62500  1.0000
  O   O8        1.0  0.51900  0.40100  0.62500  1.0000
  O   O9        1.0  0.33500  0.44900  0.78400  1.0000
  O   O10       1.0  0.10600  0.48100  0.88200  1.0000
  O   O11       1.0  0.40100  0.77600  0.88200  1.0000
  O   O12       1.0  0.55100  0.33500  0.88600  1.0000
  Si  Si1       1.0  0.68300  0.40300  0.08670  1.0000
  Si  Si2       1.0  0.59700  0.68300  0.28000  1.0000
  Si  Si3       1.0  0.40300  0.31700  0.72000  1.0000
  Si  Si4       1.0  0.31700  0.59700  0.91300  1.0000
  Sr  Sr1       1.0  0.14800  0.48000  0.17000  1.0000
  Sr  Sr2       1.0  0.69000  0.02240  0.17000  1.0000
  Sr  Sr3       1.0  0.02240  0.85200  0.33200  1.0000
  Sr  Sr4       1.0  0.48000  0.31000  0.33200  1.0000
  Sr  Sr5       1.0  0.97800  0.14800  0.66800  1.0000
  Sr  Sr6       1.0  0.52000  0.69000  0.66800  1.0000
  Sr  Sr7       1.0  0.31000  0.97800  0.83000  1.0000
  Sr  Sr8       1.0  0.85200  0.52000  0.83000  1.0000
