data_image0
_chemical_formula_structural       Cl6Eu2O24
_chemical_formula_sum              "Cl6 Eu2 O24"
_cell_length_a       5.82765
_cell_length_b       9.04096
_cell_length_c       9.0413
_cell_angle_alpha    119.997
_cell_angle_beta     90
_cell_angle_gamma    90

_space_group_name_H-M_alt    "P 1"
_space_group_IT_number       1

loop_
  _space_group_symop_operation_xyz
  'x, y, z'

loop_
  _atom_site_type_symbol
  _atom_site_label
  _atom_site_symmetry_multiplicity
  _atom_site_fract_x
  _atom_site_fract_y
  _atom_site_fract_z
  _atom_site_occupancy
  Cl  Cl1       1.0  0.25000  0.71400  0.09310  1.0000
  Cl  Cl2       1.0  0.25000  0.37900  0.28600  1.0000
  Cl  Cl3       1.0  0.75000  0.09310  0.37900  1.0000
  Cl  Cl4       1.0  0.25000  0.90700  0.62100  1.0000
  Cl  Cl5       1.0  0.75000  0.62100  0.71400  1.0000
  Cl  Cl6       1.0  0.75000  0.28600  0.90700  1.0000
  Eu  Eu1       1.0  0.75000  0.66700  0.33300  1.0000
  Eu  Eu2       1.0  0.25000  0.33300  0.66700  1.0000
  O   O1        1.0  0.25000  0.81000  0.00649  1.0000
  O   O2        1.0  0.75000  0.46900  0.02180  1.0000
  O   O3        1.0  0.25000  0.19600  0.19000  1.0000
  O   O4        1.0  0.75000  0.00652  0.19600  1.0000
  O   O5        1.0  0.04860  0.75900  0.20300  1.0000
  O   O6        1.0  0.45100  0.75900  0.20300  1.0000
  O   O7        1.0  0.04860  0.44400  0.24100  1.0000
  O   O8        1.0  0.45100  0.44400  0.24100  1.0000
  O   O9        1.0  0.54900  0.20300  0.44400  1.0000
  O   O10       1.0  0.95100  0.20300  0.44400  1.0000
  O   O11       1.0  0.75000  0.97800  0.44700  1.0000
  O   O12       1.0  0.25000  0.44700  0.46900  1.0000
  O   O13       1.0  0.75000  0.55300  0.53100  1.0000
  O   O14       1.0  0.25000  0.02190  0.55300  1.0000
  O   O15       1.0  0.04860  0.79700  0.55600  1.0000
  O   O16       1.0  0.45100  0.79700  0.55600  1.0000
  O   O17       1.0  0.54900  0.55600  0.75900  1.0000
  O   O18       1.0  0.95100  0.55600  0.75900  1.0000
  O   O19       1.0  0.54900  0.24100  0.79700  1.0000
  O   O20       1.0  0.95100  0.24100  0.79700  1.0000
  O   O21       1.0  0.25000  0.99300  0.80400  1.0000
  O   O22       1.0  0.75000  0.80400  0.81000  1.0000
  O   O23       1.0  0.25000  0.53100  0.97800  1.0000
  O   O24       1.0  0.75000  0.19000  0.99400  1.0000
