data_image0
_chemical_formula_structural       Ga8K8S16
_chemical_formula_sum              "Ga8 K8 S16"
_cell_length_a       14.7782
_cell_length_b       7.38035
_cell_length_c       7.38035
_cell_angle_alpha    89.9513
_cell_angle_beta     82.8767
_cell_angle_gamma    97.1233

_space_group_name_H-M_alt    "P 1"
_space_group_IT_number       1

loop_
  _space_group_symop_operation_xyz
  'x, y, z'

loop_
  _atom_site_type_symbol
  _atom_site_label
  _atom_site_symmetry_multiplicity
  _atom_site_fract_x
  _atom_site_fract_y
  _atom_site_fract_z
  _atom_site_occupancy
  Ga  Ga1       1.0  0.32500  0.01650  0.60600  1.0000
  Ga  Ga2       1.0  0.82500  0.39400  0.98400  1.0000
  Ga  Ga3       1.0  0.82600  0.39500  0.47800  1.0000
  Ga  Ga4       1.0  0.32600  0.52200  0.60500  1.0000
  Ga  Ga5       1.0  0.50200  0.81400  0.31300  1.0000
  Ga  Ga6       1.0  0.00174  0.68700  0.18600  1.0000
  Ga  Ga7       1.0  0.00160  0.19200  0.18700  1.0000
  Ga  Ga8       1.0  0.50200  0.81300  0.80800  1.0000
  K   K1        1.0  0.27300  0.25500  0.11800  1.0000
  K   K2        1.0  0.77300  0.88200  0.74500  1.0000
  K   K3        1.0  0.55400  0.32300  0.04790  1.0000
  K   K4        1.0  0.05400  0.95200  0.67700  1.0000
  K   K5        1.0  0.77600  0.88500  0.24400  1.0000
  K   K6        1.0  0.27600  0.75600  0.11500  1.0000
  K   K7        1.0  0.05110  0.45100  0.67300  1.0000
  K   K8        1.0  0.55100  0.32700  0.54900  1.0000
  S   S1        1.0  0.41400  0.53300  0.84000  1.0000
  S   S2        1.0  0.91400  0.16000  0.46700  1.0000
  S   S3        1.0  0.59800  0.83400  0.53600  1.0000
  S   S4        1.0  0.09790  0.46400  0.16600  1.0000
  S   S5        1.0  0.09520  0.96300  0.15900  1.0000
  S   S6        1.0  0.59500  0.84100  0.03700  1.0000
  S   S7        1.0  0.91400  0.16100  0.95200  1.0000
  S   S8        1.0  0.41400  0.04820  0.83900  1.0000
  S   S9        1.0  0.91400  0.67400  0.46500  1.0000
  S   S10       1.0  0.41400  0.53500  0.32600  1.0000
  S   S11       1.0  0.41300  0.04890  0.32800  1.0000
  S   S12       1.0  0.91300  0.67200  0.95100  1.0000
  S   S13       1.0  0.73200  0.37300  0.75300  1.0000
  S   S14       1.0  0.23200  0.24700  0.62700  1.0000
  S   S15       1.0  0.22900  0.74500  0.63300  1.0000
  S   S16       1.0  0.72900  0.36700  0.25500  1.0000
