data_image0
_chemical_formula_structural       Ca4Ga4O10
_chemical_formula_sum              "Ca4 Ga4 O10"
_cell_length_a       5.34189
_cell_length_b       5.55977
_cell_length_c       8.26027
_cell_angle_alpha    109.666
_cell_angle_beta     108.866
_cell_angle_gamma    90

_space_group_name_H-M_alt    "P 1"
_space_group_IT_number       1

loop_
  _space_group_symop_operation_xyz
  'x, y, z'

loop_
  _atom_site_type_symbol
  _atom_site_label
  _atom_site_symmetry_multiplicity
  _atom_site_fract_x
  _atom_site_fract_y
  _atom_site_fract_z
  _atom_site_occupancy
  Ca  Ca1       1.0  0.59700  0.08030  0.21500  1.0000
  Ca  Ca2       1.0  0.09740  0.63500  0.21500  1.0000
  Ca  Ca3       1.0  0.88200  0.36500  0.78500  1.0000
  Ca  Ca4       1.0  0.38200  0.92000  0.78500  1.0000
  Ga  Ga1       1.0  0.99900  0.00000  0.00000  1.0000
  Ga  Ga2       1.0  0.49900  0.50000  0.00000  1.0000
  Ga  Ga3       1.0  0.20200  0.32100  0.50000  1.0000
  Ga  Ga4       1.0  0.70200  0.67900  0.50000  1.0000
  O   O1        1.0  0.76300  0.26100  0.02790  1.0000
  O   O2        1.0  0.26300  0.26700  0.02790  1.0000
  O   O3        1.0  0.16800  0.06920  0.28100  1.0000
  O   O4        1.0  0.66800  0.71200  0.28100  1.0000
  O   O5        1.0  0.85000  0.37200  0.50000  1.0000
  O   O6        1.0  0.35000  0.62800  0.50000  1.0000
  O   O7        1.0  0.38600  0.28800  0.71900  1.0000
  O   O8        1.0  0.88600  0.93100  0.71900  1.0000
  O   O9        1.0  0.23500  0.73300  0.97200  1.0000
  O   O10       1.0  0.73500  0.73900  0.97200  1.0000
