data_image0
_chemical_formula_structural       C8Cl8N8S8
_chemical_formula_sum              "C8 Cl8 N8 S8"
_cell_length_a       6.27515
_cell_length_b       7.3765
_cell_length_c       13.2769
_cell_angle_alpha    90
_cell_angle_beta     90
_cell_angle_gamma    113.191

_space_group_name_H-M_alt    "P 1"
_space_group_IT_number       1

loop_
  _space_group_symop_operation_xyz
  'x, y, z'

loop_
  _atom_site_type_symbol
  _atom_site_label
  _atom_site_symmetry_multiplicity
  _atom_site_fract_x
  _atom_site_fract_y
  _atom_site_fract_z
  _atom_site_occupancy
  C   C1        1.0  0.19000  0.16600  0.05520  1.0000
  C   C2        1.0  0.03740  0.21400  0.13000  1.0000
  C   C3        1.0  0.53700  0.21400  0.37000  1.0000
  C   C4        1.0  0.69000  0.16600  0.44500  1.0000
  C   C5        1.0  0.31000  0.83400  0.55500  1.0000
  C   C6        1.0  0.46300  0.78600  0.63000  1.0000
  C   C7        1.0  0.96300  0.78600  0.87000  1.0000
  C   C8        1.0  0.81000  0.83400  0.94500  1.0000
  Cl  Cl1       1.0  0.49000  0.30100  0.07840  1.0000
  Cl  Cl2       1.0  0.12600  0.45900  0.16500  1.0000
  Cl  Cl3       1.0  0.62600  0.45900  0.33500  1.0000
  Cl  Cl4       1.0  0.99000  0.30100  0.42200  1.0000
  Cl  Cl5       1.0  0.01030  0.69900  0.57800  1.0000
  Cl  Cl6       1.0  0.37400  0.54100  0.66500  1.0000
  Cl  Cl7       1.0  0.87400  0.54100  0.83500  1.0000
  Cl  Cl8       1.0  0.51000  0.69900  0.92200  1.0000
  N   N1        1.0  0.86800  0.79700  0.04930  1.0000
  N   N2        1.0  0.85300  0.08880  0.17000  1.0000
  N   N3        1.0  0.35300  0.08880  0.33000  1.0000
  N   N4        1.0  0.36800  0.79700  0.45100  1.0000
  N   N5        1.0  0.63200  0.20300  0.54900  1.0000
  N   N6        1.0  0.64700  0.91100  0.67000  1.0000
  N   N7        1.0  0.14700  0.91100  0.83000  1.0000
  N   N8        1.0  0.13200  0.20300  0.95100  1.0000
  S   S1        1.0  0.16100  0.90900  0.07380  1.0000
  S   S2        1.0  0.71700  0.85600  0.14500  1.0000
  S   S3        1.0  0.21700  0.85600  0.35500  1.0000
  S   S4        1.0  0.66100  0.90900  0.42600  1.0000
  S   S5        1.0  0.33900  0.09130  0.57400  1.0000
  S   S6        1.0  0.78300  0.14400  0.64500  1.0000
  S   S7        1.0  0.28300  0.14400  0.85500  1.0000
  S   S8        1.0  0.83900  0.09130  0.92600  1.0000
