data_image0
_chemical_formula_structural       Ga8O18Sr6
_chemical_formula_sum              "Ga8 O18 Sr6"
_cell_length_a       6.7254
_cell_length_b       8.02355
_cell_length_c       9.71623
_cell_angle_alpha    85.0919
_cell_angle_beta     72.7179
_cell_angle_gamma    74.2023

_space_group_name_H-M_alt    "P 1"
_space_group_IT_number       1

loop_
  _space_group_symop_operation_xyz
  'x, y, z'

loop_
  _atom_site_type_symbol
  _atom_site_label
  _atom_site_symmetry_multiplicity
  _atom_site_fract_x
  _atom_site_fract_y
  _atom_site_fract_z
  _atom_site_occupancy
  Ga  Ga1       1.0  0.75000  0.24900  0.05680  1.0000
  Ga  Ga2       1.0  0.33500  0.55300  0.23300  1.0000
  Ga  Ga3       1.0  0.38800  0.17000  0.30100  1.0000
  Ga  Ga4       1.0  0.43900  0.80500  0.42000  1.0000
  Ga  Ga5       1.0  0.56100  0.19500  0.58000  1.0000
  Ga  Ga6       1.0  0.61200  0.83000  0.69900  1.0000
  Ga  Ga7       1.0  0.66500  0.44700  0.76700  1.0000
  Ga  Ga8       1.0  0.25000  0.75100  0.94300  1.0000
  O   O1        1.0  0.56200  0.10100  0.11400  1.0000
  O   O2        1.0  0.98400  0.18000  0.12500  1.0000
  O   O3        1.0  0.62600  0.48000  0.12700  1.0000
  O   O4        1.0  0.21400  0.74500  0.13900  1.0000
  O   O5        1.0  0.20200  0.37500  0.26200  1.0000
  O   O6        1.0  0.71100  0.75700  0.29800  1.0000
  O   O7        1.0  0.59100  0.20100  0.38400  1.0000
  O   O8        1.0  0.23700  0.01670  0.40100  1.0000
  O   O9        1.0  0.29600  0.63600  0.41400  1.0000
  O   O10       1.0  0.70400  0.36400  0.58600  1.0000
  O   O11       1.0  0.76300  0.98300  0.59900  1.0000
  O   O12       1.0  0.40900  0.79900  0.61600  1.0000
  O   O13       1.0  0.28900  0.24300  0.70200  1.0000
  O   O14       1.0  0.79800  0.62500  0.73800  1.0000
  O   O15       1.0  0.78600  0.25500  0.86100  1.0000
  O   O16       1.0  0.37400  0.52000  0.87300  1.0000
  O   O17       1.0  0.01590  0.82000  0.87500  1.0000
  O   O18       1.0  0.43800  0.89900  0.88600  1.0000
  Sr  Sr1       1.0  0.68700  0.78500  0.04100  1.0000
  Sr  Sr2       1.0  0.94000  0.94800  0.31400  1.0000
  Sr  Sr3       1.0  0.81400  0.43400  0.32400  1.0000
  Sr  Sr4       1.0  0.18600  0.56600  0.67600  1.0000
  Sr  Sr5       1.0  0.05950  0.05220  0.68600  1.0000
  Sr  Sr6       1.0  0.31300  0.21500  0.95900  1.0000
