data_image0
_chemical_formula_structural       Cl16I8K8
_chemical_formula_sum              "Cl16 I8 K8"
_cell_length_a       8.61153
_cell_length_b       11.1963
_cell_length_c       12.3253
_cell_angle_alpha    90
_cell_angle_beta     109.047
_cell_angle_gamma    90

_space_group_name_H-M_alt    "P 1"
_space_group_IT_number       1

loop_
  _space_group_symop_operation_xyz
  'x, y, z'

loop_
  _atom_site_type_symbol
  _atom_site_label
  _atom_site_symmetry_multiplicity
  _atom_site_fract_x
  _atom_site_fract_y
  _atom_site_fract_z
  _atom_site_occupancy
  Cl  Cl1       1.0  0.64400  0.63800  0.07110  1.0000
  Cl  Cl2       1.0  0.23600  0.00560  0.08660  1.0000
  Cl  Cl3       1.0  0.10900  0.32500  0.16500  1.0000
  Cl  Cl4       1.0  0.33300  0.70100  0.24100  1.0000
  Cl  Cl5       1.0  0.66700  0.20100  0.25900  1.0000
  Cl  Cl6       1.0  0.89100  0.82500  0.33500  1.0000
  Cl  Cl7       1.0  0.76400  0.50600  0.41300  1.0000
  Cl  Cl8       1.0  0.35600  0.13800  0.42900  1.0000
  Cl  Cl9       1.0  0.64400  0.86200  0.57100  1.0000
  Cl  Cl10      1.0  0.23600  0.49400  0.58700  1.0000
  Cl  Cl11      1.0  0.10900  0.17500  0.66500  1.0000
  Cl  Cl12      1.0  0.33300  0.79900  0.74100  1.0000
  Cl  Cl13      1.0  0.66700  0.29900  0.75900  1.0000
  Cl  Cl14      1.0  0.89100  0.67500  0.83500  1.0000
  Cl  Cl15      1.0  0.76400  0.99400  0.91300  1.0000
  Cl  Cl16      1.0  0.35600  0.36200  0.92900  1.0000
  I   I1        1.0  0.70900  0.10000  0.08250  1.0000
  I   I2        1.0  0.87600  0.48000  0.11800  1.0000
  I   I3        1.0  0.12400  0.98000  0.38200  1.0000
  I   I4        1.0  0.29100  0.60000  0.41700  1.0000
  I   I5        1.0  0.70900  0.40000  0.58300  1.0000
  I   I6        1.0  0.87600  0.01970  0.61800  1.0000
  I   I7        1.0  0.12400  0.52000  0.88200  1.0000
  I   I8        1.0  0.29100  0.90000  0.91700  1.0000
  K   K1        1.0  0.97000  0.80000  0.09120  1.0000
  K   K2        1.0  0.45900  0.44700  0.18900  1.0000
  K   K3        1.0  0.54100  0.94700  0.31100  1.0000
  K   K4        1.0  0.03000  0.30000  0.40900  1.0000
  K   K5        1.0  0.97000  0.70000  0.59100  1.0000
  K   K6        1.0  0.45900  0.05330  0.68900  1.0000
  K   K7        1.0  0.54100  0.55300  0.81100  1.0000
  K   K8        1.0  0.03000  0.20000  0.90900  1.0000
