data_image0
_chemical_formula_structural       Cl20Pr4Rb8
_chemical_formula_sum              "Cl20 Pr4 Rb8"
_cell_length_a       8.26283
_cell_length_b       8.98852
_cell_length_c       13.251
_cell_angle_alpha    90
_cell_angle_beta     90
_cell_angle_gamma    90

_space_group_name_H-M_alt    "P 1"
_space_group_IT_number       1

loop_
  _space_group_symop_operation_xyz
  'x, y, z'

loop_
  _atom_site_type_symbol
  _atom_site_label
  _atom_site_symmetry_multiplicity
  _atom_site_fract_x
  _atom_site_fract_y
  _atom_site_fract_z
  _atom_site_occupancy
  Cl  Cl1       1.0  0.08850  0.25000  0.00985  1.0000
  Cl  Cl2       1.0  0.33500  0.54300  0.07170  1.0000
  Cl  Cl3       1.0  0.33500  0.95700  0.07170  1.0000
  Cl  Cl4       1.0  0.61800  0.25000  0.17900  1.0000
  Cl  Cl5       1.0  0.65300  0.75000  0.19900  1.0000
  Cl  Cl6       1.0  0.15300  0.25000  0.30100  1.0000
  Cl  Cl7       1.0  0.11800  0.75000  0.32100  1.0000
  Cl  Cl8       1.0  0.83500  0.04270  0.42800  1.0000
  Cl  Cl9       1.0  0.83500  0.45700  0.42800  1.0000
  Cl  Cl10      1.0  0.58800  0.75000  0.49000  1.0000
  Cl  Cl11      1.0  0.41200  0.25000  0.51000  1.0000
  Cl  Cl12      1.0  0.16500  0.54300  0.57200  1.0000
  Cl  Cl13      1.0  0.16500  0.95700  0.57200  1.0000
  Cl  Cl14      1.0  0.88200  0.25000  0.67900  1.0000
  Cl  Cl15      1.0  0.84700  0.75000  0.69900  1.0000
  Cl  Cl16      1.0  0.34700  0.25000  0.80100  1.0000
  Cl  Cl17      1.0  0.38200  0.75000  0.82100  1.0000
  Cl  Cl18      1.0  0.66500  0.04270  0.92800  1.0000
  Cl  Cl19      1.0  0.66500  0.45700  0.92800  1.0000
  Cl  Cl20      1.0  0.91200  0.75000  0.99000  1.0000
  Pr  Pr1       1.0  0.42800  0.25000  0.00577  1.0000
  Pr  Pr2       1.0  0.92800  0.75000  0.49400  1.0000
  Pr  Pr3       1.0  0.07200  0.25000  0.50600  1.0000
  Pr  Pr4       1.0  0.57200  0.75000  0.99400  1.0000
  Rb  Rb1       1.0  0.94100  0.00649  0.17100  1.0000
  Rb  Rb2       1.0  0.94100  0.49400  0.17100  1.0000
  Rb  Rb3       1.0  0.44100  0.50600  0.32900  1.0000
  Rb  Rb4       1.0  0.44100  0.99400  0.32900  1.0000
  Rb  Rb5       1.0  0.55900  0.00649  0.67100  1.0000
  Rb  Rb6       1.0  0.55900  0.49400  0.67100  1.0000
  Rb  Rb7       1.0  0.05860  0.50600  0.82900  1.0000
  Rb  Rb8       1.0  0.05860  0.99400  0.82900  1.0000
