data_image0
_chemical_formula_structural       Cl20In8Pr4
_chemical_formula_sum              "Cl20 In8 Pr4"
_cell_length_a       8.16466
_cell_length_b       8.84619
_cell_length_c       12.87
_cell_angle_alpha    90
_cell_angle_beta     90
_cell_angle_gamma    90

_space_group_name_H-M_alt    "P 1"
_space_group_IT_number       1

loop_
  _space_group_symop_operation_xyz
  'x, y, z'

loop_
  _atom_site_type_symbol
  _atom_site_label
  _atom_site_symmetry_multiplicity
  _atom_site_fract_x
  _atom_site_fract_y
  _atom_site_fract_z
  _atom_site_occupancy
  Cl  Cl1       1.0  0.07830  0.25000  0.00554  1.0000
  Cl  Cl2       1.0  0.33100  0.54500  0.07200  1.0000
  Cl  Cl3       1.0  0.33100  0.95500  0.07200  1.0000
  Cl  Cl4       1.0  0.61000  0.25000  0.18800  1.0000
  Cl  Cl5       1.0  0.65600  0.75000  0.20600  1.0000
  Cl  Cl6       1.0  0.15600  0.25000  0.29400  1.0000
  Cl  Cl7       1.0  0.11000  0.75000  0.31200  1.0000
  Cl  Cl8       1.0  0.83100  0.04490  0.42800  1.0000
  Cl  Cl9       1.0  0.83100  0.45500  0.42800  1.0000
  Cl  Cl10      1.0  0.57800  0.75000  0.49400  1.0000
  Cl  Cl11      1.0  0.42200  0.25000  0.50600  1.0000
  Cl  Cl12      1.0  0.16900  0.54500  0.57200  1.0000
  Cl  Cl13      1.0  0.16900  0.95500  0.57200  1.0000
  Cl  Cl14      1.0  0.89000  0.25000  0.68800  1.0000
  Cl  Cl15      1.0  0.84400  0.75000  0.70600  1.0000
  Cl  Cl16      1.0  0.34400  0.25000  0.79400  1.0000
  Cl  Cl17      1.0  0.39000  0.75000  0.81200  1.0000
  Cl  Cl18      1.0  0.66900  0.04490  0.92800  1.0000
  Cl  Cl19      1.0  0.66900  0.45500  0.92800  1.0000
  Cl  Cl20      1.0  0.92200  0.75000  0.99400  1.0000
  In  In1       1.0  0.94200  0.00812  0.17000  1.0000
  In  In2       1.0  0.94200  0.49200  0.17000  1.0000
  In  In3       1.0  0.44200  0.50800  0.33000  1.0000
  In  In4       1.0  0.44200  0.99200  0.33000  1.0000
  In  In5       1.0  0.55800  0.00812  0.67000  1.0000
  In  In6       1.0  0.55800  0.49200  0.67000  1.0000
  In  In7       1.0  0.05790  0.50800  0.83000  1.0000
  In  In8       1.0  0.05790  0.99200  0.83000  1.0000
  Pr  Pr1       1.0  0.42400  0.25000  0.00642  1.0000
  Pr  Pr2       1.0  0.92400  0.75000  0.49400  1.0000
  Pr  Pr3       1.0  0.07560  0.25000  0.50600  1.0000
  Pr  Pr4       1.0  0.57600  0.75000  0.99400  1.0000
