data_image0
_chemical_formula_structural       H10O16P4Rb2
_chemical_formula_sum              "H10 O16 P4 Rb2"
_cell_length_a       6.17003
_cell_length_b       6.17003
_cell_length_c       10.4063
_cell_angle_alpha    105.634
_cell_angle_beta     105.634
_cell_angle_gamma    70.753

_space_group_name_H-M_alt    "P 1"
_space_group_IT_number       1

loop_
  _space_group_symop_operation_xyz
  'x, y, z'

loop_
  _atom_site_type_symbol
  _atom_site_label
  _atom_site_symmetry_multiplicity
  _atom_site_fract_x
  _atom_site_fract_y
  _atom_site_fract_z
  _atom_site_occupancy
  H   H1        1.0  0.74400  0.70900  0.02970  1.0000
  H   H2        1.0  0.49900  0.27700  0.13300  1.0000
  H   H3        1.0  0.29000  0.71000  0.25000  1.0000
  H   H4        1.0  0.72300  0.50100  0.36700  1.0000
  H   H5        1.0  0.29100  0.25600  0.47000  1.0000
  H   H6        1.0  0.70900  0.74400  0.53000  1.0000
  H   H7        1.0  0.27700  0.49900  0.63300  1.0000
  H   H8        1.0  0.71000  0.29000  0.75000  1.0000
  H   H9        1.0  0.50100  0.72300  0.86700  1.0000
  H   H10       1.0  0.25600  0.29100  0.97000  1.0000
  O   O1        1.0  0.66800  0.37700  0.11600  1.0000
  O   O2        1.0  0.76500  0.75600  0.13000  1.0000
  O   O3        1.0  0.35500  0.24400  0.15600  1.0000
  O   O4        1.0  0.37600  0.77400  0.18100  1.0000
  O   O5        1.0  0.22600  0.62400  0.31900  1.0000
  O   O6        1.0  0.75600  0.64500  0.34400  1.0000
  O   O7        1.0  0.24400  0.23500  0.37000  1.0000
  O   O8        1.0  0.62300  0.33200  0.38400  1.0000
  O   O9        1.0  0.37700  0.66800  0.61600  1.0000
  O   O10       1.0  0.75600  0.76500  0.63000  1.0000
  O   O11       1.0  0.24400  0.35500  0.65600  1.0000
  O   O12       1.0  0.77400  0.37600  0.68100  1.0000
  O   O13       1.0  0.62400  0.22600  0.81900  1.0000
  O   O14       1.0  0.64500  0.75600  0.84400  1.0000
  O   O15       1.0  0.23500  0.24400  0.87000  1.0000
  O   O16       1.0  0.33200  0.62300  0.88400  1.0000
  P   P1        1.0  0.63300  0.63100  0.18700  1.0000
  P   P2        1.0  0.36900  0.36700  0.31300  1.0000
  P   P3        1.0  0.63100  0.63300  0.68700  1.0000
  P   P4        1.0  0.36700  0.36900  0.81300  1.0000
  Rb  Rb1       1.0  0.00000  0.00000  0.00000  1.0000
  Rb  Rb2       1.0  0.00000  0.00000  0.50000  1.0000
