data_image0
_chemical_formula_structural       Cl4Cu6O16Pb2V4
_chemical_formula_sum              "Cl4 Cu6 O16 Pb2 V4"
_cell_length_a       8.50563
_cell_length_b       8.50563
_cell_length_c       8.50563
_cell_angle_alpha    99.0681
_cell_angle_beta     113.39
_cell_angle_gamma    116.449

_space_group_name_H-M_alt    "P 1"
_space_group_IT_number       1

loop_
  _space_group_symop_operation_xyz
  'x, y, z'

loop_
  _atom_site_type_symbol
  _atom_site_label
  _atom_site_symmetry_multiplicity
  _atom_site_fract_x
  _atom_site_fract_y
  _atom_site_fract_z
  _atom_site_occupancy
  Cl  Cl1       1.0  0.31400  0.40100  0.08720  1.0000
  Cl  Cl2       1.0  0.81400  0.22700  0.41300  1.0000
  Cl  Cl3       1.0  0.18600  0.77300  0.58700  1.0000
  Cl  Cl4       1.0  0.68600  0.59900  0.91300  1.0000
  Cu  Cu1       1.0  0.00000  0.00000  0.00000  1.0000
  Cu  Cu2       1.0  0.75000  0.92400  0.17400  1.0000
  Cu  Cu3       1.0  0.25000  0.57700  0.32600  1.0000
  Cu  Cu4       1.0  0.50000  0.00000  0.50000  1.0000
  Cu  Cu5       1.0  0.75000  0.42300  0.67400  1.0000
  Cu  Cu6       1.0  0.25000  0.07600  0.82600  1.0000
  O   O1        1.0  0.23400  0.99300  0.02640  1.0000
  O   O2        1.0  0.45900  0.81700  0.04400  1.0000
  O   O3        1.0  0.95900  0.41400  0.14200  1.0000
  O   O4        1.0  0.03370  0.00725  0.24200  1.0000
  O   O5        1.0  0.26600  0.79200  0.25800  1.0000
  O   O6        1.0  0.77300  0.81700  0.35800  1.0000
  O   O7        1.0  0.27300  0.41400  0.45600  1.0000
  O   O8        1.0  0.46600  0.20800  0.47400  1.0000
  O   O9        1.0  0.53400  0.79200  0.52600  1.0000
  O   O10       1.0  0.72700  0.58600  0.54400  1.0000
  O   O11       1.0  0.22700  0.18300  0.64200  1.0000
  O   O12       1.0  0.73400  0.20800  0.74200  1.0000
  O   O13       1.0  0.96600  0.99300  0.75800  1.0000
  O   O14       1.0  0.04150  0.58600  0.85800  1.0000
  O   O15       1.0  0.54100  0.18300  0.95600  1.0000
  O   O16       1.0  0.76600  0.00725  0.97400  1.0000
  Pb  Pb1       1.0  0.75000  0.50000  0.25000  1.0000
  Pb  Pb2       1.0  0.25000  0.50000  0.75000  1.0000
  V   V1        1.0  0.25000  0.79700  0.04720  1.0000
  V   V2        1.0  0.25000  0.20300  0.45300  1.0000
  V   V3        1.0  0.75000  0.79700  0.54700  1.0000
  V   V4        1.0  0.75000  0.20300  0.95300  1.0000
