data_image0
_chemical_formula_structural       Ce3Ir9
_chemical_formula_sum              "Ce3 Ir9"
_cell_length_a       5.39248
_cell_length_b       5.39247
_cell_length_c       9.37727
_cell_angle_alpha    73.2899
_cell_angle_beta     106.71
_cell_angle_gamma    120

_space_group_name_H-M_alt    "P 1"
_space_group_IT_number       1

loop_
  _space_group_symop_operation_xyz
  'x, y, z'

loop_
  _atom_site_type_symbol
  _atom_site_label
  _atom_site_symmetry_multiplicity
  _atom_site_fract_x
  _atom_site_fract_y
  _atom_site_fract_z
  _atom_site_occupancy
  Ce  Ce1       1.0  0.00000  0.00000  0.00000  1.0000
  Ce  Ce2       1.0  0.14000  0.86000  0.42000  1.0000
  Ce  Ce3       1.0  0.86000  0.14000  0.58000  1.0000
  Ir  Ir1       1.0  0.66800  0.33200  0.00457  1.0000
  Ir  Ir2       1.0  0.08440  0.42200  0.24100  1.0000
  Ir  Ir3       1.0  0.57800  0.42200  0.24100  1.0000
  Ir  Ir4       1.0  0.57800  0.91600  0.24100  1.0000
  Ir  Ir5       1.0  0.50000  0.50000  0.50000  1.0000
  Ir  Ir6       1.0  0.42200  0.08440  0.75900  1.0000
  Ir  Ir7       1.0  0.42200  0.57800  0.75900  1.0000
  Ir  Ir8       1.0  0.91600  0.57800  0.75900  1.0000
  Ir  Ir9       1.0  0.33200  0.66800  0.99500  1.0000
