data_image0
_chemical_formula_structural       Ce20Ge8Ni4
_chemical_formula_sum              "Ce20 Ge8 Ni4"
_cell_length_a       11.7458
_cell_length_b       11.7458
_cell_length_c       6.63276
_cell_angle_alpha    90
_cell_angle_beta     90
_cell_angle_gamma    90

_space_group_name_H-M_alt    "P 1"
_space_group_IT_number       1

loop_
  _space_group_symop_operation_xyz
  'x, y, z'

loop_
  _atom_site_type_symbol
  _atom_site_label
  _atom_site_symmetry_multiplicity
  _atom_site_fract_x
  _atom_site_fract_y
  _atom_site_fract_z
  _atom_site_occupancy
  Ce  Ce1       1.0  0.75000  0.25000  0.00000  1.0000
  Ce  Ce2       1.0  0.25000  0.75000  0.00000  1.0000
  Ce  Ce3       1.0  0.83400  0.54300  0.15100  1.0000
  Ce  Ce4       1.0  0.54300  0.66600  0.15100  1.0000
  Ce  Ce5       1.0  0.95700  0.83400  0.15100  1.0000
  Ce  Ce6       1.0  0.66600  0.95700  0.15100  1.0000
  Ce  Ce7       1.0  0.16600  0.04300  0.34900  1.0000
  Ce  Ce8       1.0  0.45700  0.16600  0.34900  1.0000
  Ce  Ce9       1.0  0.04300  0.33400  0.34900  1.0000
  Ce  Ce10      1.0  0.33400  0.45700  0.34900  1.0000
  Ce  Ce11      1.0  0.75000  0.25000  0.50000  1.0000
  Ce  Ce12      1.0  0.25000  0.75000  0.50000  1.0000
  Ce  Ce13      1.0  0.66600  0.54300  0.65100  1.0000
  Ce  Ce14      1.0  0.95700  0.66600  0.65100  1.0000
  Ce  Ce15      1.0  0.54300  0.83400  0.65100  1.0000
  Ce  Ce16      1.0  0.83400  0.95700  0.65100  1.0000
  Ce  Ce17      1.0  0.33400  0.04300  0.84900  1.0000
  Ce  Ce18      1.0  0.04300  0.16600  0.84900  1.0000
  Ce  Ce19      1.0  0.45700  0.33400  0.84900  1.0000
  Ce  Ce20      1.0  0.16600  0.45700  0.84900  1.0000
  Ge  Ge1       1.0  0.91000  0.08960  0.25000  1.0000
  Ge  Ge2       1.0  0.59000  0.41000  0.25000  1.0000
  Ge  Ge3       1.0  0.08960  0.59000  0.25000  1.0000
  Ge  Ge4       1.0  0.41000  0.91000  0.25000  1.0000
  Ge  Ge5       1.0  0.59000  0.08960  0.75000  1.0000
  Ge  Ge6       1.0  0.91000  0.41000  0.75000  1.0000
  Ge  Ge7       1.0  0.41000  0.59000  0.75000  1.0000
  Ge  Ge8       1.0  0.08960  0.91000  0.75000  1.0000
  Ni  Ni1       1.0  0.25000  0.25000  0.07150  1.0000
  Ni  Ni2       1.0  0.75000  0.75000  0.42800  1.0000
  Ni  Ni3       1.0  0.25000  0.25000  0.57200  1.0000
  Ni  Ni4       1.0  0.75000  0.75000  0.92800  1.0000
