data_image0
_chemical_formula_structural       Co7In14Zr9
_chemical_formula_sum              "Co7 In14 Zr9"
_cell_length_a       9.4368
_cell_length_b       9.4368
_cell_length_c       9.4368
_cell_angle_alpha    120
_cell_angle_beta     90
_cell_angle_gamma    120

_space_group_name_H-M_alt    "P 1"
_space_group_IT_number       1

loop_
  _space_group_symop_operation_xyz
  'x, y, z'

loop_
  _atom_site_type_symbol
  _atom_site_label
  _atom_site_symmetry_multiplicity
  _atom_site_fract_x
  _atom_site_fract_y
  _atom_site_fract_z
  _atom_site_occupancy
  Co  Co1       1.0  0.27900  0.00000  0.27900  1.0000
  Co  Co2       1.0  0.72100  0.00000  0.27900  1.0000
  Co  Co3       1.0  0.27900  0.55800  0.27900  1.0000
  Co  Co4       1.0  0.50000  0.00000  0.50000  1.0000
  Co  Co5       1.0  0.27900  0.00000  0.72100  1.0000
  Co  Co6       1.0  0.72100  0.00000  0.72100  1.0000
  Co  Co7       1.0  0.72100  0.44200  0.72100  1.0000
  In  In1       1.0  0.34200  0.00000  0.00000  1.0000
  In  In2       1.0  0.65800  0.00000  0.00000  1.0000
  In  In3       1.0  0.00000  0.34200  0.00000  1.0000
  In  In4       1.0  0.34200  0.34200  0.00000  1.0000
  In  In5       1.0  0.00000  0.65800  0.00000  1.0000
  In  In6       1.0  0.65800  0.65800  0.00000  1.0000
  In  In7       1.0  0.75000  0.50000  0.25000  1.0000
  In  In8       1.0  0.00000  0.00000  0.34200  1.0000
  In  In9       1.0  0.00000  0.34200  0.34200  1.0000
  In  In10      1.0  0.34200  0.34200  0.34200  1.0000
  In  In11      1.0  0.00000  0.00000  0.65800  1.0000
  In  In12      1.0  0.00000  0.65800  0.65800  1.0000
  In  In13      1.0  0.65800  0.65800  0.65800  1.0000
  In  In14      1.0  0.25000  0.50000  0.75000  1.0000
  Zr  Zr1       1.0  0.00000  0.00000  0.00000  1.0000
  Zr  Zr2       1.0  0.37900  0.75800  0.13700  1.0000
  Zr  Zr3       1.0  0.62100  0.24200  0.37900  1.0000
  Zr  Zr4       1.0  0.13700  0.75800  0.37900  1.0000
  Zr  Zr5       1.0  0.62100  0.75800  0.37900  1.0000
  Zr  Zr6       1.0  0.37900  0.24200  0.62100  1.0000
  Zr  Zr7       1.0  0.86300  0.24200  0.62100  1.0000
  Zr  Zr8       1.0  0.37900  0.75800  0.62100  1.0000
  Zr  Zr9       1.0  0.62100  0.24200  0.86300  1.0000
