data_image0
_chemical_formula_structural       Hg12O16P4
_chemical_formula_sum              "Hg12 O16 P4"
_cell_length_a       7.97543
_cell_length_b       8.10391
_cell_length_c       9.25005
_cell_angle_alpha    90
_cell_angle_beta     109.498
_cell_angle_gamma    90

_space_group_name_H-M_alt    "P 1"
_space_group_IT_number       1

loop_
  _space_group_symop_operation_xyz
  'x, y, z'

loop_
  _atom_site_type_symbol
  _atom_site_label
  _atom_site_symmetry_multiplicity
  _atom_site_fract_x
  _atom_site_fract_y
  _atom_site_fract_z
  _atom_site_occupancy
  Hg  Hg1       1.0  0.89100  0.90000  0.03090  1.0000
  Hg  Hg2       1.0  0.50600  0.71600  0.06820  1.0000
  Hg  Hg3       1.0  0.26100  0.54700  0.12100  1.0000
  Hg  Hg4       1.0  0.23900  0.04710  0.37900  1.0000
  Hg  Hg5       1.0  0.99400  0.21600  0.43200  1.0000
  Hg  Hg6       1.0  0.60900  0.40000  0.46900  1.0000
  Hg  Hg7       1.0  0.39100  0.60000  0.53100  1.0000
  Hg  Hg8       1.0  0.00594  0.78400  0.56800  1.0000
  Hg  Hg9       1.0  0.76100  0.95300  0.62100  1.0000
  Hg  Hg10      1.0  0.73900  0.45300  0.87900  1.0000
  Hg  Hg11      1.0  0.49400  0.28400  0.93200  1.0000
  Hg  Hg12      1.0  0.10900  0.10000  0.96900  1.0000
  O   O1        1.0  0.81800  0.66400  0.11800  1.0000
  O   O2        1.0  0.41000  0.18700  0.14300  1.0000
  O   O3        1.0  0.65600  0.97000  0.16200  1.0000
  O   O4        1.0  0.04830  0.43400  0.18200  1.0000
  O   O5        1.0  0.45200  0.93400  0.31800  1.0000
  O   O6        1.0  0.84400  0.47000  0.33800  1.0000
  O   O7        1.0  0.09010  0.68700  0.35700  1.0000
  O   O8        1.0  0.68200  0.16400  0.38200  1.0000
  O   O9        1.0  0.31800  0.83600  0.61800  1.0000
  O   O10       1.0  0.91000  0.31300  0.64300  1.0000
  O   O11       1.0  0.15600  0.53000  0.66200  1.0000
  O   O12       1.0  0.54800  0.06550  0.68200  1.0000
  O   O13       1.0  0.95200  0.56600  0.81800  1.0000
  O   O14       1.0  0.34400  0.03000  0.83800  1.0000
  O   O15       1.0  0.59000  0.81300  0.85700  1.0000
  O   O16       1.0  0.18200  0.33600  0.88200  1.0000
  P   P1        1.0  0.54900  0.06340  0.24600  1.0000
  P   P2        1.0  0.95100  0.56300  0.25400  1.0000
  P   P3        1.0  0.04870  0.43700  0.74600  1.0000
  P   P4        1.0  0.45100  0.93700  0.75400  1.0000
