data_image0
_chemical_formula_structural       H2K2Mn2O20P6
_chemical_formula_sum              "H2 K2 Mn2 O20 P6"
_cell_length_a       7.24228
_cell_length_b       7.24228
_cell_length_c       9.13089
_cell_angle_alpha    106.038
_cell_angle_beta     73.9617
_cell_angle_gamma    110.969

_space_group_name_H-M_alt    "P 1"
_space_group_IT_number       1

loop_
  _space_group_symop_operation_xyz
  'x, y, z'

loop_
  _atom_site_type_symbol
  _atom_site_label
  _atom_site_symmetry_multiplicity
  _atom_site_fract_x
  _atom_site_fract_y
  _atom_site_fract_z
  _atom_site_occupancy
  H   H1        1.0  0.00000  0.50000  0.00000  1.0000
  H   H2        1.0  0.50000  0.00000  0.50000  1.0000
  K   K1        1.0  0.55300  0.55300  0.25000  1.0000
  K   K2        1.0  0.44700  0.44700  0.75000  1.0000
  Mn  Mn1       1.0  0.50000  0.00000  0.00000  1.0000
  Mn  Mn2       1.0  0.00000  0.50000  0.50000  1.0000
  O   O1        1.0  0.34700  0.76300  0.09510  1.0000
  O   O2        1.0  0.28700  0.16000  0.10400  1.0000
  O   O3        1.0  0.96200  0.61100  0.12000  1.0000
  O   O4        1.0  0.61400  0.15300  0.17900  1.0000
  O   O5        1.0  0.92700  0.09950  0.19800  1.0000
  O   O6        1.0  0.09950  0.92700  0.30200  1.0000
  O   O7        1.0  0.15300  0.61400  0.32100  1.0000
  O   O8        1.0  0.61100  0.96200  0.38000  1.0000
  O   O9        1.0  0.16000  0.28700  0.39600  1.0000
  O   O10       1.0  0.76300  0.34700  0.40500  1.0000
  O   O11       1.0  0.23700  0.65300  0.59500  1.0000
  O   O12       1.0  0.84000  0.71300  0.60400  1.0000
  O   O13       1.0  0.38900  0.03780  0.62000  1.0000
  O   O14       1.0  0.84700  0.38600  0.67900  1.0000
  O   O15       1.0  0.90000  0.07350  0.69800  1.0000
  O   O16       1.0  0.07350  0.90000  0.80200  1.0000
  O   O17       1.0  0.38600  0.84700  0.82100  1.0000
  O   O18       1.0  0.03780  0.38900  0.88000  1.0000
  O   O19       1.0  0.71300  0.84000  0.89600  1.0000
  O   O20       1.0  0.65300  0.23700  0.90500  1.0000
  P   P1        1.0  0.14000  0.72000  0.20300  1.0000
  P   P2        1.0  0.13200  0.13200  0.25000  1.0000
  P   P3        1.0  0.72000  0.14000  0.29700  1.0000
  P   P4        1.0  0.28000  0.86000  0.70300  1.0000
  P   P5        1.0  0.86800  0.86800  0.75000  1.0000
  P   P6        1.0  0.86000  0.28000  0.79700  1.0000
