data_image0
_chemical_formula_structural       K2O5Ti2
_chemical_formula_sum              "K2 O5 Ti2"
_cell_length_a       3.77618
_cell_length_b       6.01611
_cell_length_c       6.5688
_cell_angle_alpha    99.511
_cell_angle_beta     90
_cell_angle_gamma    108.291

_space_group_name_H-M_alt    "P 1"
_space_group_IT_number       1

loop_
  _space_group_symop_operation_xyz
  'x, y, z'

loop_
  _atom_site_type_symbol
  _atom_site_label
  _atom_site_symmetry_multiplicity
  _atom_site_fract_x
  _atom_site_fract_y
  _atom_site_fract_z
  _atom_site_occupancy
  K   K1        1.0  0.59800  0.19600  0.35200  1.0000
  K   K2        1.0  0.40200  0.80400  0.64800  1.0000
  O   O1        1.0  0.00000  0.00000  0.00000  1.0000
  O   O2        1.0  0.32300  0.64600  0.00848  1.0000
  O   O3        1.0  0.87500  0.74900  0.36400  1.0000
  O   O4        1.0  0.12500  0.25100  0.63600  1.0000
  O   O5        1.0  0.67700  0.35300  0.99200  1.0000
  Ti  Ti1       1.0  0.85200  0.70500  0.09390  1.0000
  Ti  Ti2       1.0  0.14800  0.29500  0.90600  1.0000
