data_image0
_chemical_formula_structural       Br20K8Pr4
_chemical_formula_sum              "Br20 K8 Pr4"
_cell_length_a       8.60815
_cell_length_b       9.28389
_cell_length_c       13.6581
_cell_angle_alpha    90
_cell_angle_beta     90
_cell_angle_gamma    90

_space_group_name_H-M_alt    "P 1"
_space_group_IT_number       1

loop_
  _space_group_symop_operation_xyz
  'x, y, z'

loop_
  _atom_site_type_symbol
  _atom_site_label
  _atom_site_symmetry_multiplicity
  _atom_site_fract_x
  _atom_site_fract_y
  _atom_site_fract_z
  _atom_site_occupancy
  Br  Br1       1.0  0.07430  0.25000  0.00744  1.0000
  Br  Br2       1.0  0.33200  0.54500  0.07670  1.0000
  Br  Br3       1.0  0.33200  0.95500  0.07670  1.0000
  Br  Br4       1.0  0.62400  0.25000  0.18200  1.0000
  Br  Br5       1.0  0.66100  0.75000  0.20500  1.0000
  Br  Br6       1.0  0.16100  0.25000  0.29500  1.0000
  Br  Br7       1.0  0.12400  0.75000  0.31800  1.0000
  Br  Br8       1.0  0.83200  0.04500  0.42300  1.0000
  Br  Br9       1.0  0.83200  0.45500  0.42300  1.0000
  Br  Br10      1.0  0.57400  0.75000  0.49300  1.0000
  Br  Br11      1.0  0.42600  0.25000  0.50700  1.0000
  Br  Br12      1.0  0.16800  0.54500  0.57700  1.0000
  Br  Br13      1.0  0.16800  0.95500  0.57700  1.0000
  Br  Br14      1.0  0.87600  0.25000  0.68200  1.0000
  Br  Br15      1.0  0.83900  0.75000  0.70500  1.0000
  Br  Br16      1.0  0.33900  0.25000  0.79500  1.0000
  Br  Br17      1.0  0.37600  0.75000  0.81800  1.0000
  Br  Br18      1.0  0.66800  0.04500  0.92300  1.0000
  Br  Br19      1.0  0.66800  0.45500  0.92300  1.0000
  Br  Br20      1.0  0.92600  0.75000  0.99300  1.0000
  K   K1        1.0  0.94300  0.00524  0.17200  1.0000
  K   K2        1.0  0.94300  0.49500  0.17200  1.0000
  K   K3        1.0  0.44300  0.50500  0.32800  1.0000
  K   K4        1.0  0.44300  0.99500  0.32800  1.0000
  K   K5        1.0  0.55700  0.00524  0.67200  1.0000
  K   K6        1.0  0.55700  0.49500  0.67200  1.0000
  K   K7        1.0  0.05680  0.50500  0.82800  1.0000
  K   K8        1.0  0.05680  0.99500  0.82800  1.0000
  Pr  Pr1       1.0  0.42200  0.25000  0.00622  1.0000
  Pr  Pr2       1.0  0.92200  0.75000  0.49400  1.0000
  Pr  Pr3       1.0  0.07780  0.25000  0.50600  1.0000
  Pr  Pr4       1.0  0.57800  0.75000  0.99400  1.0000
