data_image0
_chemical_formula_structural       Na2O5Pt2
_chemical_formula_sum              "Na2 O5 Pt2"
_cell_length_a       5.03673
_cell_length_b       5.05014
_cell_length_c       5.85214
_cell_angle_alpha    65.3433
_cell_angle_beta     67.1917
_cell_angle_gamma    66.8159

_space_group_name_H-M_alt    "P 1"
_space_group_IT_number       1

loop_
  _space_group_symop_operation_xyz
  'x, y, z'

loop_
  _atom_site_type_symbol
  _atom_site_label
  _atom_site_symmetry_multiplicity
  _atom_site_fract_x
  _atom_site_fract_y
  _atom_site_fract_z
  _atom_site_occupancy
  Na  Na1       1.0  0.84600  0.86700  0.41100  1.0000
  Na  Na2       1.0  0.15100  0.14100  0.57000  1.0000
  O   O1        1.0  0.95400  0.51000  0.22600  1.0000
  O   O2        1.0  0.33600  0.91500  0.22900  1.0000
  O   O3        1.0  0.43400  0.72500  0.77800  1.0000
  O   O4        1.0  0.69200  0.09650  0.78000  1.0000
  O   O5        1.0  0.03180  0.44600  0.79500  1.0000
  Pt  Pt1       1.0  0.67000  0.66400  0.00860  1.0000
  Pt  Pt2       1.0  0.33900  0.33400  0.98800  1.0000
