data_image0
_chemical_formula_structural       C8F16Te8
_chemical_formula_sum              "C8 F16 Te8"
_cell_length_a       6.65426
_cell_length_b       10.976
_cell_length_c       7.15888
_cell_angle_alpha    90
_cell_angle_beta     91.7408
_cell_angle_gamma    90

_space_group_name_H-M_alt    "P 1"
_space_group_IT_number       1

loop_
  _space_group_symop_operation_xyz
  'x, y, z'

loop_
  _atom_site_type_symbol
  _atom_site_label
  _atom_site_symmetry_multiplicity
  _atom_site_fract_x
  _atom_site_fract_y
  _atom_site_fract_z
  _atom_site_occupancy
  C   C1        1.0  0.40800  0.32000  0.02100  1.0000
  C   C2        1.0  0.23000  0.54200  0.11100  1.0000
  C   C3        1.0  0.06690  0.86400  0.30600  1.0000
  C   C4        1.0  0.72900  0.51600  0.44200  1.0000
  C   C5        1.0  0.27100  0.01590  0.55800  1.0000
  C   C6        1.0  0.93300  0.36400  0.69400  1.0000
  C   C7        1.0  0.77000  0.04160  0.88900  1.0000
  C   C8        1.0  0.59200  0.82000  0.97900  1.0000
  F   F1        1.0  0.04320  0.58400  0.05950  1.0000
  F   F2        1.0  0.60100  0.28500  0.07530  1.0000
  F   F3        1.0  0.66900  0.72500  0.08030  1.0000
  F   F4        1.0  0.07380  0.86300  0.11500  1.0000
  F   F5        1.0  0.31300  0.63300  0.22100  1.0000
  F   F6        1.0  0.72700  0.51700  0.25200  1.0000
  F   F7        1.0  0.93300  0.77200  0.35000  1.0000
  F   F8        1.0  0.59900  0.60900  0.49300  1.0000
  F   F9        1.0  0.40100  0.10900  0.50700  1.0000
  F   F10       1.0  0.06650  0.27200  0.65000  1.0000
  F   F11       1.0  0.27300  0.01720  0.74800  1.0000
  F   F12       1.0  0.68700  0.13300  0.77900  1.0000
  F   F13       1.0  0.92600  0.36300  0.88500  1.0000
  F   F14       1.0  0.33100  0.22500  0.92000  1.0000
  F   F15       1.0  0.39900  0.78500  0.92500  1.0000
  F   F16       1.0  0.95700  0.08370  0.94100  1.0000
  Te  Te1       1.0  0.58500  0.99500  0.13500  1.0000
  Te  Te2       1.0  0.22800  0.36800  0.26800  1.0000
  Te  Te3       1.0  0.97000  0.04280  0.41600  1.0000
  Te  Te4       1.0  0.36400  0.83800  0.45200  1.0000
  Te  Te5       1.0  0.63600  0.33800  0.54800  1.0000
  Te  Te6       1.0  0.03010  0.54300  0.58400  1.0000
  Te  Te7       1.0  0.77200  0.86800  0.73200  1.0000
  Te  Te8       1.0  0.41500  0.49500  0.86500  1.0000
