data_image0
_chemical_formula_structural       Li2O5Sm2
_chemical_formula_sum              "Li2 O5 Sm2"
_cell_length_a       8.16522
_cell_length_b       4.18615
_cell_length_c       4.18615
_cell_angle_alpha    90
_cell_angle_beta     90
_cell_angle_gamma    90

_space_group_name_H-M_alt    "P 1"
_space_group_IT_number       1

loop_
  _space_group_symop_operation_xyz
  'x, y, z'

loop_
  _atom_site_type_symbol
  _atom_site_label
  _atom_site_symmetry_multiplicity
  _atom_site_fract_x
  _atom_site_fract_y
  _atom_site_fract_z
  _atom_site_occupancy
  Li  Li1       1.0  0.00000  0.00000  0.00000  1.0000
  Li  Li2       1.0  0.50000  0.00000  0.00000  1.0000
  O   O1        1.0  0.13700  0.50000  0.00000  1.0000
  O   O2        1.0  0.86300  0.50000  0.00000  1.0000
  O   O3        1.0  0.13700  0.00000  0.50000  1.0000
  O   O4        1.0  0.86300  0.00000  0.50000  1.0000
  O   O5        1.0  0.50000  0.50000  0.50000  1.0000
  Sm  Sm1       1.0  0.22800  0.50000  0.50000  1.0000
  Sm  Sm2       1.0  0.77200  0.50000  0.50000  1.0000
