data_image0
_chemical_formula_structural       Cd6Lu2
_chemical_formula_sum              "Cd6 Lu2"
_cell_length_a       4.79893
_cell_length_b       6.37989
_cell_length_c       6.37989
_cell_angle_alpha    111.813
_cell_angle_beta     90
_cell_angle_gamma    90

_space_group_name_H-M_alt    "P 1"
_space_group_IT_number       1

loop_
  _space_group_symop_operation_xyz
  'x, y, z'

loop_
  _atom_site_type_symbol
  _atom_site_label
  _atom_site_symmetry_multiplicity
  _atom_site_fract_x
  _atom_site_fract_y
  _atom_site_fract_z
  _atom_site_occupancy
  Cd  Cd1       1.0  0.25000  0.31100  0.12000  1.0000
  Cd  Cd2       1.0  0.25000  0.82300  0.17700  1.0000
  Cd  Cd3       1.0  0.75000  0.12000  0.31100  1.0000
  Cd  Cd4       1.0  0.25000  0.88000  0.68900  1.0000
  Cd  Cd5       1.0  0.75000  0.17700  0.82300  1.0000
  Cd  Cd6       1.0  0.75000  0.68900  0.88000  1.0000
  Lu  Lu1       1.0  0.75000  0.63100  0.36900  1.0000
  Lu  Lu2       1.0  0.25000  0.36900  0.63100  1.0000
