data_image0
_chemical_formula_structural       K2O5Rh2
_chemical_formula_sum              "K2 O5 Rh2"
_cell_length_a       5.12992
_cell_length_b       5.76973
_cell_length_c       6.64931
_cell_angle_alpha    60.5955
_cell_angle_beta     64.5889
_cell_angle_gamma    55.2408

_space_group_name_H-M_alt    "P 1"
_space_group_IT_number       1

loop_
  _space_group_symop_operation_xyz
  'x, y, z'

loop_
  _atom_site_type_symbol
  _atom_site_label
  _atom_site_symmetry_multiplicity
  _atom_site_fract_x
  _atom_site_fract_y
  _atom_site_fract_z
  _atom_site_occupancy
  K   K1        1.0  0.60800  0.61800  0.10800  1.0000
  K   K2        1.0  0.38400  0.36600  0.90500  1.0000
  O   O1        1.0  0.00432  0.59500  0.28700  1.0000
  O   O2        1.0  0.13300  0.03060  0.29000  1.0000
  O   O3        1.0  0.45000  0.83600  0.67800  1.0000
  O   O4        1.0  0.85000  0.98600  0.70700  1.0000
  O   O5        1.0  0.01250  0.40300  0.71300  1.0000
  Rh  Rh1       1.0  0.86900  0.82200  0.49700  1.0000
  Rh  Rh2       1.0  0.12800  0.18600  0.50600  1.0000
