data_image0
_chemical_formula_structural       Ir2Na2O5
_chemical_formula_sum              "Ir2 Na2 O5"
_cell_length_a       4.94759
_cell_length_b       5.56728
_cell_length_c       5.87354
_cell_angle_alpha    63.8519
_cell_angle_beta     64.3884
_cell_angle_gamma    56.0041

_space_group_name_H-M_alt    "P 1"
_space_group_IT_number       1

loop_
  _space_group_symop_operation_xyz
  'x, y, z'

loop_
  _atom_site_type_symbol
  _atom_site_label
  _atom_site_symmetry_multiplicity
  _atom_site_fract_x
  _atom_site_fract_y
  _atom_site_fract_z
  _atom_site_occupancy
  Ir  Ir1       1.0  0.67200  0.66500  0.01060  1.0000
  Ir  Ir2       1.0  0.33000  0.34400  0.99200  1.0000
  Na  Na1       1.0  0.88000  0.84400  0.40500  1.0000
  Na  Na2       1.0  0.13000  0.15300  0.56800  1.0000
  O   O1        1.0  0.32400  0.95100  0.22000  1.0000
  O   O2        1.0  0.52700  0.33900  0.22200  1.0000
  O   O3        1.0  0.06650  0.44300  0.76600  1.0000
  O   O4        1.0  0.42000  0.69300  0.79900  1.0000
  O   O5        1.0  0.71600  0.03480  0.80400  1.0000
