data_image0
_chemical_formula_structural       F16O8S8
_chemical_formula_sum              "F16 O8 S8"
_cell_length_a       4.92109
_cell_length_b       6.36441
_cell_length_c       13.2277
_cell_angle_alpha    90
_cell_angle_beta     97.6575
_cell_angle_gamma    90

_space_group_name_H-M_alt    "P 1"
_space_group_IT_number       1

loop_
  _space_group_symop_operation_xyz
  'x, y, z'

loop_
  _atom_site_type_symbol
  _atom_site_label
  _atom_site_symmetry_multiplicity
  _atom_site_fract_x
  _atom_site_fract_y
  _atom_site_fract_z
  _atom_site_occupancy
  F   F1        1.0  0.14700  0.82300  0.04880  1.0000
  F   F2        1.0  0.67600  0.83500  0.05630  1.0000
  F   F3        1.0  0.68000  0.42000  0.10300  1.0000
  F   F4        1.0  0.21000  0.41800  0.10800  1.0000
  F   F5        1.0  0.79000  0.91800  0.39200  1.0000
  F   F6        1.0  0.32000  0.92000  0.39700  1.0000
  F   F7        1.0  0.32400  0.33500  0.44400  1.0000
  F   F8        1.0  0.85300  0.32300  0.45100  1.0000
  F   F9        1.0  0.14700  0.67700  0.54900  1.0000
  F   F10       1.0  0.67600  0.66500  0.55600  1.0000
  F   F11       1.0  0.68000  0.07970  0.60300  1.0000
  F   F12       1.0  0.21000  0.08190  0.60800  1.0000
  F   F13       1.0  0.79000  0.58200  0.89200  1.0000
  F   F14       1.0  0.32000  0.58000  0.89700  1.0000
  F   F15       1.0  0.32400  0.16500  0.94400  1.0000
  F   F16       1.0  0.85300  0.17700  0.95100  1.0000
  O   O1        1.0  0.97600  0.04390  0.17600  1.0000
  O   O2        1.0  0.48900  0.79900  0.24300  1.0000
  O   O3        1.0  0.51100  0.29900  0.25700  1.0000
  O   O4        1.0  0.02380  0.54400  0.32400  1.0000
  O   O5        1.0  0.97600  0.45600  0.67600  1.0000
  O   O6        1.0  0.48900  0.70100  0.74300  1.0000
  O   O7        1.0  0.51100  0.20100  0.75700  1.0000
  O   O8        1.0  0.02380  0.95600  0.82400  1.0000
  S   S1        1.0  0.95300  0.83200  0.13800  1.0000
  S   S2        1.0  0.46500  0.26700  0.14800  1.0000
  S   S3        1.0  0.53500  0.76700  0.35200  1.0000
  S   S4        1.0  0.04670  0.33200  0.36200  1.0000
  S   S5        1.0  0.95300  0.66800  0.63800  1.0000
  S   S6        1.0  0.46500  0.23300  0.64800  1.0000
  S   S7        1.0  0.53500  0.73300  0.85200  1.0000
  S   S8        1.0  0.04670  0.16800  0.86200  1.0000
