data_image0
_chemical_formula_structural       Be2O5Rh2
_chemical_formula_sum              "Be2 O5 Rh2"
_cell_length_a       6.88797
_cell_length_b       3.35155
_cell_length_c       3.35155
_cell_angle_alpha    90
_cell_angle_beta     90
_cell_angle_gamma    90

_space_group_name_H-M_alt    "P 1"
_space_group_IT_number       1

loop_
  _space_group_symop_operation_xyz
  'x, y, z'

loop_
  _atom_site_type_symbol
  _atom_site_label
  _atom_site_symmetry_multiplicity
  _atom_site_fract_x
  _atom_site_fract_y
  _atom_site_fract_z
  _atom_site_occupancy
  Be  Be1       1.0  0.25900  0.50000  0.50000  1.0000
  Be  Be2       1.0  0.74100  0.50000  0.50000  1.0000
  O   O1        1.0  0.18100  0.50000  0.00000  1.0000
  O   O2        1.0  0.81900  0.50000  0.00000  1.0000
  O   O3        1.0  0.18100  0.00000  0.50000  1.0000
  O   O4        1.0  0.81900  0.00000  0.50000  1.0000
  O   O5        1.0  0.50000  0.50000  0.50000  1.0000
  Rh  Rh1       1.0  0.00000  0.00000  0.00000  1.0000
  Rh  Rh2       1.0  0.50000  0.00000  0.00000  1.0000
