data_image0
_chemical_formula_structural       In6Li26
_chemical_formula_sum              "In6 Li26"
_cell_length_a       9.17886
_cell_length_b       9.17886
_cell_length_c       9.17886
_cell_angle_alpha    120
_cell_angle_beta     90
_cell_angle_gamma    120

_space_group_name_H-M_alt    "P 1"
_space_group_IT_number       1

loop_
  _space_group_symop_operation_xyz
  'x, y, z'

loop_
  _atom_site_type_symbol
  _atom_site_label
  _atom_site_symmetry_multiplicity
  _atom_site_fract_x
  _atom_site_fract_y
  _atom_site_fract_z
  _atom_site_occupancy
  In  In1       1.0  0.75000  0.50000  0.25000  1.0000
  In  In2       1.0  0.12500  0.25000  0.37500  1.0000
  In  In3       1.0  0.50000  0.00000  0.50000  1.0000
  In  In4       1.0  0.12500  0.25000  0.87500  1.0000
  In  In5       1.0  0.12500  0.75000  0.87500  1.0000
  In  In6       1.0  0.62500  0.75000  0.87500  1.0000
  Li  Li1       1.0  0.00000  0.00000  0.00000  1.0000
  Li  Li2       1.0  0.50500  0.50000  0.00456  1.0000
  Li  Li3       1.0  0.50500  0.00912  0.00456  1.0000
  Li  Li4       1.0  0.99500  0.50000  0.00456  1.0000
  Li  Li5       1.0  0.36900  0.73800  0.10700  1.0000
  Li  Li6       1.0  0.35700  0.23800  0.11900  1.0000
  Li  Li7       1.0  0.88100  0.76200  0.11900  1.0000
  Li  Li8       1.0  0.88100  0.23800  0.11900  1.0000
  Li  Li9       1.0  0.74500  0.00000  0.25500  1.0000
  Li  Li10      1.0  0.25500  0.00000  0.25500  1.0000
  Li  Li11      1.0  0.25500  0.50900  0.25500  1.0000
  Li  Li12      1.0  0.62500  0.25000  0.37500  1.0000
  Li  Li13      1.0  0.12500  0.75000  0.37500  1.0000
  Li  Li14      1.0  0.62500  0.75000  0.37500  1.0000
  Li  Li15      1.0  0.99500  0.50000  0.49500  1.0000
  Li  Li16      1.0  0.99500  0.99100  0.49500  1.0000
  Li  Li17      1.0  0.50500  0.50000  0.49500  1.0000
  Li  Li18      1.0  0.89300  0.26200  0.63100  1.0000
  Li  Li19      1.0  0.36900  0.73800  0.63100  1.0000
  Li  Li20      1.0  0.36900  0.26200  0.63100  1.0000
  Li  Li21      1.0  0.88100  0.76200  0.64300  1.0000
  Li  Li22      1.0  0.25500  0.00000  0.74500  1.0000
  Li  Li23      1.0  0.74500  0.49100  0.74500  1.0000
  Li  Li24      1.0  0.74500  0.00000  0.74500  1.0000
  Li  Li25      1.0  0.25000  0.50000  0.75000  1.0000
  Li  Li26      1.0  0.62500  0.25000  0.87500  1.0000
