data_image0
_chemical_formula_structural       Au4Rb8S16Sb4
_chemical_formula_sum              "Au4 Rb8 S16 Sb4"
_cell_length_a       6.94787
_cell_length_b       7.31457
_cell_length_c       20.4678
_cell_angle_alpha    90
_cell_angle_beta     90
_cell_angle_gamma    90

_space_group_name_H-M_alt    "P 1"
_space_group_IT_number       1

loop_
  _space_group_symop_operation_xyz
  'x, y, z'

loop_
  _atom_site_type_symbol
  _atom_site_label
  _atom_site_symmetry_multiplicity
  _atom_site_fract_x
  _atom_site_fract_y
  _atom_site_fract_z
  _atom_site_occupancy
  Au  Au1       1.0  0.60800  0.00000  0.25000  1.0000
  Au  Au2       1.0  0.60800  0.50000  0.25000  1.0000
  Au  Au3       1.0  0.39200  0.00000  0.75000  1.0000
  Au  Au4       1.0  0.39200  0.50000  0.75000  1.0000
  Rb  Rb1       1.0  0.29600  0.75000  0.01220  1.0000
  Rb  Rb2       1.0  0.09990  0.25000  0.17100  1.0000
  Rb  Rb3       1.0  0.09990  0.75000  0.32900  1.0000
  Rb  Rb4       1.0  0.29600  0.25000  0.48800  1.0000
  Rb  Rb5       1.0  0.70400  0.75000  0.51200  1.0000
  Rb  Rb6       1.0  0.90000  0.25000  0.67100  1.0000
  Rb  Rb7       1.0  0.90000  0.75000  0.82900  1.0000
  Rb  Rb8       1.0  0.70400  0.25000  0.98800  1.0000
  S   S1        1.0  0.20100  0.25000  0.00375  1.0000
  S   S2        1.0  0.60900  0.02000  0.13700  1.0000
  S   S3        1.0  0.60900  0.48000  0.13700  1.0000
  S   S4        1.0  0.09350  0.75000  0.16100  1.0000
  S   S5        1.0  0.09350  0.25000  0.33900  1.0000
  S   S6        1.0  0.60900  0.52000  0.36300  1.0000
  S   S7        1.0  0.60900  0.98000  0.36300  1.0000
  S   S8        1.0  0.20100  0.75000  0.49600  1.0000
  S   S9        1.0  0.79900  0.25000  0.50400  1.0000
  S   S10       1.0  0.39100  0.02000  0.63700  1.0000
  S   S11       1.0  0.39100  0.48000  0.63700  1.0000
  S   S12       1.0  0.90700  0.75000  0.66100  1.0000
  S   S13       1.0  0.90700  0.25000  0.83900  1.0000
  S   S14       1.0  0.39100  0.52000  0.86300  1.0000
  S   S15       1.0  0.39100  0.98000  0.86300  1.0000
  S   S16       1.0  0.79900  0.75000  0.99600  1.0000
  Sb  Sb1       1.0  0.79300  0.75000  0.11000  1.0000
  Sb  Sb2       1.0  0.79300  0.25000  0.39000  1.0000
  Sb  Sb3       1.0  0.20700  0.75000  0.61000  1.0000
  Sb  Sb4       1.0  0.20700  0.25000  0.89000  1.0000
