data_image0
_chemical_formula_structural       Ge2O5Sn2
_chemical_formula_sum              "Ge2 O5 Sn2"
_cell_length_a       4.91137
_cell_length_b       4.98751
_cell_length_c       7.06727
_cell_angle_alpha    67.0852
_cell_angle_beta     69.1303
_cell_angle_gamma    58.8635

_space_group_name_H-M_alt    "P 1"
_space_group_IT_number       1

loop_
  _space_group_symop_operation_xyz
  'x, y, z'

loop_
  _atom_site_type_symbol
  _atom_site_label
  _atom_site_symmetry_multiplicity
  _atom_site_fract_x
  _atom_site_fract_y
  _atom_site_fract_z
  _atom_site_occupancy
  Ge  Ge1       1.0  0.81600  0.85600  0.49500  1.0000
  Ge  Ge2       1.0  0.18200  0.16900  0.49700  1.0000
  O   O1        1.0  0.92200  0.58000  0.32200  1.0000
  O   O2        1.0  0.18800  0.94000  0.32600  1.0000
  O   O3        1.0  0.81400  0.09080  0.65600  1.0000
  O   O4        1.0  0.08500  0.45200  0.65800  1.0000
  O   O5        1.0  0.44100  0.79700  0.68600  1.0000
  Sn  Sn1       1.0  0.60600  0.57000  0.17600  1.0000
  Sn  Sn2       1.0  0.39000  0.35700  0.85300  1.0000
