data_image0
_chemical_formula_structural       Ge8S16Tl8
_chemical_formula_sum              "Ge8 S16 Tl8"
_cell_length_a       6.72573
_cell_length_b       9.04504
_cell_length_c       14.3078
_cell_angle_alpha    90
_cell_angle_beta     90
_cell_angle_gamma    90

_space_group_name_H-M_alt    "P 1"
_space_group_IT_number       1

loop_
  _space_group_symop_operation_xyz
  'x, y, z'

loop_
  _atom_site_type_symbol
  _atom_site_label
  _atom_site_symmetry_multiplicity
  _atom_site_fract_x
  _atom_site_fract_y
  _atom_site_fract_z
  _atom_site_occupancy
  Ge  Ge1       1.0  0.25000  0.08660  0.04140  1.0000
  Ge  Ge2       1.0  0.75000  0.25500  0.07000  1.0000
  Ge  Ge3       1.0  0.75000  0.75500  0.43000  1.0000
  Ge  Ge4       1.0  0.25000  0.58700  0.45900  1.0000
  Ge  Ge5       1.0  0.75000  0.41300  0.54100  1.0000
  Ge  Ge6       1.0  0.25000  0.24500  0.57000  1.0000
  Ge  Ge7       1.0  0.25000  0.74500  0.93000  1.0000
  Ge  Ge8       1.0  0.75000  0.91300  0.95900  1.0000
  S   S1        1.0  0.25000  0.82800  0.07820  1.0000
  S   S2        1.0  0.75000  0.49400  0.08210  1.0000
  S   S3        1.0  0.00435  0.15200  0.15300  1.0000
  S   S4        1.0  0.49600  0.15200  0.15300  1.0000
  S   S5        1.0  0.00435  0.65200  0.34700  1.0000
  S   S6        1.0  0.49600  0.65200  0.34700  1.0000
  S   S7        1.0  0.75000  0.99400  0.41800  1.0000
  S   S8        1.0  0.25000  0.32800  0.42200  1.0000
  S   S9        1.0  0.75000  0.67200  0.57800  1.0000
  S   S10       1.0  0.25000  0.00552  0.58200  1.0000
  S   S11       1.0  0.50400  0.34800  0.65300  1.0000
  S   S12       1.0  0.99600  0.34800  0.65300  1.0000
  S   S13       1.0  0.50400  0.84800  0.84700  1.0000
  S   S14       1.0  0.99600  0.84800  0.84700  1.0000
  S   S15       1.0  0.25000  0.50600  0.91800  1.0000
  S   S16       1.0  0.75000  0.17200  0.92200  1.0000
  Tl  Tl1       1.0  0.25000  0.48200  0.13300  1.0000
  Tl  Tl2       1.0  0.75000  0.85500  0.18100  1.0000
  Tl  Tl3       1.0  0.75000  0.35500  0.31900  1.0000
  Tl  Tl4       1.0  0.25000  0.98200  0.36700  1.0000
  Tl  Tl5       1.0  0.75000  0.01770  0.63300  1.0000
  Tl  Tl6       1.0  0.25000  0.64500  0.68100  1.0000
  Tl  Tl7       1.0  0.25000  0.14500  0.81900  1.0000
  Tl  Tl8       1.0  0.75000  0.51800  0.86700  1.0000
