data_image0
_chemical_formula_structural       Ge4Li4O10
_chemical_formula_sum              "Ge4 Li4 O10"
_cell_length_a       4.93914
_cell_length_b       5.85367
_cell_length_c       8.1792
_cell_angle_alpha    69.0325
_cell_angle_beta     89.9936
_cell_angle_gamma    89.9821

_space_group_name_H-M_alt    "P 1"
_space_group_IT_number       1

loop_
  _space_group_symop_operation_xyz
  'x, y, z'

loop_
  _atom_site_type_symbol
  _atom_site_label
  _atom_site_symmetry_multiplicity
  _atom_site_fract_x
  _atom_site_fract_y
  _atom_site_fract_z
  _atom_site_occupancy
  Ge  Ge1       1.0  0.60100  0.01170  0.29300  1.0000
  Ge  Ge2       1.0  0.10100  0.69000  0.29400  1.0000
  Ge  Ge3       1.0  0.60100  0.98500  0.70600  1.0000
  Ge  Ge4       1.0  0.10100  0.30500  0.70700  1.0000
  Li  Li1       1.0  0.60400  0.59300  0.11100  1.0000
  Li  Li2       1.0  0.10400  0.29100  0.11100  1.0000
  Li  Li3       1.0  0.60400  0.40300  0.88900  1.0000
  Li  Li4       1.0  0.10400  0.70400  0.88900  1.0000
  O   O1        1.0  0.49100  0.26900  0.13000  1.0000
  O   O2        1.0  0.99000  0.59500  0.13200  1.0000
  O   O3        1.0  0.96000  0.98300  0.27500  1.0000
  O   O4        1.0  0.46000  0.73700  0.27600  1.0000
  O   O5        1.0  0.48900  0.00185  0.49900  1.0000
  O   O6        1.0  0.98900  0.50100  0.50100  1.0000
  O   O7        1.0  0.96000  0.01300  0.72400  1.0000
  O   O8        1.0  0.46000  0.25800  0.72500  1.0000
  O   O9        1.0  0.49000  0.72700  0.86800  1.0000
  O   O10       1.0  0.99100  0.39900  0.87000  1.0000
