data_image0
_chemical_formula_structural       Na8O18P4Ti2
_chemical_formula_sum              "Na8 O18 P4 Ti2"
_cell_length_a       7.02276
_cell_length_b       7.49666
_cell_length_c       8.50257
_cell_angle_alpha    90
_cell_angle_beta     114.392
_cell_angle_gamma    90

_space_group_name_H-M_alt    "P 1"
_space_group_IT_number       1

loop_
  _space_group_symop_operation_xyz
  'x, y, z'

loop_
  _atom_site_type_symbol
  _atom_site_label
  _atom_site_symmetry_multiplicity
  _atom_site_fract_x
  _atom_site_fract_y
  _atom_site_fract_z
  _atom_site_occupancy
  Na  Na1       1.0  0.25000  0.50000  0.00000  1.0000
  Na  Na2       1.0  0.75000  0.50000  0.00000  1.0000
  Na  Na3       1.0  0.61600  0.23900  0.23300  1.0000
  Na  Na4       1.0  0.11600  0.76100  0.23300  1.0000
  Na  Na5       1.0  0.00000  0.00000  0.50000  1.0000
  Na  Na6       1.0  0.50000  0.00000  0.50000  1.0000
  Na  Na7       1.0  0.88400  0.23900  0.76700  1.0000
  Na  Na8       1.0  0.38400  0.76100  0.76700  1.0000
  O   O1        1.0  0.02210  0.28600  0.04410  1.0000
  O   O2        1.0  0.52200  0.71400  0.04410  1.0000
  O   O3        1.0  0.14400  0.04220  0.28800  1.0000
  O   O4        1.0  0.64400  0.95800  0.28800  1.0000
  O   O5        1.0  0.34200  0.32500  0.31600  1.0000
  O   O6        1.0  0.97400  0.32500  0.31600  1.0000
  O   O7        1.0  0.47400  0.67500  0.31600  1.0000
  O   O8        1.0  0.84200  0.67500  0.31600  1.0000
  O   O9        1.0  0.75000  0.40500  0.50000  1.0000
  O   O10       1.0  0.25000  0.59500  0.50000  1.0000
  O   O11       1.0  0.15800  0.32500  0.68400  1.0000
  O   O12       1.0  0.52600  0.32500  0.68400  1.0000
  O   O13       1.0  0.02640  0.67500  0.68400  1.0000
  O   O14       1.0  0.65800  0.67500  0.68400  1.0000
  O   O15       1.0  0.35600  0.04220  0.71200  1.0000
  O   O16       1.0  0.85600  0.95800  0.71200  1.0000
  O   O17       1.0  0.47800  0.28600  0.95600  1.0000
  O   O18       1.0  0.97800  0.71400  0.95600  1.0000
  P   P1        1.0  0.11800  0.23800  0.23500  1.0000
  P   P2        1.0  0.61800  0.76200  0.23500  1.0000
  P   P3        1.0  0.38200  0.23800  0.76500  1.0000
  P   P4        1.0  0.88200  0.76200  0.76500  1.0000
  Ti  Ti1       1.0  0.00000  0.50000  0.50000  1.0000
  Ti  Ti2       1.0  0.50000  0.50000  0.50000  1.0000
