data_image0
_chemical_formula_structural       Fe4Mn4O20Y4
_chemical_formula_sum              "Fe4 Mn4 O20 Y4"
_cell_length_a       7.24091
_cell_length_b       8.54866
_cell_length_c       5.74075
_cell_angle_alpha    90
_cell_angle_beta     90
_cell_angle_gamma    90

_space_group_name_H-M_alt    "P 1"
_space_group_IT_number       1

loop_
  _space_group_symop_operation_xyz
  'x, y, z'

loop_
  _atom_site_type_symbol
  _atom_site_label
  _atom_site_symmetry_multiplicity
  _atom_site_fract_x
  _atom_site_fract_y
  _atom_site_fract_z
  _atom_site_occupancy
  Fe  Fe1       1.0  0.89400  0.14700  0.50000  1.0000
  Fe  Fe2       1.0  0.39400  0.35300  0.50000  1.0000
  Fe  Fe3       1.0  0.60600  0.64700  0.50000  1.0000
  Fe  Fe4       1.0  0.10600  0.85300  0.50000  1.0000
  Mn  Mn1       1.0  0.50000  0.00000  0.24900  1.0000
  Mn  Mn2       1.0  0.00000  0.50000  0.24900  1.0000
  Mn  Mn3       1.0  0.50000  0.00000  0.75100  1.0000
  Mn  Mn4       1.0  0.00000  0.50000  0.75100  1.0000
  O   O1        1.0  0.66400  0.05770  0.00000  1.0000
  O   O2        1.0  0.16400  0.44200  0.00000  1.0000
  O   O3        1.0  0.83600  0.55800  0.00000  1.0000
  O   O4        1.0  0.33600  0.94200  0.00000  1.0000
  O   O5        1.0  0.39200  0.20500  0.24200  1.0000
  O   O6        1.0  0.89200  0.29500  0.24200  1.0000
  O   O7        1.0  0.10800  0.70500  0.24200  1.0000
  O   O8        1.0  0.60800  0.79500  0.24200  1.0000
  O   O9        1.0  0.00000  0.00000  0.26700  1.0000
  O   O10       1.0  0.50000  0.50000  0.26700  1.0000
  O   O11       1.0  0.65200  0.07050  0.50000  1.0000
  O   O12       1.0  0.15200  0.43000  0.50000  1.0000
  O   O13       1.0  0.84800  0.57000  0.50000  1.0000
  O   O14       1.0  0.34800  0.93000  0.50000  1.0000
  O   O15       1.0  0.00000  0.00000  0.73300  1.0000
  O   O16       1.0  0.50000  0.50000  0.73300  1.0000
  O   O17       1.0  0.39200  0.20500  0.75800  1.0000
  O   O18       1.0  0.89200  0.29500  0.75800  1.0000
  O   O19       1.0  0.10800  0.70500  0.75800  1.0000
  O   O20       1.0  0.60800  0.79500  0.75800  1.0000
  Y   Y1        1.0  0.13200  0.17000  0.00000  1.0000
  Y   Y2        1.0  0.63200  0.33000  0.00000  1.0000
  Y   Y3        1.0  0.36800  0.67000  0.00000  1.0000
  Y   Y4        1.0  0.86800  0.83000  0.00000  1.0000
