data_image0
_chemical_formula_structural       Cr4Nd4O20Ti4
_chemical_formula_sum              "Cr4 Nd4 O20 Ti4"
_cell_length_a       7.5449
_cell_length_b       8.69106
_cell_length_c       5.83885
_cell_angle_alpha    90
_cell_angle_beta     90
_cell_angle_gamma    90

_space_group_name_H-M_alt    "P 1"
_space_group_IT_number       1

loop_
  _space_group_symop_operation_xyz
  'x, y, z'

loop_
  _atom_site_type_symbol
  _atom_site_label
  _atom_site_symmetry_multiplicity
  _atom_site_fract_x
  _atom_site_fract_y
  _atom_site_fract_z
  _atom_site_occupancy
  Cr  Cr1       1.0  0.50000  0.00000  0.24800  1.0000
  Cr  Cr2       1.0  0.00000  0.50000  0.24800  1.0000
  Cr  Cr3       1.0  0.50000  0.00000  0.75200  1.0000
  Cr  Cr4       1.0  0.00000  0.50000  0.75200  1.0000
  Nd  Nd1       1.0  0.13900  0.17200  0.00000  1.0000
  Nd  Nd2       1.0  0.63900  0.32800  0.00000  1.0000
  Nd  Nd3       1.0  0.36100  0.67200  0.00000  1.0000
  Nd  Nd4       1.0  0.86100  0.82800  0.00000  1.0000
  O   O1        1.0  0.66600  0.05520  0.00000  1.0000
  O   O2        1.0  0.16600  0.44500  0.00000  1.0000
  O   O3        1.0  0.83400  0.55500  0.00000  1.0000
  O   O4        1.0  0.33400  0.94500  0.00000  1.0000
  O   O5        1.0  0.39600  0.21200  0.25200  1.0000
  O   O6        1.0  0.89600  0.28800  0.25200  1.0000
  O   O7        1.0  0.10400  0.71200  0.25200  1.0000
  O   O8        1.0  0.60400  0.78800  0.25200  1.0000
  O   O9        1.0  0.00000  0.00000  0.28300  1.0000
  O   O10       1.0  0.50000  0.50000  0.28300  1.0000
  O   O11       1.0  0.65900  0.07380  0.50000  1.0000
  O   O12       1.0  0.15900  0.42600  0.50000  1.0000
  O   O13       1.0  0.84100  0.57400  0.50000  1.0000
  O   O14       1.0  0.34100  0.92600  0.50000  1.0000
  O   O15       1.0  0.00000  0.00000  0.71700  1.0000
  O   O16       1.0  0.50000  0.50000  0.71700  1.0000
  O   O17       1.0  0.39600  0.21200  0.74800  1.0000
  O   O18       1.0  0.89600  0.28800  0.74800  1.0000
  O   O19       1.0  0.10400  0.71200  0.74800  1.0000
  O   O20       1.0  0.60400  0.78800  0.74800  1.0000
  Ti  Ti1       1.0  0.88300  0.14400  0.50000  1.0000
  Ti  Ti2       1.0  0.38300  0.35600  0.50000  1.0000
  Ti  Ti3       1.0  0.61700  0.64400  0.50000  1.0000
  Ti  Ti4       1.0  0.11700  0.85600  0.50000  1.0000
