data_image0
_chemical_formula_structural       Cu2Mg4O16V4
_chemical_formula_sum              "Cu2 Mg4 O16 V4"
_cell_length_a       8.15958
_cell_length_b       8.05512
_cell_length_c       6.09064
_cell_angle_alpha    89.9999
_cell_angle_beta     135.128
_cell_angle_gamma    89.9971

_space_group_name_H-M_alt    "P 1"
_space_group_IT_number       1

loop_
  _space_group_symop_operation_xyz
  'x, y, z'

loop_
  _atom_site_type_symbol
  _atom_site_label
  _atom_site_symmetry_multiplicity
  _atom_site_fract_x
  _atom_site_fract_y
  _atom_site_fract_z
  _atom_site_occupancy
  Cu  Cu1       1.0  0.50000  0.50000  0.00000  1.0000
  Cu  Cu2       1.0  0.50000  0.00000  0.50000  1.0000
  Mg  Mg1       1.0  0.78100  0.75200  0.02870  1.0000
  Mg  Mg2       1.0  0.21900  0.25200  0.47100  1.0000
  Mg  Mg3       1.0  0.78100  0.74800  0.52900  1.0000
  Mg  Mg4       1.0  0.21900  0.24800  0.97100  1.0000
  O   O1        1.0  0.01250  0.74500  0.00342  1.0000
  O   O2        1.0  0.52100  0.73900  0.02390  1.0000
  O   O3        1.0  0.27400  0.50400  0.03100  1.0000
  O   O4        1.0  0.75000  0.00691  0.03960  1.0000
  O   O5        1.0  0.25000  0.50700  0.46000  1.0000
  O   O6        1.0  0.72600  0.00359  0.46900  1.0000
  O   O7        1.0  0.47900  0.23900  0.47600  1.0000
  O   O8        1.0  0.98700  0.24500  0.49700  1.0000
  O   O9        1.0  0.01260  0.75500  0.50300  1.0000
  O   O10       1.0  0.52100  0.76100  0.52400  1.0000
  O   O11       1.0  0.27400  0.99600  0.53100  1.0000
  O   O12       1.0  0.75000  0.49300  0.54000  1.0000
  O   O13       1.0  0.25000  0.99300  0.96000  1.0000
  O   O14       1.0  0.72600  0.49600  0.96900  1.0000
  O   O15       1.0  0.47900  0.26100  0.97600  1.0000
  O   O16       1.0  0.98700  0.25500  0.99700  1.0000
  V   V1        1.0  0.73500  0.13000  0.24800  1.0000
  V   V2        1.0  0.26500  0.63000  0.25200  1.0000
  V   V3        1.0  0.73500  0.37000  0.74800  1.0000
  V   V4        1.0  0.26500  0.87000  0.75200  1.0000
