data_image0
_chemical_formula_structural       B8Cs8S16
_chemical_formula_sum              "B8 Cs8 S16"
_cell_length_a       7.39494
_cell_length_b       7.39494
_cell_length_c       18.8194
_cell_angle_alpha    101.331
_cell_angle_beta     101.331
_cell_angle_gamma    90

_space_group_name_H-M_alt    "P 1"
_space_group_IT_number       1

loop_
  _space_group_symop_operation_xyz
  'x, y, z'

loop_
  _atom_site_type_symbol
  _atom_site_label
  _atom_site_symmetry_multiplicity
  _atom_site_fract_x
  _atom_site_fract_y
  _atom_site_fract_z
  _atom_site_occupancy
  B   B1        1.0  0.09190  0.34200  0.18400  1.0000
  B   B2        1.0  0.59200  0.84200  0.18400  1.0000
  B   B3        1.0  0.15800  0.40800  0.31600  1.0000
  B   B4        1.0  0.65800  0.90800  0.31600  1.0000
  B   B5        1.0  0.34200  0.09190  0.68400  1.0000
  B   B6        1.0  0.84200  0.59200  0.68400  1.0000
  B   B7        1.0  0.40800  0.15800  0.81600  1.0000
  B   B8        1.0  0.90800  0.65800  0.81600  1.0000
  Cs  Cs1       1.0  0.55500  0.30500  0.10900  1.0000
  Cs  Cs2       1.0  0.05460  0.80500  0.10900  1.0000
  Cs  Cs3       1.0  0.69500  0.44500  0.39100  1.0000
  Cs  Cs4       1.0  0.19500  0.94500  0.39100  1.0000
  Cs  Cs5       1.0  0.80500  0.05460  0.60900  1.0000
  Cs  Cs6       1.0  0.30500  0.55500  0.60900  1.0000
  Cs  Cs7       1.0  0.94500  0.19500  0.89100  1.0000
  Cs  Cs8       1.0  0.44500  0.69500  0.89100  1.0000
  S   S1        1.0  0.04370  0.29400  0.08730  1.0000
  S   S2        1.0  0.54400  0.79400  0.08730  1.0000
  S   S3        1.0  0.48800  0.01240  0.25000  1.0000
  S   S4        1.0  0.98800  0.23800  0.25000  1.0000
  S   S5        1.0  0.26200  0.51200  0.25000  1.0000
  S   S6        1.0  0.76200  0.73800  0.25000  1.0000
  S   S7        1.0  0.20600  0.45600  0.41300  1.0000
  S   S8        1.0  0.70600  0.95600  0.41300  1.0000
  S   S9        1.0  0.29400  0.04370  0.58700  1.0000
  S   S10       1.0  0.79400  0.54400  0.58700  1.0000
  S   S11       1.0  0.23800  0.26200  0.75000  1.0000
  S   S12       1.0  0.73800  0.48800  0.75000  1.0000
  S   S13       1.0  0.01240  0.76200  0.75000  1.0000
  S   S14       1.0  0.51200  0.98800  0.75000  1.0000
  S   S15       1.0  0.45600  0.20600  0.91300  1.0000
  S   S16       1.0  0.95600  0.70600  0.91300  1.0000
