data_image0
_chemical_formula_structural       Li14O14Pb3Rb2
_chemical_formula_sum              "Li14 O14 Pb3 Rb2"
_cell_length_a       7.29907
_cell_length_b       7.94174
_cell_length_c       8.37667
_cell_angle_alpha    118.297
_cell_angle_beta     115.828
_cell_angle_gamma    90

_space_group_name_H-M_alt    "P 1"
_space_group_IT_number       1

loop_
  _space_group_symop_operation_xyz
  'x, y, z'

loop_
  _atom_site_type_symbol
  _atom_site_label
  _atom_site_symmetry_multiplicity
  _atom_site_fract_x
  _atom_site_fract_y
  _atom_site_fract_z
  _atom_site_occupancy
  Li  Li1       1.0  0.50000  0.15800  0.00000  1.0000
  Li  Li2       1.0  0.50000  0.84200  0.00000  1.0000
  Li  Li3       1.0  0.40500  0.29100  0.26800  1.0000
  Li  Li4       1.0  0.86200  0.29100  0.26800  1.0000
  Li  Li5       1.0  0.40500  0.97700  0.26800  1.0000
  Li  Li6       1.0  0.86200  0.97700  0.26800  1.0000
  Li  Li7       1.0  0.23200  0.58600  0.46400  1.0000
  Li  Li8       1.0  0.23200  0.87700  0.46400  1.0000
  Li  Li9       1.0  0.76800  0.12300  0.53600  1.0000
  Li  Li10      1.0  0.76800  0.41400  0.53600  1.0000
  Li  Li11      1.0  0.13800  0.02320  0.73200  1.0000
  Li  Li12      1.0  0.59500  0.02320  0.73200  1.0000
  Li  Li13      1.0  0.13800  0.70900  0.73200  1.0000
  Li  Li14      1.0  0.59500  0.70900  0.73200  1.0000
  O   O1        1.0  0.29600  0.00000  0.00000  1.0000
  O   O2        1.0  0.70400  0.00000  0.00000  1.0000
  O   O3        1.0  0.12700  0.31600  0.25300  1.0000
  O   O4        1.0  0.12700  0.93700  0.25300  1.0000
  O   O5        1.0  0.62800  0.40900  0.25600  1.0000
  O   O6        1.0  0.62800  0.84700  0.25600  1.0000
  O   O7        1.0  0.04080  0.74900  0.49700  1.0000
  O   O8        1.0  0.45700  0.74900  0.49700  1.0000
  O   O9        1.0  0.54300  0.25100  0.50300  1.0000
  O   O10       1.0  0.95900  0.25100  0.50300  1.0000
  O   O11       1.0  0.37200  0.15300  0.74400  1.0000
  O   O12       1.0  0.37200  0.59100  0.74400  1.0000
  O   O13       1.0  0.87300  0.06340  0.74700  1.0000
  O   O14       1.0  0.87300  0.68400  0.74700  1.0000
  Pb  Pb1       1.0  0.00000  0.00000  0.00000  1.0000
  Pb  Pb2       1.0  0.72800  0.72800  0.45600  1.0000
  Pb  Pb3       1.0  0.27200  0.27200  0.54400  1.0000
  Rb  Rb1       1.0  0.23100  0.50000  0.00000  1.0000
  Rb  Rb2       1.0  0.76900  0.50000  0.00000  1.0000
