data_image0
_chemical_formula_structural       Al4Er4Ge4O20
_chemical_formula_sum              "Al4 Er4 Ge4 O20"
_cell_length_a       5.60302
_cell_length_b       7.18219
_cell_length_c       8.30357
_cell_angle_alpha    90
_cell_angle_beta     90
_cell_angle_gamma    90

_space_group_name_H-M_alt    "P 1"
_space_group_IT_number       1

loop_
  _space_group_symop_operation_xyz
  'x, y, z'

loop_
  _atom_site_type_symbol
  _atom_site_label
  _atom_site_symmetry_multiplicity
  _atom_site_fract_x
  _atom_site_fract_y
  _atom_site_fract_z
  _atom_site_occupancy
  Al  Al1       1.0  0.25200  0.50000  0.00000  1.0000
  Al  Al2       1.0  0.74800  0.50000  0.00000  1.0000
  Al  Al3       1.0  0.25200  0.00000  0.50000  1.0000
  Al  Al4       1.0  0.74800  0.00000  0.50000  1.0000
  Er  Er1       1.0  0.50000  0.85900  0.17300  1.0000
  Er  Er2       1.0  0.50000  0.35900  0.32700  1.0000
  Er  Er3       1.0  0.50000  0.64100  0.67300  1.0000
  Er  Er4       1.0  0.50000  0.14100  0.82700  1.0000
  Ge  Ge1       1.0  0.00000  0.12000  0.14600  1.0000
  Ge  Ge2       1.0  0.00000  0.62000  0.35400  1.0000
  Ge  Ge3       1.0  0.00000  0.38000  0.64600  1.0000
  Ge  Ge4       1.0  0.00000  0.88000  0.85400  1.0000
  O   O1        1.0  0.21700  0.00000  0.00000  1.0000
  O   O2        1.0  0.78300  0.00000  0.00000  1.0000
  O   O3        1.0  0.50000  0.33500  0.05480  1.0000
  O   O4        1.0  0.00000  0.34800  0.07030  1.0000
  O   O5        1.0  0.25000  0.60800  0.21200  1.0000
  O   O6        1.0  0.75000  0.60800  0.21200  1.0000
  O   O7        1.0  0.25000  0.10800  0.28800  1.0000
  O   O8        1.0  0.75000  0.10800  0.28800  1.0000
  O   O9        1.0  0.00000  0.84800  0.43000  1.0000
  O   O10       1.0  0.50000  0.83500  0.44500  1.0000
  O   O11       1.0  0.21700  0.50000  0.50000  1.0000
  O   O12       1.0  0.78300  0.50000  0.50000  1.0000
  O   O13       1.0  0.50000  0.16500  0.55500  1.0000
  O   O14       1.0  0.00000  0.15200  0.57000  1.0000
  O   O15       1.0  0.25000  0.89200  0.71200  1.0000
  O   O16       1.0  0.75000  0.89200  0.71200  1.0000
  O   O17       1.0  0.25000  0.39200  0.78800  1.0000
  O   O18       1.0  0.75000  0.39200  0.78800  1.0000
  O   O19       1.0  0.00000  0.65200  0.93000  1.0000
  O   O20       1.0  0.50000  0.66500  0.94500  1.0000
