data_image0
_chemical_formula_structural       Au8Ba4S16Sn4
_chemical_formula_sum              "Au8 Ba4 S16 Sn4"
_cell_length_a       11.2227
_cell_length_b       11.2706
_cell_length_c       6.7237
_cell_angle_alpha    90
_cell_angle_beta     90
_cell_angle_gamma    90

_space_group_name_H-M_alt    "P 1"
_space_group_IT_number       1

loop_
  _space_group_symop_operation_xyz
  'x, y, z'

loop_
  _atom_site_type_symbol
  _atom_site_label
  _atom_site_symmetry_multiplicity
  _atom_site_fract_x
  _atom_site_fract_y
  _atom_site_fract_z
  _atom_site_occupancy
  Au  Au1       1.0  0.09760  0.40800  0.24500  1.0000
  Au  Au2       1.0  0.90200  0.59200  0.24500  1.0000
  Au  Au3       1.0  0.40500  0.40600  0.25900  1.0000
  Au  Au4       1.0  0.59500  0.59400  0.25900  1.0000
  Au  Au5       1.0  0.90500  0.09440  0.74100  1.0000
  Au  Au6       1.0  0.09520  0.90600  0.74100  1.0000
  Au  Au7       1.0  0.59800  0.09190  0.75500  1.0000
  Au  Au8       1.0  0.40200  0.90800  0.75500  1.0000
  Ba  Ba1       1.0  0.75100  0.27800  0.24900  1.0000
  Ba  Ba2       1.0  0.24900  0.72200  0.24900  1.0000
  Ba  Ba3       1.0  0.25100  0.22200  0.75100  1.0000
  Ba  Ba4       1.0  0.74900  0.77800  0.75100  1.0000
  S   S1        1.0  0.82100  0.01430  0.03050  1.0000
  S   S2        1.0  0.17900  0.98600  0.03050  1.0000
  S   S3        1.0  0.50800  0.17600  0.03750  1.0000
  S   S4        1.0  0.49200  0.82400  0.03750  1.0000
  S   S5        1.0  0.99500  0.17700  0.45800  1.0000
  S   S6        1.0  0.00464  0.82300  0.45800  1.0000
  S   S7        1.0  0.67900  0.01140  0.46400  1.0000
  S   S8        1.0  0.32100  0.98900  0.46400  1.0000
  S   S9        1.0  0.17900  0.48900  0.53600  1.0000
  S   S10       1.0  0.82100  0.51100  0.53600  1.0000
  S   S11       1.0  0.49500  0.32300  0.54200  1.0000
  S   S12       1.0  0.50500  0.67700  0.54200  1.0000
  S   S13       1.0  0.00777  0.32400  0.96200  1.0000
  S   S14       1.0  0.99200  0.67600  0.96200  1.0000
  S   S15       1.0  0.32100  0.48600  0.97000  1.0000
  S   S16       1.0  0.67900  0.51400  0.97000  1.0000
  Sn  Sn1       1.0  0.00000  0.00000  0.24300  1.0000
  Sn  Sn2       1.0  0.50000  0.00000  0.25300  1.0000
  Sn  Sn3       1.0  0.00000  0.50000  0.74700  1.0000
  Sn  Sn4       1.0  0.50000  0.50000  0.75700  1.0000
