data_image0
_chemical_formula_structural       O20Sr4Ti8
_chemical_formula_sum              "O20 Sr4 Ti8"
_cell_length_a       7.74224
_cell_length_b       8.78035
_cell_length_c       7.39484
_cell_angle_alpha    90
_cell_angle_beta     90
_cell_angle_gamma    116.16

_space_group_name_H-M_alt    "P 1"
_space_group_IT_number       1

loop_
  _space_group_symop_operation_xyz
  'x, y, z'

loop_
  _atom_site_type_symbol
  _atom_site_label
  _atom_site_symmetry_multiplicity
  _atom_site_fract_x
  _atom_site_fract_y
  _atom_site_fract_z
  _atom_site_occupancy
  O   O1        1.0  0.50000  0.00000  0.00611  1.0000
  O   O2        1.0  0.25000  0.50000  0.01190  1.0000
  O   O3        1.0  0.75000  0.50000  0.01190  1.0000
  O   O4        1.0  0.00000  0.00000  0.02550  1.0000
  O   O5        1.0  0.39200  0.20900  0.15000  1.0000
  O   O6        1.0  0.81700  0.20900  0.15000  1.0000
  O   O7        1.0  0.18300  0.79100  0.15000  1.0000
  O   O8        1.0  0.60800  0.79100  0.15000  1.0000
  O   O9        1.0  0.00000  0.00000  0.46400  1.0000
  O   O10       1.0  0.74000  0.48000  0.47700  1.0000
  O   O11       1.0  0.26000  0.52000  0.47700  1.0000
  O   O12       1.0  0.50000  0.00000  0.48600  1.0000
  O   O13       1.0  0.12200  0.24400  0.71100  1.0000
  O   O14       1.0  0.87800  0.75600  0.71100  1.0000
  O   O15       1.0  0.00000  0.50000  0.72500  1.0000
  O   O16       1.0  0.50000  0.50000  0.72500  1.0000
  O   O17       1.0  0.62400  0.24800  0.77600  1.0000
  O   O18       1.0  0.37600  0.75200  0.77600  1.0000
  O   O19       1.0  0.24700  0.00000  0.77700  1.0000
  O   O20       1.0  0.75300  0.00000  0.77700  1.0000
  Sr  Sr1       1.0  0.38500  0.27300  0.47800  1.0000
  Sr  Sr2       1.0  0.88800  0.27300  0.47800  1.0000
  Sr  Sr3       1.0  0.11200  0.72700  0.47800  1.0000
  Sr  Sr4       1.0  0.61500  0.72700  0.47800  1.0000
  Ti  Ti1       1.0  0.63900  0.27800  0.03500  1.0000
  Ti  Ti2       1.0  0.36100  0.72200  0.03500  1.0000
  Ti  Ti3       1.0  0.23900  0.00000  0.04250  1.0000
  Ti  Ti4       1.0  0.76100  0.00000  0.04250  1.0000
  Ti  Ti5       1.0  0.00000  0.00000  0.70800  1.0000
  Ti  Ti6       1.0  0.50000  0.00000  0.72800  1.0000
  Ti  Ti7       1.0  0.24000  0.48100  0.73900  1.0000
  Ti  Ti8       1.0  0.76000  0.51900  0.73900  1.0000
