data_image0
_chemical_formula_structural       H4Na6O18S4Zn
_chemical_formula_sum              "H4 Na6 O18 S4 Zn1"
_cell_length_a       5.97225
_cell_length_b       6.70815
_cell_length_c       10.0223
_cell_angle_alpha    70.1971
_cell_angle_beta     77.2232
_cell_angle_gamma    75.2141

_space_group_name_H-M_alt    "P 1"
_space_group_IT_number       1

loop_
  _space_group_symop_operation_xyz
  'x, y, z'

loop_
  _atom_site_type_symbol
  _atom_site_label
  _atom_site_symmetry_multiplicity
  _atom_site_fract_x
  _atom_site_fract_y
  _atom_site_fract_z
  _atom_site_occupancy
  H   H1        1.0  0.91300  0.36000  0.03360  1.0000
  H   H2        1.0  0.01190  0.61600  0.13700  1.0000
  H   H3        1.0  0.98800  0.38400  0.86300  1.0000
  H   H4        1.0  0.08660  0.64000  0.96600  1.0000
  Na  Na1       1.0  0.56000  0.70900  0.10500  1.0000
  Na  Na2       1.0  0.04310  0.21500  0.32900  1.0000
  Na  Na3       1.0  0.60900  0.73900  0.46100  1.0000
  Na  Na4       1.0  0.39100  0.26100  0.53900  1.0000
  Na  Na5       1.0  0.95700  0.78500  0.67100  1.0000
  Na  Na6       1.0  0.44000  0.29100  0.89500  1.0000
  O   O1        1.0  0.96600  0.69100  0.04010  1.0000
  O   O2        1.0  0.66000  0.03710  0.12500  1.0000
  O   O3        1.0  0.35900  0.35800  0.12600  1.0000
  O   O4        1.0  0.18000  0.89100  0.18200  1.0000
  O   O5        1.0  0.73500  0.32500  0.19600  1.0000
  O   O6        1.0  0.98300  0.58600  0.31600  1.0000
  O   O7        1.0  0.45900  0.09980  0.35100  1.0000
  O   O8        1.0  0.35100  0.61000  0.37500  1.0000
  O   O9        1.0  0.98300  0.85500  0.42600  1.0000
  O   O10       1.0  0.01650  0.14500  0.57400  1.0000
  O   O11       1.0  0.64900  0.39000  0.62500  1.0000
  O   O12       1.0  0.54100  0.90000  0.64900  1.0000
  O   O13       1.0  0.01650  0.41400  0.68400  1.0000
  O   O14       1.0  0.26500  0.67500  0.80400  1.0000
  O   O15       1.0  0.82000  0.10900  0.81800  1.0000
  O   O16       1.0  0.64100  0.64200  0.87400  1.0000
  O   O17       1.0  0.34000  0.96300  0.87500  1.0000
  O   O18       1.0  0.03450  0.30900  0.96000  1.0000
  S   S1        1.0  0.55200  0.20600  0.20100  1.0000
  S   S2        1.0  0.12400  0.73300  0.32700  1.0000
  S   S3        1.0  0.87600  0.26700  0.67300  1.0000
  S   S4        1.0  0.44800  0.79400  0.79900  1.0000
  Zn  Zn1       1.0  0.00000  0.00000  0.00000  1.0000
