data_image0
_chemical_formula_structural       Ge12Ir8S12
_chemical_formula_sum              "Ge12 Ir8 S12"
_cell_length_a       8.38167
_cell_length_b       8.38167
_cell_length_c       8.38167
_cell_angle_alpha    89.8491
_cell_angle_beta     90.1509
_cell_angle_gamma    90.1509

_space_group_name_H-M_alt    "P 1"
_space_group_IT_number       1

loop_
  _space_group_symop_operation_xyz
  'x, y, z'

loop_
  _atom_site_type_symbol
  _atom_site_label
  _atom_site_symmetry_multiplicity
  _atom_site_fract_x
  _atom_site_fract_y
  _atom_site_fract_z
  _atom_site_occupancy
  Ge  Ge1       1.0  0.33800  0.85600  0.00092  1.0000
  Ge  Ge2       1.0  0.00092  0.33800  0.14400  1.0000
  Ge  Ge3       1.0  0.35500  0.50200  0.16100  1.0000
  Ge  Ge4       1.0  0.85600  0.99900  0.33800  1.0000
  Ge  Ge5       1.0  0.50200  0.83900  0.35500  1.0000
  Ge  Ge6       1.0  0.16100  0.35500  0.49800  1.0000
  Ge  Ge7       1.0  0.83900  0.64500  0.50200  1.0000
  Ge  Ge8       1.0  0.49800  0.16100  0.64500  1.0000
  Ge  Ge9       1.0  0.14400  0.00092  0.66200  1.0000
  Ge  Ge10      1.0  0.64500  0.49800  0.83900  1.0000
  Ge  Ge11      1.0  0.99900  0.66200  0.85600  1.0000
  Ge  Ge12      1.0  0.66200  0.14400  0.99900  1.0000
  Ir  Ir1       1.0  0.25400  0.24700  0.24600  1.0000
  Ir  Ir2       1.0  0.75400  0.74600  0.24700  1.0000
  Ir  Ir3       1.0  0.74700  0.25300  0.25300  1.0000
  Ir  Ir4       1.0  0.24700  0.75400  0.25400  1.0000
  Ir  Ir5       1.0  0.75300  0.24600  0.74600  1.0000
  Ir  Ir6       1.0  0.25300  0.74700  0.74700  1.0000
  Ir  Ir7       1.0  0.24600  0.25400  0.75300  1.0000
  Ir  Ir8       1.0  0.74600  0.75300  0.75400  1.0000
  S   S1        1.0  0.35300  0.14200  0.00000  1.0000
  S   S2        1.0  0.64700  0.85800  0.00000  1.0000
  S   S3        1.0  0.00000  0.64700  0.14200  1.0000
  S   S4        1.0  0.64100  0.49800  0.14700  1.0000
  S   S5        1.0  0.14200  0.00000  0.35300  1.0000
  S   S6        1.0  0.50200  0.14700  0.35900  1.0000
  S   S7        1.0  0.85300  0.35900  0.49800  1.0000
  S   S8        1.0  0.14700  0.64100  0.50200  1.0000
  S   S9        1.0  0.49800  0.85300  0.64100  1.0000
  S   S10       1.0  0.85800  0.00000  0.64700  1.0000
  S   S11       1.0  0.35900  0.50200  0.85300  1.0000
  S   S12       1.0  1.00000  0.35300  0.85800  1.0000
