data_image0
_chemical_formula_structural       Bi4Fe4Mn4O20
_chemical_formula_sum              "Bi4 Fe4 Mn4 O20"
_cell_length_a       7.47087
_cell_length_b       8.57055
_cell_length_c       5.90668
_cell_angle_alpha    90
_cell_angle_beta     90
_cell_angle_gamma    90

_space_group_name_H-M_alt    "P 1"
_space_group_IT_number       1

loop_
  _space_group_symop_operation_xyz
  'x, y, z'

loop_
  _atom_site_type_symbol
  _atom_site_label
  _atom_site_symmetry_multiplicity
  _atom_site_fract_x
  _atom_site_fract_y
  _atom_site_fract_z
  _atom_site_occupancy
  Bi  Bi1       1.0  0.15400  0.17000  0.00000  1.0000
  Bi  Bi2       1.0  0.65400  0.33000  0.00000  1.0000
  Bi  Bi3       1.0  0.34600  0.67000  0.00000  1.0000
  Bi  Bi4       1.0  0.84600  0.83000  0.00000  1.0000
  Fe  Fe1       1.0  0.50000  0.00000  0.25700  1.0000
  Fe  Fe2       1.0  0.00000  0.50000  0.25700  1.0000
  Fe  Fe3       1.0  0.50000  0.00000  0.74300  1.0000
  Fe  Fe4       1.0  0.00000  0.50000  0.74300  1.0000
  Mn  Mn1       1.0  0.89800  0.14700  0.50000  1.0000
  Mn  Mn2       1.0  0.39800  0.35300  0.50000  1.0000
  Mn  Mn3       1.0  0.60200  0.64700  0.50000  1.0000
  Mn  Mn4       1.0  0.10200  0.85300  0.50000  1.0000
  O   O1        1.0  0.66400  0.05640  0.00000  1.0000
  O   O2        1.0  0.16400  0.44400  0.00000  1.0000
  O   O3        1.0  0.83600  0.55600  0.00000  1.0000
  O   O4        1.0  0.33600  0.94400  0.00000  1.0000
  O   O5        1.0  0.38000  0.20600  0.25600  1.0000
  O   O6        1.0  0.88000  0.29400  0.25600  1.0000
  O   O7        1.0  0.12000  0.70600  0.25600  1.0000
  O   O8        1.0  0.62000  0.79400  0.25600  1.0000
  O   O9        1.0  0.00000  0.00000  0.29000  1.0000
  O   O10       1.0  0.50000  0.50000  0.29000  1.0000
  O   O11       1.0  0.65400  0.08450  0.50000  1.0000
  O   O12       1.0  0.15400  0.41600  0.50000  1.0000
  O   O13       1.0  0.84600  0.58400  0.50000  1.0000
  O   O14       1.0  0.34600  0.91600  0.50000  1.0000
  O   O15       1.0  0.00000  0.00000  0.71000  1.0000
  O   O16       1.0  0.50000  0.50000  0.71000  1.0000
  O   O17       1.0  0.38000  0.20600  0.74400  1.0000
  O   O18       1.0  0.88000  0.29400  0.74400  1.0000
  O   O19       1.0  0.12000  0.70600  0.74400  1.0000
  O   O20       1.0  0.62000  0.79400  0.74400  1.0000
