data_image0
_chemical_formula_structural       Cl6Lu2O24
_chemical_formula_sum              "Cl6 Lu2 O24"
_cell_length_a       7.91318
_cell_length_b       7.91318
_cell_length_c       9.0675
_cell_angle_alpha    64.1289
_cell_angle_beta     115.871
_cell_angle_gamma    120

_space_group_name_H-M_alt    "P 1"
_space_group_IT_number       1

loop_
  _space_group_symop_operation_xyz
  'x, y, z'

loop_
  _atom_site_type_symbol
  _atom_site_label
  _atom_site_symmetry_multiplicity
  _atom_site_fract_x
  _atom_site_fract_y
  _atom_site_fract_z
  _atom_site_occupancy
  Cl  Cl1       1.0  0.15400  0.18500  0.49900  1.0000
  Cl  Cl2       1.0  0.81500  0.47000  0.49900  1.0000
  Cl  Cl3       1.0  0.53000  0.84600  0.49900  1.0000
  Cl  Cl4       1.0  0.31500  0.34600  0.99900  1.0000
  Cl  Cl5       1.0  0.03000  0.68500  0.99900  1.0000
  Cl  Cl6       1.0  0.65400  0.97000  0.99900  1.0000
  Lu  Lu1       1.0  0.44200  0.55800  0.32600  1.0000
  Lu  Lu2       1.0  0.94200  0.05790  0.82600  1.0000
  O   O1        1.0  0.25100  0.12400  0.04090  1.0000
  O   O2        1.0  0.87600  0.08630  0.04090  1.0000
  O   O3        1.0  0.91400  0.74900  0.04090  1.0000
  O   O4        1.0  0.29400  0.38200  0.13400  1.0000
  O   O5        1.0  0.22300  0.70600  0.13400  1.0000
  O   O6        1.0  0.61800  0.77700  0.13400  1.0000
  O   O7        1.0  0.10300  0.34100  0.34200  1.0000
  O   O8        1.0  0.65900  0.42000  0.34200  1.0000
  O   O9        1.0  0.58000  0.89700  0.34200  1.0000
  O   O10       1.0  0.01280  0.58000  0.47800  1.0000
  O   O11       1.0  0.04520  0.98700  0.47800  1.0000
  O   O12       1.0  0.42000  0.95500  0.47800  1.0000
  O   O13       1.0  0.37600  0.24900  0.54100  1.0000
  O   O14       1.0  0.41400  0.62400  0.54100  1.0000
  O   O15       1.0  0.75100  0.58600  0.54100  1.0000
  O   O16       1.0  0.11800  0.20600  0.63400  1.0000
  O   O17       1.0  0.79400  0.27700  0.63400  1.0000
  O   O18       1.0  0.72300  0.88200  0.63400  1.0000
  O   O19       1.0  0.15900  0.39700  0.84200  1.0000
  O   O20       1.0  0.07980  0.84100  0.84200  1.0000
  O   O21       1.0  0.60300  0.92000  0.84200  1.0000
  O   O22       1.0  0.54500  0.07960  0.97800  1.0000
  O   O23       1.0  0.51300  0.45500  0.97800  1.0000
  O   O24       1.0  0.92000  0.48700  0.97800  1.0000
