data_image0
_chemical_formula_structural       Nb4O20Ti4Tl4
_chemical_formula_sum              "Nb4 O20 Ti4 Tl4"
_cell_length_a       6.44786
_cell_length_b       3.81625
_cell_length_c       18.677
_cell_angle_alpha    90
_cell_angle_beta     90
_cell_angle_gamma    90

_space_group_name_H-M_alt    "P 1"
_space_group_IT_number       1

loop_
  _space_group_symop_operation_xyz
  'x, y, z'

loop_
  _atom_site_type_symbol
  _atom_site_label
  _atom_site_symmetry_multiplicity
  _atom_site_fract_x
  _atom_site_fract_y
  _atom_site_fract_z
  _atom_site_occupancy
  Nb  Nb1       1.0  0.77200  0.25000  0.11000  1.0000
  Nb  Nb2       1.0  0.27200  0.25000  0.39000  1.0000
  Nb  Nb3       1.0  0.72800  0.75000  0.61000  1.0000
  Nb  Nb4       1.0  0.22800  0.75000  0.89000  1.0000
  O   O1        1.0  0.35800  0.75000  0.00927  1.0000
  O   O2        1.0  0.06230  0.25000  0.07010  1.0000
  O   O3        1.0  0.75800  0.75000  0.07920  1.0000
  O   O4        1.0  0.46200  0.25000  0.12100  1.0000
  O   O5        1.0  0.84000  0.25000  0.20400  1.0000
  O   O6        1.0  0.34000  0.25000  0.29600  1.0000
  O   O7        1.0  0.96200  0.25000  0.37900  1.0000
  O   O8        1.0  0.25800  0.75000  0.42100  1.0000
  O   O9        1.0  0.56200  0.25000  0.43000  1.0000
  O   O10       1.0  0.85800  0.75000  0.49100  1.0000
  O   O11       1.0  0.14200  0.25000  0.50900  1.0000
  O   O12       1.0  0.43800  0.75000  0.57000  1.0000
  O   O13       1.0  0.74200  0.25000  0.57900  1.0000
  O   O14       1.0  0.03790  0.75000  0.62100  1.0000
  O   O15       1.0  0.66000  0.75000  0.70400  1.0000
  O   O16       1.0  0.16000  0.75000  0.79600  1.0000
  O   O17       1.0  0.53800  0.75000  0.87900  1.0000
  O   O18       1.0  0.24200  0.25000  0.92100  1.0000
  O   O19       1.0  0.93800  0.75000  0.93000  1.0000
  O   O20       1.0  0.64200  0.25000  0.99100  1.0000
  Ti  Ti1       1.0  0.32000  0.25000  0.03260  1.0000
  Ti  Ti2       1.0  0.82000  0.25000  0.46700  1.0000
  Ti  Ti3       1.0  0.18000  0.75000  0.53300  1.0000
  Ti  Ti4       1.0  0.68000  0.75000  0.96700  1.0000
  Tl  Tl1       1.0  0.22500  0.75000  0.19600  1.0000
  Tl  Tl2       1.0  0.72500  0.75000  0.30400  1.0000
  Tl  Tl3       1.0  0.27500  0.25000  0.69600  1.0000
  Tl  Tl4       1.0  0.77500  0.25000  0.80400  1.0000
