data_image0
_chemical_formula_structural       Se12Sn4Tl16
_chemical_formula_sum              "Se12 Sn4 Tl16"
_cell_length_a       8.50913
_cell_length_b       8.50913
_cell_length_c       12.9443
_cell_angle_alpha    90
_cell_angle_beta     90
_cell_angle_gamma    90

_space_group_name_H-M_alt    "P 1"
_space_group_IT_number       1

loop_
  _space_group_symop_operation_xyz
  'x, y, z'

loop_
  _atom_site_type_symbol
  _atom_site_label
  _atom_site_symmetry_multiplicity
  _atom_site_fract_x
  _atom_site_fract_y
  _atom_site_fract_z
  _atom_site_occupancy
  Se  Se1       1.0  0.75000  0.75000  0.01260  1.0000
  Se  Se2       1.0  0.91800  0.08230  0.25000  1.0000
  Se  Se3       1.0  0.58200  0.41800  0.25000  1.0000
  Se  Se4       1.0  0.08230  0.58200  0.25000  1.0000
  Se  Se5       1.0  0.41800  0.91800  0.25000  1.0000
  Se  Se6       1.0  0.25000  0.25000  0.48700  1.0000
  Se  Se7       1.0  0.75000  0.75000  0.51300  1.0000
  Se  Se8       1.0  0.58200  0.08230  0.75000  1.0000
  Se  Se9       1.0  0.91800  0.41800  0.75000  1.0000
  Se  Se10      1.0  0.41800  0.58200  0.75000  1.0000
  Se  Se11      1.0  0.08230  0.91800  0.75000  1.0000
  Se  Se12      1.0  0.25000  0.25000  0.98700  1.0000
  Sn  Sn1       1.0  0.75000  0.75000  0.22100  1.0000
  Sn  Sn2       1.0  0.25000  0.25000  0.27900  1.0000
  Sn  Sn3       1.0  0.75000  0.75000  0.72100  1.0000
  Sn  Sn4       1.0  0.25000  0.25000  0.77900  1.0000
  Tl  Tl1       1.0  0.58000  0.12700  0.09580  1.0000
  Tl  Tl2       1.0  0.92000  0.37300  0.09580  1.0000
  Tl  Tl3       1.0  0.37300  0.58000  0.09580  1.0000
  Tl  Tl4       1.0  0.12700  0.92000  0.09580  1.0000
  Tl  Tl5       1.0  0.62700  0.08030  0.40400  1.0000
  Tl  Tl6       1.0  0.87300  0.42000  0.40400  1.0000
  Tl  Tl7       1.0  0.42000  0.62700  0.40400  1.0000
  Tl  Tl8       1.0  0.08030  0.87300  0.40400  1.0000
  Tl  Tl9       1.0  0.92000  0.12700  0.59600  1.0000
  Tl  Tl10      1.0  0.58000  0.37300  0.59600  1.0000
  Tl  Tl11      1.0  0.12700  0.58000  0.59600  1.0000
  Tl  Tl12      1.0  0.37300  0.92000  0.59600  1.0000
  Tl  Tl13      1.0  0.87300  0.08030  0.90400  1.0000
  Tl  Tl14      1.0  0.62700  0.42000  0.90400  1.0000
  Tl  Tl15      1.0  0.08030  0.62700  0.90400  1.0000
  Tl  Tl16      1.0  0.42000  0.87300  0.90400  1.0000
