data_image0
_chemical_formula_structural       K2Li14O14Pb3
_chemical_formula_sum              "K2 Li14 O14 Pb3"
_cell_length_a       7.28015
_cell_length_b       7.93204
_cell_length_c       8.35177
_cell_angle_alpha    118.351
_cell_angle_beta     115.839
_cell_angle_gamma    90

_space_group_name_H-M_alt    "P 1"
_space_group_IT_number       1

loop_
  _space_group_symop_operation_xyz
  'x, y, z'

loop_
  _atom_site_type_symbol
  _atom_site_label
  _atom_site_symmetry_multiplicity
  _atom_site_fract_x
  _atom_site_fract_y
  _atom_site_fract_z
  _atom_site_occupancy
  K   K1        1.0  0.24100  0.50000  0.00000  1.0000
  K   K2        1.0  0.75900  0.50000  0.00000  1.0000
  Li  Li1       1.0  0.50000  0.15700  0.00000  1.0000
  Li  Li2       1.0  0.50000  0.84300  0.00000  1.0000
  Li  Li3       1.0  0.40500  0.29200  0.26700  1.0000
  Li  Li4       1.0  0.86200  0.29200  0.26700  1.0000
  Li  Li5       1.0  0.40500  0.97500  0.26700  1.0000
  Li  Li6       1.0  0.86200  0.97500  0.26700  1.0000
  Li  Li7       1.0  0.23100  0.58600  0.46300  1.0000
  Li  Li8       1.0  0.23100  0.87600  0.46300  1.0000
  Li  Li9       1.0  0.76900  0.12400  0.53700  1.0000
  Li  Li10      1.0  0.76900  0.41400  0.53700  1.0000
  Li  Li11      1.0  0.13800  0.02470  0.73300  1.0000
  Li  Li12      1.0  0.59500  0.02470  0.73300  1.0000
  Li  Li13      1.0  0.13800  0.70800  0.73300  1.0000
  Li  Li14      1.0  0.59500  0.70800  0.73300  1.0000
  O   O1        1.0  0.29600  0.00000  0.00000  1.0000
  O   O2        1.0  0.70400  0.00000  0.00000  1.0000
  O   O3        1.0  0.12600  0.31700  0.25300  1.0000
  O   O4        1.0  0.12600  0.93500  0.25300  1.0000
  O   O5        1.0  0.62600  0.41000  0.25300  1.0000
  O   O6        1.0  0.62600  0.84300  0.25300  1.0000
  O   O7        1.0  0.04070  0.74900  0.49700  1.0000
  O   O8        1.0  0.45600  0.74900  0.49700  1.0000
  O   O9        1.0  0.54400  0.25100  0.50300  1.0000
  O   O10       1.0  0.95900  0.25100  0.50300  1.0000
  O   O11       1.0  0.37400  0.15700  0.74700  1.0000
  O   O12       1.0  0.37400  0.59000  0.74700  1.0000
  O   O13       1.0  0.87400  0.06450  0.74700  1.0000
  O   O14       1.0  0.87400  0.68300  0.74700  1.0000
  Pb  Pb1       1.0  0.00000  0.00000  0.00000  1.0000
  Pb  Pb2       1.0  0.72700  0.72700  0.45500  1.0000
  Pb  Pb3       1.0  0.27300  0.27300  0.54500  1.0000
