data_image0
_chemical_formula_structural       Re8Sc12Si12
_chemical_formula_sum              "Re8 Sc12 Si12"
_cell_length_a       10.0798
_cell_length_b       13.7535
_cell_length_c       10.0798
_cell_angle_alpha    126.699
_cell_angle_beta     30.4037
_cell_angle_gamma    126.699

_space_group_name_H-M_alt    "P 1"
_space_group_IT_number       1

loop_
  _space_group_symop_operation_xyz
  'x, y, z'

loop_
  _atom_site_type_symbol
  _atom_site_label
  _atom_site_symmetry_multiplicity
  _atom_site_fract_x
  _atom_site_fract_y
  _atom_site_fract_z
  _atom_site_occupancy
  Re  Re1       1.0  0.55700  0.68100  0.52000  1.0000
  Re  Re2       1.0  0.48000  0.31900  0.44300  1.0000
  Re  Re3       1.0  0.32900  0.04230  0.19000  1.0000
  Re  Re4       1.0  0.81000  0.95800  0.67100  1.0000
  Re  Re5       1.0  0.31300  0.16500  0.72800  1.0000
  Re  Re6       1.0  0.27200  0.83500  0.68700  1.0000
  Re  Re7       1.0  0.57600  0.53300  0.95000  1.0000
  Re  Re8       1.0  0.04960  0.46700  0.42400  1.0000
  Sc  Sc1       1.0  0.43800  0.11000  0.88300  1.0000
  Sc  Sc2       1.0  0.11700  0.89000  0.56200  1.0000
  Sc  Sc3       1.0  0.09430  0.38700  0.04150  1.0000
  Sc  Sc4       1.0  0.95900  0.61300  0.90600  1.0000
  Sc  Sc5       1.0  0.69500  0.08290  0.12500  1.0000
  Sc  Sc6       1.0  0.87500  0.91700  0.30500  1.0000
  Sc  Sc7       1.0  0.88600  0.21000  0.36100  1.0000
  Sc  Sc8       1.0  0.63900  0.79000  0.11400  1.0000
  Sc  Sc9       1.0  0.35000  0.38800  0.32300  1.0000
  Sc  Sc10      1.0  0.67700  0.61200  0.65000  1.0000
  Sc  Sc11      1.0  0.84200  0.26000  0.87900  1.0000
  Sc  Sc12      1.0  0.12100  0.74000  0.15800  1.0000
  Si  Si1       1.0  0.15600  0.12300  0.60700  1.0000
  Si  Si2       1.0  0.39300  0.87700  0.84400  1.0000
  Si  Si3       1.0  0.79200  0.37000  0.77000  1.0000
  Si  Si4       1.0  0.23000  0.63000  0.20800  1.0000
  Si  Si5       1.0  0.63300  0.36800  0.57900  1.0000
  Si  Si6       1.0  0.42100  0.63200  0.36700  1.0000
  Si  Si7       1.0  0.26500  0.50000  0.73500  1.0000
  Si  Si8       1.0  0.76700  0.50000  0.23300  1.0000
  Si  Si9       1.0  0.53300  0.00000  0.46700  1.0000
  Si  Si10      1.0  0.02680  0.00000  0.97300  1.0000
  Si  Si11      1.0  0.35900  0.31800  0.98800  1.0000
  Si  Si12      1.0  0.01200  0.68200  0.64100  1.0000
