data_image0
_chemical_formula_structural       Eu4Mn8O20
_chemical_formula_sum              "Eu4 Mn8 O20"
_cell_length_a       7.21878
_cell_length_b       8.51867
_cell_length_c       5.79569
_cell_angle_alpha    90
_cell_angle_beta     90
_cell_angle_gamma    90

_space_group_name_H-M_alt    "P 1"
_space_group_IT_number       1

loop_
  _space_group_symop_operation_xyz
  'x, y, z'

loop_
  _atom_site_type_symbol
  _atom_site_label
  _atom_site_symmetry_multiplicity
  _atom_site_fract_x
  _atom_site_fract_y
  _atom_site_fract_z
  _atom_site_occupancy
  Eu  Eu1       1.0  0.12800  0.17000  0.00000  1.0000
  Eu  Eu2       1.0  0.62800  0.33000  0.00000  1.0000
  Eu  Eu3       1.0  0.37200  0.67000  0.00000  1.0000
  Eu  Eu4       1.0  0.87200  0.83000  0.00000  1.0000
  Mn  Mn1       1.0  0.50000  0.00000  0.24800  1.0000
  Mn  Mn2       1.0  0.00000  0.50000  0.24800  1.0000
  Mn  Mn3       1.0  0.90300  0.15000  0.50000  1.0000
  Mn  Mn4       1.0  0.40300  0.35000  0.50000  1.0000
  Mn  Mn5       1.0  0.59700  0.65000  0.50000  1.0000
  Mn  Mn6       1.0  0.09660  0.85000  0.50000  1.0000
  Mn  Mn7       1.0  0.50000  0.00000  0.75200  1.0000
  Mn  Mn8       1.0  0.00000  0.50000  0.75200  1.0000
  O   O1        1.0  0.65900  0.05290  0.00000  1.0000
  O   O2        1.0  0.15900  0.44700  0.00000  1.0000
  O   O3        1.0  0.84100  0.55300  0.00000  1.0000
  O   O4        1.0  0.34100  0.94700  0.00000  1.0000
  O   O5        1.0  0.39200  0.20500  0.25500  1.0000
  O   O6        1.0  0.89200  0.29500  0.25500  1.0000
  O   O7        1.0  0.10800  0.70500  0.25500  1.0000
  O   O8        1.0  0.60800  0.79500  0.25500  1.0000
  O   O9        1.0  0.00000  0.00000  0.29100  1.0000
  O   O10       1.0  0.50000  0.50000  0.29100  1.0000
  O   O11       1.0  0.65500  0.08250  0.50000  1.0000
  O   O12       1.0  0.15500  0.41800  0.50000  1.0000
  O   O13       1.0  0.84500  0.58200  0.50000  1.0000
  O   O14       1.0  0.34500  0.91800  0.50000  1.0000
  O   O15       1.0  0.00000  0.00000  0.70900  1.0000
  O   O16       1.0  0.50000  0.50000  0.70900  1.0000
  O   O17       1.0  0.39200  0.20500  0.74500  1.0000
  O   O18       1.0  0.89200  0.29500  0.74500  1.0000
  O   O19       1.0  0.10800  0.70500  0.74500  1.0000
  O   O20       1.0  0.60800  0.79500  0.74500  1.0000
