data_image0
_chemical_formula_structural       Li14O14Rb2Tb3
_chemical_formula_sum              "Li14 O14 Rb2 Tb3"
_cell_length_a       7.3749
_cell_length_b       7.99965
_cell_length_c       8.45153
_cell_angle_alpha    118.247
_cell_angle_beta     115.868
_cell_angle_gamma    90

_space_group_name_H-M_alt    "P 1"
_space_group_IT_number       1

loop_
  _space_group_symop_operation_xyz
  'x, y, z'

loop_
  _atom_site_type_symbol
  _atom_site_label
  _atom_site_symmetry_multiplicity
  _atom_site_fract_x
  _atom_site_fract_y
  _atom_site_fract_z
  _atom_site_occupancy
  Li  Li1       1.0  0.50000  0.15500  0.00000  1.0000
  Li  Li2       1.0  0.50000  0.84500  0.00000  1.0000
  Li  Li3       1.0  0.40500  0.28900  0.26400  1.0000
  Li  Li4       1.0  0.85900  0.28900  0.26400  1.0000
  Li  Li5       1.0  0.40500  0.97400  0.26400  1.0000
  Li  Li6       1.0  0.85900  0.97400  0.26400  1.0000
  Li  Li7       1.0  0.23300  0.58700  0.46600  1.0000
  Li  Li8       1.0  0.23300  0.87900  0.46600  1.0000
  Li  Li9       1.0  0.76700  0.12100  0.53400  1.0000
  Li  Li10      1.0  0.76700  0.41300  0.53400  1.0000
  Li  Li11      1.0  0.14100  0.02550  0.73600  1.0000
  Li  Li12      1.0  0.59500  0.02550  0.73600  1.0000
  Li  Li13      1.0  0.14100  0.71100  0.73600  1.0000
  Li  Li14      1.0  0.59500  0.71100  0.73600  1.0000
  O   O1        1.0  0.29900  0.00000  0.00000  1.0000
  O   O2        1.0  0.70100  0.00000  0.00000  1.0000
  O   O3        1.0  0.62600  0.40600  0.25200  1.0000
  O   O4        1.0  0.62600  0.84600  0.25200  1.0000
  O   O5        1.0  0.13000  0.32000  0.26000  1.0000
  O   O6        1.0  0.13000  0.94000  0.26000  1.0000
  O   O7        1.0  0.54600  0.24700  0.49400  1.0000
  O   O8        1.0  0.94800  0.24700  0.49400  1.0000
  O   O9        1.0  0.05180  0.75300  0.50600  1.0000
  O   O10       1.0  0.45400  0.75300  0.50600  1.0000
  O   O11       1.0  0.87000  0.06040  0.74000  1.0000
  O   O12       1.0  0.87000  0.68000  0.74000  1.0000
  O   O13       1.0  0.37400  0.15400  0.74800  1.0000
  O   O14       1.0  0.37400  0.59400  0.74800  1.0000
  Rb  Rb1       1.0  0.23000  0.50000  0.00000  1.0000
  Rb  Rb2       1.0  0.77000  0.50000  0.00000  1.0000
  Tb  Tb1       1.0  0.00000  0.00000  0.00000  1.0000
  Tb  Tb2       1.0  0.73000  0.73000  0.45900  1.0000
  Tb  Tb3       1.0  0.27000  0.27000  0.54100  1.0000
