data_image0
_chemical_formula_structural       BaO18V13
_chemical_formula_sum              "Ba1 O18 V13"
_cell_length_a       7.42047
_cell_length_b       7.91684
_cell_length_c       7.91684
_cell_angle_alpha    110.706
_cell_angle_beta     108.206
_cell_angle_gamma    108.206

_space_group_name_H-M_alt    "P 1"
_space_group_IT_number       1

loop_
  _space_group_symop_operation_xyz
  'x, y, z'

loop_
  _atom_site_type_symbol
  _atom_site_label
  _atom_site_symmetry_multiplicity
  _atom_site_fract_x
  _atom_site_fract_y
  _atom_site_fract_z
  _atom_site_occupancy
  Ba  Ba1       1.0  0.00000  0.00000  0.00000  1.0000
  O   O1        1.0  0.88200  0.62200  0.05530  1.0000
  O   O2        1.0  0.77600  0.27400  0.10300  1.0000
  O   O3        1.0  0.67300  0.89700  0.17000  1.0000
  O   O4        1.0  0.59900  0.54600  0.21700  1.0000
  O   O5        1.0  0.49800  0.17000  0.27400  1.0000
  O   O6        1.0  0.38200  0.78300  0.32900  1.0000
  O   O7        1.0  0.26000  0.43300  0.37800  1.0000
  O   O8        1.0  0.17300  0.05530  0.43300  1.0000
  O   O9        1.0  0.05290  0.67100  0.45400  1.0000
  O   O10       1.0  0.94700  0.32900  0.54600  1.0000
  O   O11       1.0  0.82700  0.94500  0.56700  1.0000
  O   O12       1.0  0.74000  0.56700  0.62200  1.0000
  O   O13       1.0  0.61800  0.21700  0.67100  1.0000
  O   O14       1.0  0.50200  0.83000  0.72600  1.0000
  O   O15       1.0  0.40100  0.45400  0.78300  1.0000
  O   O16       1.0  0.32700  0.10300  0.83000  1.0000
  O   O17       1.0  0.22400  0.72600  0.89700  1.0000
  O   O18       1.0  0.11800  0.37800  0.94500  1.0000
  V   V1        1.0  0.50000  0.00000  0.00000  1.0000
  V   V2        1.0  0.40100  0.63300  0.05570  1.0000
  V   V3        1.0  0.07290  0.51100  0.19100  1.0000
  V   V4        1.0  0.88200  0.80900  0.32000  1.0000
  V   V5        1.0  0.76700  0.42200  0.36700  1.0000
  V   V6        1.0  0.65500  0.05570  0.42200  1.0000
  V   V7        1.0  0.56200  0.68000  0.48900  1.0000
  V   V8        1.0  0.43800  0.32000  0.51100  1.0000
  V   V9        1.0  0.34500  0.94400  0.57800  1.0000
  V   V10       1.0  0.23300  0.57800  0.63300  1.0000
  V   V11       1.0  0.11800  0.19100  0.68000  1.0000
  V   V12       1.0  0.92700  0.48900  0.80900  1.0000
  V   V13       1.0  0.59900  0.36700  0.94400  1.0000
