data_image0
_chemical_formula_structural       Li12P4S16
_chemical_formula_sum              "Li12 P4 S16"
_cell_length_a       12.9379
_cell_length_b       8.0387
_cell_length_c       6.14895
_cell_angle_alpha    90
_cell_angle_beta     90
_cell_angle_gamma    90

_space_group_name_H-M_alt    "P 1"
_space_group_IT_number       1

loop_
  _space_group_symop_operation_xyz
  'x, y, z'

loop_
  _atom_site_type_symbol
  _atom_site_label
  _atom_site_symmetry_multiplicity
  _atom_site_fract_x
  _atom_site_fract_y
  _atom_site_fract_z
  _atom_site_occupancy
  Li  Li1       1.0  0.50000  0.00000  0.00000  1.0000
  Li  Li2       1.0  0.50000  0.50000  0.00000  1.0000
  Li  Li3       1.0  0.83400  0.03370  0.11000  1.0000
  Li  Li4       1.0  0.83400  0.46600  0.11000  1.0000
  Li  Li5       1.0  0.33400  0.03370  0.39000  1.0000
  Li  Li6       1.0  0.33400  0.46600  0.39000  1.0000
  Li  Li7       1.0  0.00000  0.00000  0.50000  1.0000
  Li  Li8       1.0  0.00000  0.50000  0.50000  1.0000
  Li  Li9       1.0  0.66600  0.53400  0.61000  1.0000
  Li  Li10      1.0  0.66600  0.96600  0.61000  1.0000
  Li  Li11      1.0  0.16600  0.53400  0.89000  1.0000
  Li  Li12      1.0  0.16600  0.96600  0.89000  1.0000
  P   P1        1.0  0.09040  0.25000  0.15300  1.0000
  P   P2        1.0  0.59000  0.25000  0.34700  1.0000
  P   P3        1.0  0.41000  0.75000  0.65300  1.0000
  P   P4        1.0  0.91000  0.75000  0.84700  1.0000
  S   S1        1.0  0.89900  0.75000  0.17800  1.0000
  S   S2        1.0  0.44000  0.25000  0.22300  1.0000
  S   S3        1.0  0.65500  0.03480  0.22700  1.0000
  S   S4        1.0  0.65500  0.46500  0.22700  1.0000
  S   S5        1.0  0.15500  0.03480  0.27300  1.0000
  S   S6        1.0  0.15500  0.46500  0.27300  1.0000
  S   S7        1.0  0.94000  0.25000  0.27700  1.0000
  S   S8        1.0  0.39900  0.75000  0.32200  1.0000
  S   S9        1.0  0.60100  0.25000  0.67800  1.0000
  S   S10       1.0  0.06020  0.75000  0.72300  1.0000
  S   S11       1.0  0.84500  0.53500  0.72700  1.0000
  S   S12       1.0  0.84500  0.96500  0.72700  1.0000
  S   S13       1.0  0.34500  0.53500  0.77300  1.0000
  S   S14       1.0  0.34500  0.96500  0.77300  1.0000
  S   S15       1.0  0.56000  0.75000  0.77700  1.0000
  S   S16       1.0  0.10100  0.25000  0.82200  1.0000
