data_image0
_chemical_formula_structural       La4Ni4O10
_chemical_formula_sum              "La4 Ni4 O10"
_cell_length_a       5.512
_cell_length_b       5.512
_cell_length_c       7.38861
_cell_angle_alpha    88.8267
_cell_angle_beta     91.1733
_cell_angle_gamma    90.3553

_space_group_name_H-M_alt    "P 1"
_space_group_IT_number       1

loop_
  _space_group_symop_operation_xyz
  'x, y, z'

loop_
  _atom_site_type_symbol
  _atom_site_label
  _atom_site_symmetry_multiplicity
  _atom_site_fract_x
  _atom_site_fract_y
  _atom_site_fract_z
  _atom_site_occupancy
  La  La1       1.0  0.99400  0.49300  0.24900  1.0000
  La  La2       1.0  0.49300  0.99400  0.25100  1.0000
  La  La3       1.0  0.50700  0.00588  0.74900  1.0000
  La  La4       1.0  0.00588  0.50700  0.75100  1.0000
  Ni  Ni1       1.0  0.00000  0.00000  0.00000  1.0000
  Ni  Ni2       1.0  0.50000  0.50000  0.00000  1.0000
  Ni  Ni3       1.0  0.00000  0.00000  0.50000  1.0000
  Ni  Ni4       1.0  0.50000  0.50000  0.50000  1.0000
  O   O1        1.0  0.76500  0.29600  0.98800  1.0000
  O   O2        1.0  0.23500  0.70400  0.01240  1.0000
  O   O3        1.0  0.70600  0.76000  0.04340  1.0000
  O   O4        1.0  0.05980  0.05980  0.25000  1.0000
  O   O5        1.0  0.76000  0.70600  0.45700  1.0000
  O   O6        1.0  0.70400  0.23500  0.48800  1.0000
  O   O7        1.0  0.29600  0.76500  0.51200  1.0000
  O   O8        1.0  0.24000  0.29400  0.54300  1.0000
  O   O9        1.0  0.94000  0.94000  0.75000  1.0000
  O   O10       1.0  0.29400  0.24000  0.95700  1.0000
