data_image0
_chemical_formula_structural       Cr4F24Xe4
_chemical_formula_sum              "Cr4 F24 Xe4"
_cell_length_a       7.03554
_cell_length_b       6.96415
_cell_length_c       9.2671
_cell_angle_alpha    90
_cell_angle_beta     91.0224
_cell_angle_gamma    90

_space_group_name_H-M_alt    "P 1"
_space_group_IT_number       1

loop_
  _space_group_symop_operation_xyz
  'x, y, z'

loop_
  _atom_site_type_symbol
  _atom_site_label
  _atom_site_symmetry_multiplicity
  _atom_site_fract_x
  _atom_site_fract_y
  _atom_site_fract_z
  _atom_site_occupancy
  Cr  Cr1       1.0  0.25100  0.91600  0.23800  1.0000
  Cr  Cr2       1.0  0.24900  0.41600  0.26200  1.0000
  Cr  Cr3       1.0  0.75100  0.58400  0.73800  1.0000
  Cr  Cr4       1.0  0.74900  0.08400  0.76200  1.0000
  F   F1        1.0  0.37200  0.97100  0.08250  1.0000
  F   F2        1.0  0.39700  0.35700  0.08950  1.0000
  F   F3        1.0  0.04880  0.34800  0.15200  1.0000
  F   F4        1.0  0.02110  0.96700  0.16500  1.0000
  F   F5        1.0  0.68200  0.17000  0.17100  1.0000
  F   F6        1.0  0.22000  0.66100  0.17100  1.0000
  F   F7        1.0  0.28000  0.16100  0.32900  1.0000
  F   F8        1.0  0.81800  0.67000  0.32900  1.0000
  F   F9        1.0  0.47900  0.46700  0.33500  1.0000
  F   F10       1.0  0.45100  0.84800  0.34800  1.0000
  F   F11       1.0  0.10300  0.85700  0.41000  1.0000
  F   F12       1.0  0.12800  0.47100  0.41700  1.0000
  F   F13       1.0  0.87200  0.52900  0.58300  1.0000
  F   F14       1.0  0.89700  0.14300  0.59000  1.0000
  F   F15       1.0  0.54900  0.15200  0.65200  1.0000
  F   F16       1.0  0.52100  0.53300  0.66500  1.0000
  F   F17       1.0  0.18200  0.33000  0.67100  1.0000
  F   F18       1.0  0.72000  0.83900  0.67100  1.0000
  F   F19       1.0  0.78000  0.33900  0.82900  1.0000
  F   F20       1.0  0.31800  0.83000  0.82900  1.0000
  F   F21       1.0  0.97900  0.03280  0.83500  1.0000
  F   F22       1.0  0.95100  0.65200  0.84800  1.0000
  F   F23       1.0  0.60300  0.64300  0.91000  1.0000
  F   F24       1.0  0.62800  0.02920  0.91700  1.0000
  Xe  Xe1       1.0  0.72600  0.66300  0.12400  1.0000
  Xe  Xe2       1.0  0.77400  0.16300  0.37600  1.0000
  Xe  Xe3       1.0  0.22600  0.83700  0.62400  1.0000
  Xe  Xe4       1.0  0.27400  0.33700  0.87600  1.0000
