data_image0
_chemical_formula_structural       O5Ta2Tl2
_chemical_formula_sum              "O5 Ta2 Tl2"
_cell_length_a       5.28208
_cell_length_b       5.25512
_cell_length_c       7.15573
_cell_angle_alpha    65.2148
_cell_angle_beta     67.2062
_cell_angle_gamma    63.5939

_space_group_name_H-M_alt    "P 1"
_space_group_IT_number       1

loop_
  _space_group_symop_operation_xyz
  'x, y, z'

loop_
  _atom_site_type_symbol
  _atom_site_label
  _atom_site_symmetry_multiplicity
  _atom_site_fract_x
  _atom_site_fract_y
  _atom_site_fract_z
  _atom_site_occupancy
  O   O1        1.0  0.40000  0.90100  0.19600  1.0000
  O   O2        1.0  0.95200  0.44000  0.19900  1.0000
  O   O3        1.0  0.63600  0.07810  0.80800  1.0000
  O   O4        1.0  0.05550  0.51500  0.81000  1.0000
  O   O5        1.0  0.47500  0.66300  0.82300  1.0000
  Ta  Ta1       1.0  0.67900  0.65000  0.01240  1.0000
  Ta  Ta2       1.0  0.34500  0.32200  0.98600  1.0000
  Tl  Tl1       1.0  0.83000  0.89500  0.37500  1.0000
  Tl  Tl2       1.0  0.13800  0.16700  0.58700  1.0000
