data_image0
_chemical_formula_structural       I12Pb8S8Sb4
_chemical_formula_sum              "I12 Pb8 S8 Sb4"
_cell_length_a       7.71689
_cell_length_b       16.8343
_cell_length_c       8.75187
_cell_angle_alpha    90
_cell_angle_beta     106.617
_cell_angle_gamma    90

_space_group_name_H-M_alt    "P 1"
_space_group_IT_number       1

loop_
  _space_group_symop_operation_xyz
  'x, y, z'

loop_
  _atom_site_type_symbol
  _atom_site_label
  _atom_site_symmetry_multiplicity
  _atom_site_fract_x
  _atom_site_fract_y
  _atom_site_fract_z
  _atom_site_occupancy
  I   I1        1.0  0.10200  0.61800  0.03330  1.0000
  I   I2        1.0  0.13600  0.88300  0.03430  1.0000
  I   I3        1.0  0.69300  0.75900  0.16800  1.0000
  I   I4        1.0  0.30700  0.25900  0.33200  1.0000
  I   I5        1.0  0.86400  0.38300  0.46600  1.0000
  I   I6        1.0  0.89800  0.11800  0.46700  1.0000
  I   I7        1.0  0.10200  0.88200  0.53300  1.0000
  I   I8        1.0  0.13600  0.61700  0.53400  1.0000
  I   I9        1.0  0.69300  0.74100  0.66800  1.0000
  I   I10       1.0  0.30700  0.24100  0.83200  1.0000
  I   I11       1.0  0.86400  0.11700  0.96600  1.0000
  I   I12       1.0  0.89800  0.38200  0.96700  1.0000
  Pb  Pb1       1.0  0.61200  0.23000  0.16600  1.0000
  Pb  Pb2       1.0  0.75700  0.97300  0.19500  1.0000
  Pb  Pb3       1.0  0.24300  0.47300  0.30500  1.0000
  Pb  Pb4       1.0  0.38800  0.73000  0.33400  1.0000
  Pb  Pb5       1.0  0.61200  0.27000  0.66600  1.0000
  Pb  Pb6       1.0  0.75700  0.52700  0.69500  1.0000
  Pb  Pb7       1.0  0.24300  0.02720  0.80500  1.0000
  Pb  Pb8       1.0  0.38800  0.77000  0.83400  1.0000
  S   S1        1.0  0.46200  0.41400  0.09240  1.0000
  S   S2        1.0  0.45800  0.07480  0.13200  1.0000
  S   S3        1.0  0.54200  0.57500  0.36800  1.0000
  S   S4        1.0  0.53800  0.91400  0.40800  1.0000
  S   S5        1.0  0.46200  0.08580  0.59200  1.0000
  S   S6        1.0  0.45800  0.42500  0.63200  1.0000
  S   S7        1.0  0.54200  0.92500  0.86800  1.0000
  S   S8        1.0  0.53800  0.58600  0.90800  1.0000
  Sb  Sb1       1.0  0.69900  0.51800  0.17600  1.0000
  Sb  Sb2       1.0  0.30100  0.01780  0.32400  1.0000
  Sb  Sb3       1.0  0.69900  0.98200  0.67600  1.0000
  Sb  Sb4       1.0  0.30100  0.48200  0.82400  1.0000
