data_image0
_chemical_formula_structural       Cs2Li14O14Tb3
_chemical_formula_sum              "Cs2 Li14 O14 Tb3"
_cell_length_a       7.43106
_cell_length_b       8.019
_cell_length_c       8.50289
_cell_angle_alpha    118.135
_cell_angle_beta     115.911
_cell_angle_gamma    90

_space_group_name_H-M_alt    "P 1"
_space_group_IT_number       1

loop_
  _space_group_symop_operation_xyz
  'x, y, z'

loop_
  _atom_site_type_symbol
  _atom_site_label
  _atom_site_symmetry_multiplicity
  _atom_site_fract_x
  _atom_site_fract_y
  _atom_site_fract_z
  _atom_site_occupancy
  Cs  Cs1       1.0  0.23100  0.50000  0.00000  1.0000
  Cs  Cs2       1.0  0.76900  0.50000  0.00000  1.0000
  Li  Li1       1.0  0.50000  0.15400  0.00000  1.0000
  Li  Li2       1.0  0.50000  0.84600  0.00000  1.0000
  Li  Li3       1.0  0.40500  0.28800  0.26500  1.0000
  Li  Li4       1.0  0.85900  0.28800  0.26500  1.0000
  Li  Li5       1.0  0.40500  0.97700  0.26500  1.0000
  Li  Li6       1.0  0.85900  0.97700  0.26500  1.0000
  Li  Li7       1.0  0.23400  0.58700  0.46700  1.0000
  Li  Li8       1.0  0.23400  0.88000  0.46700  1.0000
  Li  Li9       1.0  0.76600  0.12000  0.53300  1.0000
  Li  Li10      1.0  0.76600  0.41300  0.53300  1.0000
  Li  Li11      1.0  0.14100  0.02340  0.73500  1.0000
  Li  Li12      1.0  0.59500  0.02340  0.73500  1.0000
  Li  Li13      1.0  0.14100  0.71200  0.73500  1.0000
  Li  Li14      1.0  0.59500  0.71200  0.73500  1.0000
  O   O1        1.0  0.29800  0.00000  0.00000  1.0000
  O   O2        1.0  0.70200  0.00000  0.00000  1.0000
  O   O3        1.0  0.62800  0.40500  0.25700  1.0000
  O   O4        1.0  0.62800  0.85200  0.25700  1.0000
  O   O5        1.0  0.13100  0.31900  0.26100  1.0000
  O   O6        1.0  0.13100  0.94300  0.26100  1.0000
  O   O7        1.0  0.54500  0.24700  0.49400  1.0000
  O   O8        1.0  0.94900  0.24700  0.49400  1.0000
  O   O9        1.0  0.05060  0.75300  0.50600  1.0000
  O   O10       1.0  0.45500  0.75300  0.50600  1.0000
  O   O11       1.0  0.86900  0.05720  0.73900  1.0000
  O   O12       1.0  0.86900  0.68100  0.73900  1.0000
  O   O13       1.0  0.37200  0.14800  0.74300  1.0000
  O   O14       1.0  0.37200  0.59500  0.74300  1.0000
  Tb  Tb1       1.0  0.00000  0.00000  0.00000  1.0000
  Tb  Tb2       1.0  0.73000  0.73000  0.46100  1.0000
  Tb  Tb3       1.0  0.27000  0.27000  0.53900  1.0000
