data_image0
_chemical_formula_structural       Bi2Na2O5
_chemical_formula_sum              "Bi2 Na2 O5"
_cell_length_a       5.95829
_cell_length_b       5.55705
_cell_length_c       6.17399
_cell_angle_alpha    58.4282
_cell_angle_beta     59.6406
_cell_angle_gamma    59.9981

_space_group_name_H-M_alt    "P 1"
_space_group_IT_number       1

loop_
  _space_group_symop_operation_xyz
  'x, y, z'

loop_
  _atom_site_type_symbol
  _atom_site_label
  _atom_site_symmetry_multiplicity
  _atom_site_fract_x
  _atom_site_fract_y
  _atom_site_fract_z
  _atom_site_occupancy
  Bi  Bi1       1.0  0.64300  0.63200  0.08200  1.0000
  Bi  Bi2       1.0  0.32300  0.36700  0.92300  1.0000
  Na  Na1       1.0  0.88800  0.84000  0.42400  1.0000
  Na  Na2       1.0  0.10100  0.11500  0.62300  1.0000
  O   O1        1.0  0.97600  0.59300  0.17900  1.0000
  O   O2        1.0  0.29600  0.97500  0.25900  1.0000
  O   O3        1.0  0.49300  0.68900  0.75800  1.0000
  O   O4        1.0  0.68600  0.05300  0.76100  1.0000
  O   O5        1.0  0.05730  0.44500  0.76100  1.0000
