data_image0
_chemical_formula_structural       Ge12Rh8S12
_chemical_formula_sum              "Ge12 Rh8 S12"
_cell_length_a       8.365
_cell_length_b       8.365
_cell_length_c       8.365
_cell_angle_alpha    89.8785
_cell_angle_beta     90.1215
_cell_angle_gamma    90.1215

_space_group_name_H-M_alt    "P 1"
_space_group_IT_number       1

loop_
  _space_group_symop_operation_xyz
  'x, y, z'

loop_
  _atom_site_type_symbol
  _atom_site_label
  _atom_site_symmetry_multiplicity
  _atom_site_fract_x
  _atom_site_fract_y
  _atom_site_fract_z
  _atom_site_occupancy
  Ge  Ge1       1.0  0.34100  0.85600  0.00177  1.0000
  Ge  Ge2       1.0  0.00176  0.34100  0.14400  1.0000
  Ge  Ge3       1.0  0.35500  0.50300  0.15800  1.0000
  Ge  Ge4       1.0  0.85600  0.99800  0.34100  1.0000
  Ge  Ge5       1.0  0.50300  0.84200  0.35500  1.0000
  Ge  Ge6       1.0  0.15800  0.35500  0.49700  1.0000
  Ge  Ge7       1.0  0.84200  0.64500  0.50300  1.0000
  Ge  Ge8       1.0  0.49700  0.15800  0.64500  1.0000
  Ge  Ge9       1.0  0.14400  0.00176  0.65900  1.0000
  Ge  Ge10      1.0  0.64500  0.49700  0.84200  1.0000
  Ge  Ge11      1.0  0.99800  0.65900  0.85600  1.0000
  Ge  Ge12      1.0  0.65900  0.14400  0.99800  1.0000
  Rh  Rh1       1.0  0.25400  0.24800  0.24600  1.0000
  Rh  Rh2       1.0  0.75400  0.74600  0.24800  1.0000
  Rh  Rh3       1.0  0.74800  0.25200  0.25200  1.0000
  Rh  Rh4       1.0  0.24800  0.75400  0.25400  1.0000
  Rh  Rh5       1.0  0.75200  0.24600  0.74600  1.0000
  Rh  Rh6       1.0  0.25200  0.74800  0.74800  1.0000
  Rh  Rh7       1.0  0.24600  0.25400  0.75200  1.0000
  Rh  Rh8       1.0  0.74600  0.75200  0.75400  1.0000
  S   S1        1.0  0.64600  0.85800  0.00143  1.0000
  S   S2        1.0  0.00143  0.64600  0.14200  1.0000
  S   S3        1.0  0.64200  0.49700  0.14500  1.0000
  S   S4        1.0  0.14200  0.00143  0.35400  1.0000
  S   S5        1.0  0.50300  0.14500  0.35800  1.0000
  S   S6        1.0  0.85500  0.35800  0.49700  1.0000
  S   S7        1.0  0.14500  0.64200  0.50300  1.0000
  S   S8        1.0  0.49700  0.85500  0.64200  1.0000
  S   S9        1.0  0.85800  0.99900  0.64600  1.0000
  S   S10       1.0  0.35800  0.50300  0.85500  1.0000
  S   S11       1.0  0.99900  0.35400  0.85800  1.0000
  S   S12       1.0  0.35400  0.14200  0.99900  1.0000
