data_image0
_chemical_formula_structural       K2Li14O14Zr3
_chemical_formula_sum              "K2 Li14 O14 Zr3"
_cell_length_a       7.27978
_cell_length_b       7.76351
_cell_length_c       8.18807
_cell_angle_alpha    118.299
_cell_angle_beta     116.394
_cell_angle_gamma    90

_space_group_name_H-M_alt    "P 1"
_space_group_IT_number       1

loop_
  _space_group_symop_operation_xyz
  'x, y, z'

loop_
  _atom_site_type_symbol
  _atom_site_label
  _atom_site_symmetry_multiplicity
  _atom_site_fract_x
  _atom_site_fract_y
  _atom_site_fract_z
  _atom_site_occupancy
  K   K1        1.0  0.23500  0.50000  0.00000  1.0000
  K   K2        1.0  0.76500  0.50000  0.00000  1.0000
  Li  Li1       1.0  0.50000  0.15300  0.00000  1.0000
  Li  Li2       1.0  0.50000  0.84700  0.00000  1.0000
  Li  Li3       1.0  0.40600  0.29500  0.27000  1.0000
  Li  Li4       1.0  0.86400  0.29500  0.27000  1.0000
  Li  Li5       1.0  0.40600  0.97400  0.27000  1.0000
  Li  Li6       1.0  0.86400  0.97400  0.27000  1.0000
  Li  Li7       1.0  0.23000  0.58800  0.46100  1.0000
  Li  Li8       1.0  0.23000  0.87200  0.46100  1.0000
  Li  Li9       1.0  0.77000  0.12800  0.53900  1.0000
  Li  Li10      1.0  0.77000  0.41200  0.53900  1.0000
  Li  Li11      1.0  0.13600  0.02550  0.73000  1.0000
  Li  Li12      1.0  0.59400  0.02550  0.73000  1.0000
  Li  Li13      1.0  0.13600  0.70500  0.73000  1.0000
  Li  Li14      1.0  0.59400  0.70500  0.73000  1.0000
  O   O1        1.0  0.28900  0.00000  0.00000  1.0000
  O   O2        1.0  0.71100  0.00000  0.00000  1.0000
  O   O3        1.0  0.12700  0.31000  0.25500  1.0000
  O   O4        1.0  0.12700  0.94400  0.25500  1.0000
  O   O5        1.0  0.62800  0.41800  0.25600  1.0000
  O   O6        1.0  0.62800  0.83800  0.25600  1.0000
  O   O7        1.0  0.03070  0.74400  0.48800  1.0000
  O   O8        1.0  0.45800  0.74400  0.48800  1.0000
  O   O9        1.0  0.54200  0.25600  0.51200  1.0000
  O   O10       1.0  0.96900  0.25600  0.51200  1.0000
  O   O11       1.0  0.37200  0.16200  0.74400  1.0000
  O   O12       1.0  0.37200  0.58200  0.74400  1.0000
  O   O13       1.0  0.87300  0.05560  0.74500  1.0000
  O   O14       1.0  0.87300  0.69000  0.74500  1.0000
  Zr  Zr1       1.0  0.00000  0.00000  0.00000  1.0000
  Zr  Zr2       1.0  0.72700  0.72700  0.45400  1.0000
  Zr  Zr3       1.0  0.27300  0.27300  0.54600  1.0000
