data_image0
_chemical_formula_structural       O5Rb2Rh2
_chemical_formula_sum              "O5 Rb2 Rh2"
_cell_length_a       5.29274
_cell_length_b       5.20483
_cell_length_c       6.70672
_cell_angle_alpha    64.2537
_cell_angle_beta     69.38
_cell_angle_gamma    67.0983

_space_group_name_H-M_alt    "P 1"
_space_group_IT_number       1

loop_
  _space_group_symop_operation_xyz
  'x, y, z'

loop_
  _atom_site_type_symbol
  _atom_site_label
  _atom_site_symmetry_multiplicity
  _atom_site_fract_x
  _atom_site_fract_y
  _atom_site_fract_z
  _atom_site_occupancy
  O   O1        1.0  0.96000  0.47600  0.19800  1.0000
  O   O2        1.0  0.38900  0.90300  0.20300  1.0000
  O   O3        1.0  0.61100  0.09840  0.79100  1.0000
  O   O4        1.0  0.04130  0.52700  0.79900  1.0000
  O   O5        1.0  0.48700  0.63200  0.83700  1.0000
  Rb  Rb1       1.0  0.83100  0.89000  0.38800  1.0000
  Rb  Rb2       1.0  0.14900  0.12700  0.60700  1.0000
  Rh  Rh1       1.0  0.69000  0.68300  0.00198  1.0000
  Rh  Rh2       1.0  0.31600  0.31400  0.99200  1.0000
