data_image0
_chemical_formula_structural       K2O5Te2
_chemical_formula_sum              "K2 O5 Te2"
_cell_length_a       5.47802
_cell_length_b       5.84406
_cell_length_c       6.584
_cell_angle_alpha    64.1055
_cell_angle_beta     68.1939
_cell_angle_gamma    60.3543

_space_group_name_H-M_alt    "P 1"
_space_group_IT_number       1

loop_
  _space_group_symop_operation_xyz
  'x, y, z'

loop_
  _atom_site_type_symbol
  _atom_site_label
  _atom_site_symmetry_multiplicity
  _atom_site_fract_x
  _atom_site_fract_y
  _atom_site_fract_z
  _atom_site_occupancy
  K   K1        1.0  0.66800  0.63700  0.09670  1.0000
  K   K2        1.0  0.41800  0.36100  0.87000  1.0000
  O   O1        1.0  0.51300  0.23100  0.30500  1.0000
  O   O2        1.0  0.20300  0.92500  0.32100  1.0000
  O   O3        1.0  0.83100  0.98600  0.69600  1.0000
  O   O4        1.0  0.40300  0.86900  0.69900  1.0000
  O   O5        1.0  0.98900  0.44800  0.72300  1.0000
  Te  Te1       1.0  0.16000  0.17200  0.48800  1.0000
  Te  Te2       1.0  0.84400  0.82200  0.49200  1.0000
