data_image0
_chemical_formula_structural       Bi12O20Zn
_chemical_formula_sum              "Bi12 O20 Zn1"
_cell_length_a       8.72276
_cell_length_b       8.72276
_cell_length_c       8.72276
_cell_angle_alpha    109.471
_cell_angle_beta     109.471
_cell_angle_gamma    109.471

_space_group_name_H-M_alt    "P 1"
_space_group_IT_number       1

loop_
  _space_group_symop_operation_xyz
  'x, y, z'

loop_
  _atom_site_type_symbol
  _atom_site_label
  _atom_site_symmetry_multiplicity
  _atom_site_fract_x
  _atom_site_fract_y
  _atom_site_fract_z
  _atom_site_occupancy
  Bi  Bi1       1.0  0.82300  0.31000  0.14400  1.0000
  Bi  Bi2       1.0  0.67900  0.85600  0.16600  1.0000
  Bi  Bi3       1.0  0.32100  0.48800  0.17700  1.0000
  Bi  Bi4       1.0  0.14400  0.82300  0.31000  1.0000
  Bi  Bi5       1.0  0.48800  0.17700  0.32100  1.0000
  Bi  Bi6       1.0  0.17700  0.32100  0.48800  1.0000
  Bi  Bi7       1.0  0.83400  0.69000  0.51200  1.0000
  Bi  Bi8       1.0  0.85600  0.16600  0.67900  1.0000
  Bi  Bi9       1.0  0.51200  0.83400  0.69000  1.0000
  Bi  Bi10      1.0  0.31000  0.14400  0.82300  1.0000
  Bi  Bi11      1.0  0.69000  0.51200  0.83400  1.0000
  Bi  Bi12      1.0  0.16600  0.67900  0.85600  1.0000
  O   O1        1.0  0.23100  0.00000  0.00000  1.0000
  O   O2        1.0  0.62500  0.00000  0.00000  1.0000
  O   O3        1.0  0.00000  0.23100  0.00000  1.0000
  O   O4        1.0  0.00000  0.62500  0.00000  1.0000
  O   O5        1.0  0.38000  0.76600  0.12100  1.0000
  O   O6        1.0  0.00000  0.00000  0.23100  1.0000
  O   O7        1.0  0.61400  0.35500  0.23400  1.0000
  O   O8        1.0  0.87900  0.64500  0.25900  1.0000
  O   O9        1.0  0.23400  0.61400  0.35500  1.0000
  O   O10       1.0  0.37500  0.37500  0.37500  1.0000
  O   O11       1.0  0.76600  0.12100  0.38000  1.0000
  O   O12       1.0  0.62000  0.74100  0.38600  1.0000
  O   O13       1.0  0.35500  0.23400  0.61400  1.0000
  O   O14       1.0  0.74100  0.38600  0.62000  1.0000
  O   O15       1.0  0.00000  0.00000  0.62500  1.0000
  O   O16       1.0  0.25900  0.87900  0.64500  1.0000
  O   O17       1.0  0.38600  0.62000  0.74100  1.0000
  O   O18       1.0  0.12100  0.38000  0.76600  1.0000
  O   O19       1.0  0.76900  0.76900  0.76900  1.0000
  O   O20       1.0  0.64500  0.25900  0.87900  1.0000
  Zn  Zn1       1.0  0.00000  0.00000  0.00000  1.0000
