data_image0
_chemical_formula_structural       O5Rb2Sb2
_chemical_formula_sum              "O5 Rb2 Sb2"
_cell_length_a       5.73147
_cell_length_b       5.57806
_cell_length_c       6.93116
_cell_angle_alpha    63.5068
_cell_angle_beta     66.7131
_cell_angle_gamma    60.6667

_space_group_name_H-M_alt    "P 1"
_space_group_IT_number       1

loop_
  _space_group_symop_operation_xyz
  'x, y, z'

loop_
  _atom_site_type_symbol
  _atom_site_label
  _atom_site_symmetry_multiplicity
  _atom_site_fract_x
  _atom_site_fract_y
  _atom_site_fract_z
  _atom_site_occupancy
  O   O1        1.0  0.11000  0.50100  0.27900  1.0000
  O   O2        1.0  0.22400  0.91000  0.36000  1.0000
  O   O3        1.0  0.82000  0.02650  0.68800  1.0000
  O   O4        1.0  0.93200  0.46400  0.69800  1.0000
  O   O5        1.0  0.40700  0.92300  0.69900  1.0000
  Rb  Rb1       1.0  0.63300  0.61900  0.09170  1.0000
  Rb  Rb2       1.0  0.34100  0.38900  0.86800  1.0000
  Sb  Sb1       1.0  0.85200  0.85000  0.45700  1.0000
  Sb  Sb2       1.0  0.12300  0.16000  0.54100  1.0000
