data_image0
_chemical_formula_structural       Na8O18Si7
_chemical_formula_sum              "Na8 O18 Si7"
_cell_length_a       7.17039
_cell_length_b       7.17039
_cell_length_c       7.17039
_cell_angle_alpha    87.328
_cell_angle_beta     87.328
_cell_angle_gamma    87.328

_space_group_name_H-M_alt    "P 1"
_space_group_IT_number       1

loop_
  _space_group_symop_operation_xyz
  'x, y, z'

loop_
  _atom_site_type_symbol
  _atom_site_label
  _atom_site_symmetry_multiplicity
  _atom_site_fract_x
  _atom_site_fract_y
  _atom_site_fract_z
  _atom_site_occupancy
  Na  Na1       1.0  0.50000  0.00000  0.00000  1.0000
  Na  Na2       1.0  0.00000  0.50000  0.00000  1.0000
  Na  Na3       1.0  0.50000  0.50000  0.00000  1.0000
  Na  Na4       1.0  0.23500  0.23500  0.23500  1.0000
  Na  Na5       1.0  0.00000  0.00000  0.50000  1.0000
  Na  Na6       1.0  0.00000  0.50000  0.50000  1.0000
  Na  Na7       1.0  0.50000  0.00000  0.50000  1.0000
  Na  Na8       1.0  0.76500  0.76500  0.76500  1.0000
  O   O1        1.0  0.83100  0.83100  0.08060  1.0000
  O   O2        1.0  0.16900  0.91900  0.16900  1.0000
  O   O3        1.0  0.91900  0.16900  0.16900  1.0000
  O   O4        1.0  0.21200  0.54100  0.21100  1.0000
  O   O5        1.0  0.54100  0.21100  0.21200  1.0000
  O   O6        1.0  0.50000  0.76600  0.23400  1.0000
  O   O7        1.0  0.76600  0.50000  0.23400  1.0000
  O   O8        1.0  0.78900  0.78800  0.45900  1.0000
  O   O9        1.0  0.23400  0.76600  0.50000  1.0000
  O   O10       1.0  0.76600  0.23400  0.50000  1.0000
  O   O11       1.0  0.21100  0.21200  0.54100  1.0000
  O   O12       1.0  0.23400  0.50000  0.76600  1.0000
  O   O13       1.0  0.50000  0.23400  0.76600  1.0000
  O   O14       1.0  0.45900  0.78900  0.78800  1.0000
  O   O15       1.0  0.78800  0.45900  0.78900  1.0000
  O   O16       1.0  0.08060  0.83100  0.83100  1.0000
  O   O17       1.0  0.83100  0.08060  0.83100  1.0000
  O   O18       1.0  0.16900  0.16900  0.91900  1.0000
  Si  Si1       1.0  0.00000  0.00000  0.00000  1.0000
  Si  Si2       1.0  0.72900  0.72900  0.26200  1.0000
  Si  Si3       1.0  0.27100  0.73800  0.27100  1.0000
  Si  Si4       1.0  0.73800  0.27100  0.27100  1.0000
  Si  Si5       1.0  0.26200  0.72900  0.72900  1.0000
  Si  Si6       1.0  0.72900  0.26200  0.72900  1.0000
  Si  Si7       1.0  0.27100  0.27100  0.73800  1.0000
