data_image0
_chemical_formula_structural       O5Re4
_chemical_formula_sum              "O5 Re4"
_cell_length_a       8.71613
_cell_length_b       3.23444
_cell_length_c       3.23444
_cell_angle_alpha    90
_cell_angle_beta     90
_cell_angle_gamma    90

_space_group_name_H-M_alt    "P 1"
_space_group_IT_number       1

loop_
  _space_group_symop_operation_xyz
  'x, y, z'

loop_
  _atom_site_type_symbol
  _atom_site_label
  _atom_site_symmetry_multiplicity
  _atom_site_fract_x
  _atom_site_fract_y
  _atom_site_fract_z
  _atom_site_occupancy
  O   O1        1.0  0.31600  0.50000  0.00000  1.0000
  O   O2        1.0  0.68400  0.50000  0.00000  1.0000
  O   O3        1.0  0.31600  0.00000  0.50000  1.0000
  O   O4        1.0  0.68400  0.00000  0.50000  1.0000
  O   O5        1.0  0.50000  0.50000  0.50000  1.0000
  Re  Re1       1.0  0.00000  0.00000  0.00000  1.0000
  Re  Re2       1.0  0.50000  0.00000  0.00000  1.0000
  Re  Re3       1.0  0.17000  0.50000  0.50000  1.0000
  Re  Re4       1.0  0.83000  0.50000  0.50000  1.0000
