data_image0
_chemical_formula_structural       F6N15P3S9
_chemical_formula_sum              "F6 N15 P3 S9"
_cell_length_a       4.93269
_cell_length_b       10.7008
_cell_length_c       10.7008
_cell_angle_alpha    117.683
_cell_angle_beta     98.8388
_cell_angle_gamma    98.8388

_space_group_name_H-M_alt    "P 1"
_space_group_IT_number       1

loop_
  _space_group_symop_operation_xyz
  'x, y, z'

loop_
  _atom_site_type_symbol
  _atom_site_label
  _atom_site_symmetry_multiplicity
  _atom_site_fract_x
  _atom_site_fract_y
  _atom_site_fract_z
  _atom_site_occupancy
  F   F1        1.0  0.14100  0.78300  0.00000  1.0000
  F   F2        1.0  0.61000  0.86200  0.00000  1.0000
  F   F3        1.0  0.74800  0.13800  0.13800  1.0000
  F   F4        1.0  0.35800  0.21700  0.21700  1.0000
  F   F5        1.0  0.14100  0.00000  0.78300  1.0000
  F   F6        1.0  0.61000  0.00000  0.86200  1.0000
  N   N1        1.0  0.70400  0.49900  0.00000  1.0000
  N   N2        1.0  0.31300  0.49700  0.14600  1.0000
  N   N3        1.0  0.54200  0.74000  0.15000  1.0000
  N   N4        1.0  0.80200  0.41100  0.26000  1.0000
  N   N5        1.0  0.16700  0.85400  0.35100  1.0000
  N   N6        1.0  0.80200  0.26000  0.41100  1.0000
  N   N7        1.0  0.31300  0.14600  0.49700  1.0000
  N   N8        1.0  0.70400  0.00000  0.49900  1.0000
  N   N9        1.0  0.20500  0.50100  0.50100  1.0000
  N   N10       1.0  0.81600  0.64900  0.50300  1.0000
  N   N11       1.0  0.39100  0.85000  0.58900  1.0000
  N   N12       1.0  0.81600  0.50300  0.64900  1.0000
  N   N13       1.0  0.54200  0.15000  0.74000  1.0000
  N   N14       1.0  0.39100  0.58900  0.85000  1.0000
  N   N15       1.0  0.16700  0.35100  0.85400  1.0000
  P   P1        1.0  0.42200  0.73100  0.00000  1.0000
  P   P2        1.0  0.69100  0.26900  0.26900  1.0000
  P   P3        1.0  0.42200  0.00000  0.73100  1.0000
  S   S1        1.0  0.10700  0.37100  0.00000  1.0000
  S   S2        1.0  0.62500  0.59900  0.15200  1.0000
  S   S3        1.0  0.10700  0.00000  0.37100  1.0000
  S   S4        1.0  0.02550  0.55200  0.40100  1.0000
  S   S5        1.0  0.47300  0.84800  0.44800  1.0000
  S   S6        1.0  0.02550  0.40100  0.55200  1.0000
  S   S7        1.0  0.62500  0.15200  0.59900  1.0000
  S   S8        1.0  0.73600  0.62900  0.62900  1.0000
  S   S9        1.0  0.47300  0.44800  0.84800  1.0000
