data_image0
_chemical_formula_structural       Na2O5Sb2
_chemical_formula_sum              "Na2 O5 Sb2"
_cell_length_a       5.41437
_cell_length_b       5.31637
_cell_length_c       5.85645
_cell_angle_alpha    66.2297
_cell_angle_beta     64.6812
_cell_angle_gamma    62.4483

_space_group_name_H-M_alt    "P 1"
_space_group_IT_number       1

loop_
  _space_group_symop_operation_xyz
  'x, y, z'

loop_
  _atom_site_type_symbol
  _atom_site_label
  _atom_site_symmetry_multiplicity
  _atom_site_fract_x
  _atom_site_fract_y
  _atom_site_fract_z
  _atom_site_occupancy
  Na  Na1       1.0  0.63300  0.65000  0.07290  1.0000
  Na  Na2       1.0  0.39300  0.33900  0.89000  1.0000
  O   O1        1.0  0.18500  0.03580  0.25700  1.0000
  O   O2        1.0  0.52300  0.24200  0.32200  1.0000
  O   O3        1.0  0.82400  0.00057  0.71900  1.0000
  O   O4        1.0  0.44400  0.78100  0.72700  1.0000
  O   O5        1.0  0.01370  0.42600  0.73400  1.0000
  Sb  Sb1       1.0  0.85100  0.84400  0.43600  1.0000
  Sb  Sb2       1.0  0.17600  0.12100  0.55900  1.0000
