data_image0
_chemical_formula_structural       Nb4O20Rb4Ti4
_chemical_formula_sum              "Nb4 O20 Rb4 Ti4"
_cell_length_a       6.45617
_cell_length_b       3.83286
_cell_length_c       18.7265
_cell_angle_alpha    90
_cell_angle_beta     90
_cell_angle_gamma    90

_space_group_name_H-M_alt    "P 1"
_space_group_IT_number       1

loop_
  _space_group_symop_operation_xyz
  'x, y, z'

loop_
  _atom_site_type_symbol
  _atom_site_label
  _atom_site_symmetry_multiplicity
  _atom_site_fract_x
  _atom_site_fract_y
  _atom_site_fract_z
  _atom_site_occupancy
  Nb  Nb1       1.0  0.77200  0.25000  0.10900  1.0000
  Nb  Nb2       1.0  0.27200  0.25000  0.39100  1.0000
  Nb  Nb3       1.0  0.72800  0.75000  0.60900  1.0000
  Nb  Nb4       1.0  0.22800  0.75000  0.89100  1.0000
  O   O1        1.0  0.35700  0.75000  0.01030  1.0000
  O   O2        1.0  0.06500  0.25000  0.07060  1.0000
  O   O3        1.0  0.76300  0.75000  0.07890  1.0000
  O   O4        1.0  0.46500  0.25000  0.12000  1.0000
  O   O5        1.0  0.84500  0.25000  0.20200  1.0000
  O   O6        1.0  0.34500  0.25000  0.29800  1.0000
  O   O7        1.0  0.96500  0.25000  0.38000  1.0000
  O   O8        1.0  0.26300  0.75000  0.42100  1.0000
  O   O9        1.0  0.56500  0.25000  0.42900  1.0000
  O   O10       1.0  0.85700  0.75000  0.49000  1.0000
  O   O11       1.0  0.14300  0.25000  0.51000  1.0000
  O   O12       1.0  0.43500  0.75000  0.57100  1.0000
  O   O13       1.0  0.73700  0.25000  0.57900  1.0000
  O   O14       1.0  0.03510  0.75000  0.62000  1.0000
  O   O15       1.0  0.65500  0.75000  0.70200  1.0000
  O   O16       1.0  0.15500  0.75000  0.79800  1.0000
  O   O17       1.0  0.53500  0.75000  0.88000  1.0000
  O   O18       1.0  0.23700  0.25000  0.92100  1.0000
  O   O19       1.0  0.93500  0.75000  0.92900  1.0000
  O   O20       1.0  0.64300  0.25000  0.99000  1.0000
  Rb  Rb1       1.0  0.20900  0.75000  0.19400  1.0000
  Rb  Rb2       1.0  0.70900  0.75000  0.30600  1.0000
  Rb  Rb3       1.0  0.29100  0.25000  0.69400  1.0000
  Rb  Rb4       1.0  0.79100  0.25000  0.80600  1.0000
  Ti  Ti1       1.0  0.32100  0.25000  0.03230  1.0000
  Ti  Ti2       1.0  0.82100  0.25000  0.46800  1.0000
  Ti  Ti3       1.0  0.17900  0.75000  0.53200  1.0000
  Ti  Ti4       1.0  0.67900  0.75000  0.96800  1.0000
