data_image0
_chemical_formula_structural       As4F4Fe8O16
_chemical_formula_sum              "As4 F4 Fe8 O16"
_cell_length_a       6.6503
_cell_length_b       7.42026
_cell_length_c       9.72478
_cell_angle_alpha    91.8232
_cell_angle_beta     109.994
_cell_angle_gamma    116.623

_space_group_name_H-M_alt    "P 1"
_space_group_IT_number       1

loop_
  _space_group_symop_operation_xyz
  'x, y, z'

loop_
  _atom_site_type_symbol
  _atom_site_label
  _atom_site_symmetry_multiplicity
  _atom_site_fract_x
  _atom_site_fract_y
  _atom_site_fract_z
  _atom_site_occupancy
  As  As1       1.0  0.76900  0.53800  0.19100  1.0000
  As  As2       1.0  0.53900  0.96200  0.30900  1.0000
  As  As3       1.0  0.46100  0.03820  0.69100  1.0000
  As  As4       1.0  0.23100  0.46200  0.80900  1.0000
  F   F1        1.0  0.01170  0.13800  0.10600  1.0000
  F   F2        1.0  0.26800  0.36200  0.39400  1.0000
  F   F3        1.0  0.73200  0.63800  0.60600  1.0000
  F   F4        1.0  0.98800  0.86200  0.89400  1.0000
  Fe  Fe1       1.0  0.67400  0.89200  0.00911  1.0000
  Fe  Fe2       1.0  0.18300  0.44700  0.13800  1.0000
  Fe  Fe3       1.0  0.09850  0.05320  0.36200  1.0000
  Fe  Fe4       1.0  0.27300  0.60800  0.49100  1.0000
  Fe  Fe5       1.0  0.72700  0.39200  0.50900  1.0000
  Fe  Fe6       1.0  0.90100  0.94700  0.63800  1.0000
  Fe  Fe7       1.0  0.81700  0.55300  0.86200  1.0000
  Fe  Fe8       1.0  0.32600  0.10800  0.99100  1.0000
  O   O1        1.0  0.85100  0.45200  0.06590  1.0000
  O   O2        1.0  0.45600  0.38500  0.12700  1.0000
  O   O3        1.0  0.53200  0.99700  0.13500  1.0000
  O   O4        1.0  0.84300  0.79200  0.20000  1.0000
  O   O5        1.0  0.35200  0.70800  0.30000  1.0000
  O   O6        1.0  0.90000  0.50300  0.36500  1.0000
  O   O7        1.0  0.44500  0.11500  0.37300  1.0000
  O   O8        1.0  0.83400  0.04850  0.43400  1.0000
  O   O9        1.0  0.16600  0.95200  0.56600  1.0000
  O   O10       1.0  0.55500  0.88500  0.62700  1.0000
  O   O11       1.0  0.10000  0.49700  0.63500  1.0000
  O   O12       1.0  0.64800  0.29200  0.70000  1.0000
  O   O13       1.0  0.15700  0.20800  0.80000  1.0000
  O   O14       1.0  0.46800  0.00270  0.86500  1.0000
  O   O15       1.0  0.54400  0.61500  0.87300  1.0000
  O   O16       1.0  0.14900  0.54800  0.93400  1.0000
