data_image0
_chemical_formula_structural       Cu4Nd4O10
_chemical_formula_sum              "Cu4 Nd4 O10"
_cell_length_a       5.61847
_cell_length_b       10.0688
_cell_length_c       3.77895
_cell_angle_alpha    90
_cell_angle_beta     90
_cell_angle_gamma    90

_space_group_name_H-M_alt    "P 1"
_space_group_IT_number       1

loop_
  _space_group_symop_operation_xyz
  'x, y, z'

loop_
  _atom_site_type_symbol
  _atom_site_label
  _atom_site_symmetry_multiplicity
  _atom_site_fract_x
  _atom_site_fract_y
  _atom_site_fract_z
  _atom_site_occupancy
  Cu  Cu1       1.0  0.31100  0.09530  0.00000  1.0000
  Cu  Cu2       1.0  0.81100  0.40500  0.00000  1.0000
  Cu  Cu3       1.0  0.18900  0.59500  0.00000  1.0000
  Cu  Cu4       1.0  0.68900  0.90500  0.00000  1.0000
  Nd  Nd1       1.0  0.84700  0.14800  0.50000  1.0000
  Nd  Nd2       1.0  0.34700  0.35200  0.50000  1.0000
  Nd  Nd3       1.0  0.65300  0.64800  0.50000  1.0000
  Nd  Nd4       1.0  0.15300  0.85200  0.50000  1.0000
  O   O1        1.0  0.00000  0.00000  0.00000  1.0000
  O   O2        1.0  0.58900  0.20600  0.00000  1.0000
  O   O3        1.0  0.08870  0.29400  0.00000  1.0000
  O   O4        1.0  0.50000  0.50000  0.00000  1.0000
  O   O5        1.0  0.91100  0.70600  0.00000  1.0000
  O   O6        1.0  0.41100  0.79400  0.00000  1.0000
  O   O7        1.0  0.27800  0.10000  0.50000  1.0000
  O   O8        1.0  0.77800  0.40000  0.50000  1.0000
  O   O9        1.0  0.22200  0.60000  0.50000  1.0000
  O   O10       1.0  0.72200  0.90000  0.50000  1.0000
