data_image0
_chemical_formula_structural       O20Ta4Ti4Tl4
_chemical_formula_sum              "O20 Ta4 Ti4 Tl4"
_cell_length_a       6.44795
_cell_length_b       3.80792
_cell_length_c       18.6693
_cell_angle_alpha    90
_cell_angle_beta     90
_cell_angle_gamma    90

_space_group_name_H-M_alt    "P 1"
_space_group_IT_number       1

loop_
  _space_group_symop_operation_xyz
  'x, y, z'

loop_
  _atom_site_type_symbol
  _atom_site_label
  _atom_site_symmetry_multiplicity
  _atom_site_fract_x
  _atom_site_fract_y
  _atom_site_fract_z
  _atom_site_occupancy
  O   O1        1.0  0.35600  0.75000  0.00844  1.0000
  O   O2        1.0  0.06240  0.25000  0.07020  1.0000
  O   O3        1.0  0.76000  0.75000  0.07950  1.0000
  O   O4        1.0  0.46500  0.25000  0.12100  1.0000
  O   O5        1.0  0.84100  0.25000  0.20300  1.0000
  O   O6        1.0  0.34100  0.25000  0.29700  1.0000
  O   O7        1.0  0.96500  0.25000  0.37900  1.0000
  O   O8        1.0  0.26000  0.75000  0.42000  1.0000
  O   O9        1.0  0.56200  0.25000  0.43000  1.0000
  O   O10       1.0  0.85600  0.75000  0.49200  1.0000
  O   O11       1.0  0.14400  0.25000  0.50800  1.0000
  O   O12       1.0  0.43800  0.75000  0.57000  1.0000
  O   O13       1.0  0.74000  0.25000  0.58000  1.0000
  O   O14       1.0  0.03470  0.75000  0.62100  1.0000
  O   O15       1.0  0.65900  0.75000  0.70300  1.0000
  O   O16       1.0  0.15900  0.75000  0.79700  1.0000
  O   O17       1.0  0.53500  0.75000  0.87900  1.0000
  O   O18       1.0  0.24000  0.25000  0.92000  1.0000
  O   O19       1.0  0.93800  0.75000  0.93000  1.0000
  O   O20       1.0  0.64400  0.25000  0.99200  1.0000
  Ta  Ta1       1.0  0.77400  0.25000  0.10800  1.0000
  Ta  Ta2       1.0  0.27400  0.25000  0.39200  1.0000
  Ta  Ta3       1.0  0.72600  0.75000  0.60800  1.0000
  Ta  Ta4       1.0  0.22600  0.75000  0.89200  1.0000
  Ti  Ti1       1.0  0.32100  0.25000  0.03380  1.0000
  Ti  Ti2       1.0  0.82100  0.25000  0.46600  1.0000
  Ti  Ti3       1.0  0.17900  0.75000  0.53400  1.0000
  Ti  Ti4       1.0  0.67900  0.75000  0.96600  1.0000
  Tl  Tl1       1.0  0.22500  0.75000  0.20000  1.0000
  Tl  Tl2       1.0  0.72500  0.75000  0.30000  1.0000
  Tl  Tl3       1.0  0.27500  0.25000  0.70000  1.0000
  Tl  Tl4       1.0  0.77500  0.25000  0.80000  1.0000
