data_image0
_chemical_formula_structural       Co4O10Sr4
_chemical_formula_sum              "Co4 O10 Sr4"
_cell_length_a       5.38188
_cell_length_b       5.50814
_cell_length_c       8.80958
_cell_angle_alpha    108.217
_cell_angle_beta     107.786
_cell_angle_gamma    90

_space_group_name_H-M_alt    "P 1"
_space_group_IT_number       1

loop_
  _space_group_symop_operation_xyz
  'x, y, z'

loop_
  _atom_site_type_symbol
  _atom_site_label
  _atom_site_symmetry_multiplicity
  _atom_site_fract_x
  _atom_site_fract_y
  _atom_site_fract_z
  _atom_site_occupancy
  Co  Co1       1.0  0.01980  0.00000  0.00000  1.0000
  Co  Co2       1.0  0.52000  0.50000  0.00000  1.0000
  Co  Co3       1.0  0.23300  0.31100  0.50000  1.0000
  Co  Co4       1.0  0.73300  0.68900  0.50000  1.0000
  O   O1        1.0  0.77300  0.25400  0.01130  1.0000
  O   O2        1.0  0.27300  0.25800  0.01130  1.0000
  O   O3        1.0  0.17200  0.10600  0.28500  1.0000
  O   O4        1.0  0.67200  0.67800  0.28500  1.0000
  O   O5        1.0  0.88100  0.37300  0.50000  1.0000
  O   O6        1.0  0.38100  0.62700  0.50000  1.0000
  O   O7        1.0  0.38700  0.32200  0.71500  1.0000
  O   O8        1.0  0.88700  0.89400  0.71500  1.0000
  O   O9        1.0  0.26200  0.74200  0.98900  1.0000
  O   O10       1.0  0.76200  0.74600  0.98900  1.0000
  Sr  Sr1       1.0  0.62600  0.09880  0.22000  1.0000
  Sr  Sr2       1.0  0.12600  0.62100  0.22000  1.0000
  Sr  Sr3       1.0  0.90600  0.37900  0.78000  1.0000
  Sr  Sr4       1.0  0.40600  0.90100  0.78000  1.0000
