data_image0
_chemical_formula_structural       Bi12GaO20
_chemical_formula_sum              "Bi12 Ga1 O20"
_cell_length_a       8.73523
_cell_length_b       8.73523
_cell_length_c       8.73523
_cell_angle_alpha    109.476
_cell_angle_beta     109.476
_cell_angle_gamma    109.461

_space_group_name_H-M_alt    "P 1"
_space_group_IT_number       1

loop_
  _space_group_symop_operation_xyz
  'x, y, z'

loop_
  _atom_site_type_symbol
  _atom_site_label
  _atom_site_symmetry_multiplicity
  _atom_site_fract_x
  _atom_site_fract_y
  _atom_site_fract_z
  _atom_site_occupancy
  Bi  Bi1       1.0  0.30800  0.81700  0.14400  1.0000
  Bi  Bi2       1.0  0.85600  0.67300  0.16400  1.0000
  Bi  Bi3       1.0  0.49100  0.32700  0.18200  1.0000
  Bi  Bi4       1.0  0.81700  0.14400  0.30800  1.0000
  Bi  Bi5       1.0  0.18300  0.49100  0.32700  1.0000
  Bi  Bi6       1.0  0.32700  0.18300  0.49100  1.0000
  Bi  Bi7       1.0  0.69200  0.83600  0.50900  1.0000
  Bi  Bi8       1.0  0.16400  0.85600  0.67300  1.0000
  Bi  Bi9       1.0  0.83600  0.50900  0.69200  1.0000
  Bi  Bi10      1.0  0.14400  0.30800  0.81800  1.0000
  Bi  Bi11      1.0  0.50900  0.69200  0.83600  1.0000
  Bi  Bi12      1.0  0.67300  0.16400  0.85600  1.0000
  Ga  Ga1       1.0  0.00000  0.00000  0.00000  1.0000
  O   O1        1.0  0.61600  0.00000  0.00000  1.0000
  O   O2        1.0  0.00000  0.61600  0.00000  1.0000
  O   O3        1.0  0.21500  0.00032  0.00064  1.0000
  O   O4        1.0  0.76800  0.38000  0.12300  1.0000
  O   O5        1.0  0.00032  0.00000  0.21500  1.0000
  O   O6        1.0  0.35500  0.61200  0.23200  1.0000
  O   O7        1.0  0.64500  0.87700  0.25800  1.0000
  O   O8        1.0  0.61200  0.23200  0.35500  1.0000
  O   O9        1.0  0.12300  0.76800  0.38000  1.0000
  O   O10       1.0  0.38400  0.38400  0.38300  1.0000
  O   O11       1.0  0.74200  0.62000  0.38800  1.0000
  O   O12       1.0  0.23200  0.35500  0.61200  1.0000
  O   O13       1.0  0.00000  0.00000  0.61700  1.0000
  O   O14       1.0  0.38800  0.74200  0.62000  1.0000
  O   O15       1.0  0.87700  0.25800  0.64500  1.0000
  O   O16       1.0  0.62000  0.38800  0.74200  1.0000
  O   O17       1.0  0.38000  0.12300  0.76800  1.0000
  O   O18       1.0  0.78500  0.78500  0.78500  1.0000
  O   O19       1.0  0.25800  0.64500  0.87700  1.0000
  O   O20       1.0  0.00000  0.21500  0.99900  1.0000
