data_image0
_chemical_formula_structural       Ca6H2O19Si6
_chemical_formula_sum              "Ca6 H2 O19 Si6"
_cell_length_a       8.63971
_cell_length_b       7.35235
_cell_length_c       6.9755
_cell_angle_alpha    89.9326
_cell_angle_beta     89.8214
_cell_angle_gamma    102.24

_space_group_name_H-M_alt    "P 1"
_space_group_IT_number       1

loop_
  _space_group_symop_operation_xyz
  'x, y, z'

loop_
  _atom_site_type_symbol
  _atom_site_label
  _atom_site_symmetry_multiplicity
  _atom_site_fract_x
  _atom_site_fract_y
  _atom_site_fract_z
  _atom_site_occupancy
  Ca  Ca1       1.0  0.13400  0.16200  0.34300  1.0000
  Ca  Ca2       1.0  0.14300  0.65500  0.34500  1.0000
  Ca  Ca3       1.0  0.50000  0.00000  0.50000  1.0000
  Ca  Ca4       1.0  0.50000  0.50000  0.50000  1.0000
  Ca  Ca5       1.0  0.85700  0.34500  0.65500  1.0000
  Ca  Ca6       1.0  0.86600  0.83800  0.65700  1.0000
  H   H1        1.0  0.31600  0.45100  0.13500  1.0000
  H   H2        1.0  0.68400  0.54900  0.86500  1.0000
  O   O1        1.0  0.50000  0.00000  0.00000  1.0000
  O   O2        1.0  0.77600  0.24900  0.02040  1.0000
  O   O3        1.0  0.77800  0.89000  0.02080  1.0000
  O   O4        1.0  0.78200  0.57100  0.14700  1.0000
  O   O5        1.0  0.30300  0.44700  0.27400  1.0000
  O   O6        1.0  0.29600  0.94900  0.28700  1.0000
  O   O7        1.0  0.95800  0.36800  0.33000  1.0000
  O   O8        1.0  0.95900  0.86100  0.33100  1.0000
  O   O9        1.0  0.64900  0.78900  0.37800  1.0000
  O   O10       1.0  0.65000  0.28700  0.37900  1.0000
  O   O11       1.0  0.35000  0.71300  0.62100  1.0000
  O   O12       1.0  0.35100  0.21100  0.62200  1.0000
  O   O13       1.0  0.04080  0.13900  0.66900  1.0000
  O   O14       1.0  0.04170  0.63200  0.67000  1.0000
  O   O15       1.0  0.70400  0.05050  0.71300  1.0000
  O   O16       1.0  0.69700  0.55300  0.72600  1.0000
  O   O17       1.0  0.21800  0.42900  0.85300  1.0000
  O   O18       1.0  0.22200  0.11000  0.97900  1.0000
  O   O19       1.0  0.22400  0.75100  0.98000  1.0000
  Si  Si1       1.0  0.31600  0.95500  0.05980  1.0000
  Si  Si2       1.0  0.78900  0.36300  0.22700  1.0000
  Si  Si3       1.0  0.79000  0.78300  0.22800  1.0000
  Si  Si4       1.0  0.21000  0.21700  0.77200  1.0000
  Si  Si5       1.0  0.21100  0.63700  0.77300  1.0000
  Si  Si6       1.0  0.68400  0.04550  0.94000  1.0000
