data_image0
_chemical_formula_structural       Al2O5Rh2
_chemical_formula_sum              "Al2 O5 Rh2"
_cell_length_a       8.91827
_cell_length_b       3.43318
_cell_length_c       3.43318
_cell_angle_alpha    90
_cell_angle_beta     90
_cell_angle_gamma    90

_space_group_name_H-M_alt    "P 1"
_space_group_IT_number       1

loop_
  _space_group_symop_operation_xyz
  'x, y, z'

loop_
  _atom_site_type_symbol
  _atom_site_label
  _atom_site_symmetry_multiplicity
  _atom_site_fract_x
  _atom_site_fract_y
  _atom_site_fract_z
  _atom_site_occupancy
  Al  Al1       1.0  0.00000  0.00000  0.00000  1.0000
  Al  Al2       1.0  0.50000  0.00000  0.00000  1.0000
  O   O1        1.0  0.13200  0.50000  0.00000  1.0000
  O   O2        1.0  0.86800  0.50000  0.00000  1.0000
  O   O3        1.0  0.13200  0.00000  0.50000  1.0000
  O   O4        1.0  0.86800  0.00000  0.50000  1.0000
  O   O5        1.0  0.50000  0.50000  0.50000  1.0000
  Rh  Rh1       1.0  0.24000  0.50000  0.50000  1.0000
  Rh  Rh2       1.0  0.76000  0.50000  0.50000  1.0000
