data_image0
_chemical_formula_structural       BrCa2N
_chemical_formula_sum              "Br1 Ca2 N1"
_cell_length_a       3.69772
_cell_length_b       3.69772
_cell_length_c       7.19795
_cell_angle_alpha    104.884
_cell_angle_beta     104.884
_cell_angle_gamma    60

_space_group_name_H-M_alt    "P 1"
_space_group_IT_number       1

loop_
  _space_group_symop_operation_xyz
  'x, y, z'

loop_
  _atom_site_type_symbol
  _atom_site_label
  _atom_site_symmetry_multiplicity
  _atom_site_fract_x
  _atom_site_fract_y
  _atom_site_fract_z
  _atom_site_occupancy
  Br  Br1       1.0  0.00000  0.00000  0.00000  1.0000
  Ca  Ca1       1.0  0.77400  0.77400  0.32200  1.0000
  Ca  Ca2       1.0  0.22600  0.22600  0.67800  1.0000
  N   N1        1.0  0.50000  0.50000  0.50000  1.0000
