data_image0
_chemical_formula_structural       O5Y2Zn2
_chemical_formula_sum              "O5 Y2 Zn2"
_cell_length_a       7.05666
_cell_length_b       3.90167
_cell_length_c       3.90167
_cell_angle_alpha    90
_cell_angle_beta     90
_cell_angle_gamma    90

_space_group_name_H-M_alt    "P 1"
_space_group_IT_number       1

loop_
  _space_group_symop_operation_xyz
  'x, y, z'

loop_
  _atom_site_type_symbol
  _atom_site_label
  _atom_site_symmetry_multiplicity
  _atom_site_fract_x
  _atom_site_fract_y
  _atom_site_fract_z
  _atom_site_occupancy
  O   O1        1.0  0.20300  0.50000  0.00000  1.0000
  O   O2        1.0  0.79700  0.50000  0.00000  1.0000
  O   O3        1.0  0.20300  0.00000  0.50000  1.0000
  O   O4        1.0  0.79700  0.00000  0.50000  1.0000
  O   O5        1.0  0.50000  0.50000  0.50000  1.0000
  Y   Y1        1.0  0.00000  0.00000  0.00000  1.0000
  Y   Y2        1.0  0.50000  0.00000  0.00000  1.0000
  Zn  Zn1       1.0  0.22600  0.50000  0.50000  1.0000
  Zn  Zn2       1.0  0.77400  0.50000  0.50000  1.0000
