data_image0
_chemical_formula_structural       Ce8Pd24Sb
_chemical_formula_sum              "Ce8 Pd24 Sb1"
_cell_length_a       8.55911
_cell_length_b       8.55911
_cell_length_c       8.55911
_cell_angle_alpha    90
_cell_angle_beta     90
_cell_angle_gamma    90

_space_group_name_H-M_alt    "P 1"
_space_group_IT_number       1

loop_
  _space_group_symop_operation_xyz
  'x, y, z'

loop_
  _atom_site_type_symbol
  _atom_site_label
  _atom_site_symmetry_multiplicity
  _atom_site_fract_x
  _atom_site_fract_y
  _atom_site_fract_z
  _atom_site_occupancy
  Ce  Ce1       1.0  0.25200  0.25200  0.25200  1.0000
  Ce  Ce2       1.0  0.74800  0.25200  0.25200  1.0000
  Ce  Ce3       1.0  0.25200  0.74800  0.25200  1.0000
  Ce  Ce4       1.0  0.74800  0.74800  0.25200  1.0000
  Ce  Ce5       1.0  0.25200  0.25200  0.74800  1.0000
  Ce  Ce6       1.0  0.74800  0.25200  0.74800  1.0000
  Ce  Ce7       1.0  0.25200  0.74800  0.74800  1.0000
  Ce  Ce8       1.0  0.74800  0.74800  0.74800  1.0000
  Pd  Pd1       1.0  0.31200  0.00000  0.00000  1.0000
  Pd  Pd2       1.0  0.68800  0.00000  0.00000  1.0000
  Pd  Pd3       1.0  0.50000  0.26700  0.00000  1.0000
  Pd  Pd4       1.0  0.00000  0.31200  0.00000  1.0000
  Pd  Pd5       1.0  0.26700  0.50000  0.00000  1.0000
  Pd  Pd6       1.0  0.73300  0.50000  0.00000  1.0000
  Pd  Pd7       1.0  0.00000  0.68800  0.00000  1.0000
  Pd  Pd8       1.0  0.50000  0.73300  0.00000  1.0000
  Pd  Pd9       1.0  0.50000  0.50000  0.25500  1.0000
  Pd  Pd10      1.0  0.50000  0.00000  0.26700  1.0000
  Pd  Pd11      1.0  0.00000  0.50000  0.26700  1.0000
  Pd  Pd12      1.0  0.00000  0.00000  0.31200  1.0000
  Pd  Pd13      1.0  0.26700  0.00000  0.50000  1.0000
  Pd  Pd14      1.0  0.73300  0.00000  0.50000  1.0000
  Pd  Pd15      1.0  0.50000  0.25500  0.50000  1.0000
  Pd  Pd16      1.0  0.00000  0.26700  0.50000  1.0000
  Pd  Pd17      1.0  0.25500  0.50000  0.50000  1.0000
  Pd  Pd18      1.0  0.74500  0.50000  0.50000  1.0000
  Pd  Pd19      1.0  0.00000  0.73300  0.50000  1.0000
  Pd  Pd20      1.0  0.50000  0.74500  0.50000  1.0000
  Pd  Pd21      1.0  0.00000  0.00000  0.68800  1.0000
  Pd  Pd22      1.0  0.50000  0.00000  0.73300  1.0000
  Pd  Pd23      1.0  0.00000  0.50000  0.73300  1.0000
  Pd  Pd24      1.0  0.50000  0.50000  0.74500  1.0000
  Sb  Sb1       1.0  0.00000  0.00000  0.00000  1.0000
