data_image0
_chemical_formula_structural       Na2O5Rh2
_chemical_formula_sum              "Na2 O5 Rh2"
_cell_length_a       4.88937
_cell_length_b       4.99848
_cell_length_c       5.77256
_cell_angle_alpha    66.6484
_cell_angle_beta     68.1219
_cell_angle_gamma    68.9635

_space_group_name_H-M_alt    "P 1"
_space_group_IT_number       1

loop_
  _space_group_symop_operation_xyz
  'x, y, z'

loop_
  _atom_site_type_symbol
  _atom_site_label
  _atom_site_symmetry_multiplicity
  _atom_site_fract_x
  _atom_site_fract_y
  _atom_site_fract_z
  _atom_site_occupancy
  Na  Na1       1.0  0.85300  0.85900  0.40800  1.0000
  Na  Na2       1.0  0.15200  0.13300  0.58600  1.0000
  O   O1        1.0  0.36300  0.92400  0.23300  1.0000
  O   O2        1.0  0.94700  0.48800  0.23300  1.0000
  O   O3        1.0  0.66600  0.09140  0.76400  1.0000
  O   O4        1.0  0.04040  0.47500  0.78100  1.0000
  O   O5        1.0  0.43800  0.70600  0.78900  1.0000
  Rh  Rh1       1.0  0.67700  0.67900  0.00430  1.0000
  Rh  Rh2       1.0  0.33200  0.32900  0.98500  1.0000
