data_image0
_chemical_formula_structural       Al23Ni6Y4
_chemical_formula_sum              "Al23 Ni6 Y4"
_cell_length_a       4.0691
_cell_length_b       8.16411
_cell_length_c       17.0045
_cell_angle_alpha    90.8736
_cell_angle_beta     96.8718
_cell_angle_gamma    104.431

_space_group_name_H-M_alt    "P 1"
_space_group_IT_number       1

loop_
  _space_group_symop_operation_xyz
  'x, y, z'

loop_
  _atom_site_type_symbol
  _atom_site_label
  _atom_site_symmetry_multiplicity
  _atom_site_fract_x
  _atom_site_fract_y
  _atom_site_fract_z
  _atom_site_occupancy
  Al  Al1       1.0  0.79000  0.53400  0.04660  1.0000
  Al  Al2       1.0  0.96200  0.87200  0.05180  1.0000
  Al  Al3       1.0  0.62600  0.19200  0.05950  1.0000
  Al  Al4       1.0  0.28800  0.43300  0.14300  1.0000
  Al  Al5       1.0  0.55400  0.94300  0.16400  1.0000
  Al  Al6       1.0  0.75100  0.28400  0.21900  1.0000
  Al  Al7       1.0  0.19100  0.10100  0.28200  1.0000
  Al  Al8       1.0  0.39600  0.47700  0.31400  1.0000
  Al  Al9       1.0  0.59900  0.87300  0.32500  1.0000
  Al  Al10      1.0  0.02740  0.65000  0.40500  1.0000
  Al  Al11      1.0  0.68000  0.88100  0.48000  1.0000
  Al  Al12      1.0  0.50000  0.50000  0.50000  1.0000
  Al  Al13      1.0  0.32000  0.11900  0.52000  1.0000
  Al  Al14      1.0  0.97300  0.35000  0.59500  1.0000
  Al  Al15      1.0  0.40100  0.12700  0.67500  1.0000
  Al  Al16      1.0  0.60400  0.52300  0.68600  1.0000
  Al  Al17      1.0  0.80900  0.89900  0.71800  1.0000
  Al  Al18      1.0  0.24900  0.71600  0.78100  1.0000
  Al  Al19      1.0  0.44600  0.05690  0.83600  1.0000
  Al  Al20      1.0  0.71200  0.56700  0.85700  1.0000
  Al  Al21      1.0  0.37400  0.80800  0.94000  1.0000
  Al  Al22      1.0  0.03790  0.12800  0.94800  1.0000
  Al  Al23      1.0  0.21000  0.46600  0.95300  1.0000
  Ni  Ni1       1.0  0.37900  0.69000  0.06820  1.0000
  Ni  Ni2       1.0  0.13000  0.12200  0.13900  1.0000
  Ni  Ni3       1.0  0.17200  0.94500  0.39900  1.0000
  Ni  Ni4       1.0  0.82800  0.05510  0.60100  1.0000
  Ni  Ni5       1.0  0.87000  0.87800  0.86100  1.0000
  Ni  Ni6       1.0  0.62100  0.31000  0.93200  1.0000
  Y   Y1        1.0  0.95400  0.68900  0.21900  1.0000
  Y   Y2        1.0  0.83500  0.26300  0.40700  1.0000
  Y   Y3        1.0  0.16500  0.73700  0.59300  1.0000
  Y   Y4        1.0  0.04630  0.31100  0.78100  1.0000
