data_image0
_chemical_formula_structural       Cs16O12Sn4
_chemical_formula_sum              "Cs16 O12 Sn4"
_cell_length_a       7.38586
_cell_length_b       11.7378
_cell_length_c       12.0172
_cell_angle_alpha    65.939
_cell_angle_beta     80.8155
_cell_angle_gamma    82.3067

_space_group_name_H-M_alt    "P 1"
_space_group_IT_number       1

loop_
  _space_group_symop_operation_xyz
  'x, y, z'

loop_
  _atom_site_type_symbol
  _atom_site_label
  _atom_site_symmetry_multiplicity
  _atom_site_fract_x
  _atom_site_fract_y
  _atom_site_fract_z
  _atom_site_occupancy
  Cs  Cs1       1.0  0.26000  0.52400  0.04510  1.0000
  Cs  Cs2       1.0  0.72900  0.03500  0.06840  1.0000
  Cs  Cs3       1.0  0.10400  0.18800  0.12700  1.0000
  Cs  Cs4       1.0  0.52900  0.68100  0.17300  1.0000
  Cs  Cs5       1.0  0.87200  0.38900  0.33300  1.0000
  Cs  Cs6       1.0  0.36200  0.87800  0.35800  1.0000
  Cs  Cs7       1.0  0.83900  0.91900  0.43300  1.0000
  Cs  Cs8       1.0  0.27900  0.42400  0.45100  1.0000
  Cs  Cs9       1.0  0.72100  0.57600  0.54900  1.0000
  Cs  Cs10      1.0  0.16100  0.08100  0.56700  1.0000
  Cs  Cs11      1.0  0.63800  0.12200  0.64200  1.0000
  Cs  Cs12      1.0  0.12800  0.61100  0.66700  1.0000
  Cs  Cs13      1.0  0.47100  0.31900  0.82700  1.0000
  Cs  Cs14      1.0  0.89600  0.81200  0.87300  1.0000
  Cs  Cs15      1.0  0.27100  0.96500  0.93200  1.0000
  Cs  Cs16      1.0  0.74000  0.47600  0.95500  1.0000
  O   O1        1.0  0.48200  0.25400  0.07960  1.0000
  O   O2        1.0  0.09670  0.93100  0.18300  1.0000
  O   O3        1.0  0.54300  0.42700  0.21100  1.0000
  O   O4        1.0  0.73200  0.78900  0.29900  1.0000
  O   O5        1.0  0.21200  0.25300  0.30900  1.0000
  O   O6        1.0  0.11200  0.68300  0.41400  1.0000
  O   O7        1.0  0.88800  0.31700  0.58600  1.0000
  O   O8        1.0  0.78800  0.74700  0.69100  1.0000
  O   O9        1.0  0.26800  0.21100  0.70100  1.0000
  O   O10       1.0  0.45700  0.57300  0.78900  1.0000
  O   O11       1.0  0.90300  0.06930  0.81700  1.0000
  O   O12       1.0  0.51800  0.74600  0.92000  1.0000
  Sn  Sn1       1.0  0.00868  0.75100  0.24600  1.0000
  Sn  Sn2       1.0  0.49300  0.24300  0.25500  1.0000
  Sn  Sn3       1.0  0.50700  0.75700  0.74500  1.0000
  Sn  Sn4       1.0  0.99100  0.24900  0.75400  1.0000
