data_image0
_chemical_formula_structural       In4O10Sr4
_chemical_formula_sum              "In4 O10 Sr4"
_cell_length_a       5.83901
_cell_length_b       6.07699
_cell_length_c       8.95828
_cell_angle_alpha    109.827
_cell_angle_beta     109.02
_cell_angle_gamma    90

_space_group_name_H-M_alt    "P 1"
_space_group_IT_number       1

loop_
  _space_group_symop_operation_xyz
  'x, y, z'

loop_
  _atom_site_type_symbol
  _atom_site_label
  _atom_site_symmetry_multiplicity
  _atom_site_fract_x
  _atom_site_fract_y
  _atom_site_fract_z
  _atom_site_occupancy
  In  In1       1.0  0.00144  0.00000  0.00000  1.0000
  In  In2       1.0  0.50100  0.50000  0.00000  1.0000
  In  In3       1.0  0.29200  0.31200  0.50000  1.0000
  In  In4       1.0  0.79200  0.68800  0.50000  1.0000
  O   O1        1.0  0.27500  0.26200  0.03780  1.0000
  O   O2        1.0  0.77500  0.27600  0.03780  1.0000
  O   O3        1.0  0.09100  0.05560  0.27800  1.0000
  O   O4        1.0  0.59100  0.72200  0.27800  1.0000
  O   O5        1.0  0.65200  0.36500  0.50000  1.0000
  O   O6        1.0  0.15200  0.63500  0.50000  1.0000
  O   O7        1.0  0.31300  0.27800  0.72200  1.0000
  O   O8        1.0  0.81300  0.94400  0.72200  1.0000
  O   O9        1.0  0.73700  0.72400  0.96200  1.0000
  O   O10       1.0  0.23700  0.73800  0.96200  1.0000
  Sr  Sr1       1.0  0.62400  0.08330  0.21500  1.0000
  Sr  Sr2       1.0  0.12400  0.63200  0.21500  1.0000
  Sr  Sr3       1.0  0.90800  0.36800  0.78500  1.0000
  Sr  Sr4       1.0  0.40800  0.91700  0.78500  1.0000
