data_image0
_chemical_formula_structural       As2O5Rb2
_chemical_formula_sum              "As2 O5 Rb2"
_cell_length_a       5.59466
_cell_length_b       5.5711
_cell_length_c       6.97511
_cell_angle_alpha    58.2233
_cell_angle_beta     62.6919
_cell_angle_gamma    55.9962

_space_group_name_H-M_alt    "P 1"
_space_group_IT_number       1

loop_
  _space_group_symop_operation_xyz
  'x, y, z'

loop_
  _atom_site_type_symbol
  _atom_site_label
  _atom_site_symmetry_multiplicity
  _atom_site_fract_x
  _atom_site_fract_y
  _atom_site_fract_z
  _atom_site_occupancy
  As  As1       1.0  0.67900  0.66000  0.05030  1.0000
  As  As2       1.0  0.31900  0.33500  0.95800  1.0000
  O   O1        1.0  0.99300  0.59900  0.12800  1.0000
  O   O2        1.0  0.38700  0.00723  0.21600  1.0000
  O   O3        1.0  0.52600  0.54100  0.80700  1.0000
  O   O4        1.0  0.58300  0.03100  0.80900  1.0000
  O   O5        1.0  0.03290  0.45700  0.83700  1.0000
  Rb  Rb1       1.0  0.84300  0.90600  0.39100  1.0000
  Rb  Rb2       1.0  0.09710  0.11800  0.63800  1.0000
