data_image0
_chemical_formula_structural       Al23Ce4Ni6
_chemical_formula_sum              "Al23 Ce4 Ni6"
_cell_length_a       4.14465
_cell_length_b       8.33919
_cell_length_c       17.1472
_cell_angle_alpha    90.8445
_cell_angle_beta     96.9415
_cell_angle_gamma    104.389

_space_group_name_H-M_alt    "P 1"
_space_group_IT_number       1

loop_
  _space_group_symop_operation_xyz
  'x, y, z'

loop_
  _atom_site_type_symbol
  _atom_site_label
  _atom_site_symmetry_multiplicity
  _atom_site_fract_x
  _atom_site_fract_y
  _atom_site_fract_z
  _atom_site_occupancy
  Al  Al1       1.0  0.00000  0.00000  0.00000  1.0000
  Al  Al2       1.0  0.81700  0.61300  0.02170  1.0000
  Al  Al3       1.0  0.47000  0.84500  0.09550  1.0000
  Al  Al4       1.0  0.89800  0.62000  0.17600  1.0000
  Al  Al5       1.0  0.10500  0.02310  0.18800  1.0000
  Al  Al6       1.0  0.31300  0.40200  0.22300  1.0000
  Al  Al7       1.0  0.75200  0.22000  0.28300  1.0000
  Al  Al8       1.0  0.94800  0.55500  0.34100  1.0000
  Al  Al9       1.0  0.21600  0.07310  0.36000  1.0000
  Al  Al10      1.0  0.87100  0.30200  0.44000  1.0000
  Al  Al11      1.0  0.54200  0.63200  0.45300  1.0000
  Al  Al12      1.0  0.71000  0.96500  0.45500  1.0000
  Al  Al13      1.0  0.29000  0.03500  0.54500  1.0000
  Al  Al14      1.0  0.45800  0.36800  0.54700  1.0000
  Al  Al15      1.0  0.12900  0.69800  0.56000  1.0000
  Al  Al16      1.0  0.78400  0.92700  0.64000  1.0000
  Al  Al17      1.0  0.05180  0.44500  0.65900  1.0000
  Al  Al18      1.0  0.24800  0.78000  0.71700  1.0000
  Al  Al19      1.0  0.68700  0.59800  0.77700  1.0000
  Al  Al20      1.0  0.89500  0.97700  0.81200  1.0000
  Al  Al21      1.0  0.10200  0.38000  0.82400  1.0000
  Al  Al22      1.0  0.53000  0.15500  0.90400  1.0000
  Al  Al23      1.0  0.18300  0.38700  0.97800  1.0000
  Ce  Ce1       1.0  0.66300  0.23300  0.09370  1.0000
  Ce  Ce2       1.0  0.54700  0.81200  0.28200  1.0000
  Ce  Ce3       1.0  0.45300  0.18800  0.71800  1.0000
  Ce  Ce4       1.0  0.33700  0.76700  0.90600  1.0000
  Ni  Ni1       1.0  0.32900  0.55500  0.10200  1.0000
  Ni  Ni2       1.0  0.37400  0.38200  0.36700  1.0000
  Ni  Ni3       1.0  0.12400  0.81300  0.43400  1.0000
  Ni  Ni4       1.0  0.87600  0.18700  0.56600  1.0000
  Ni  Ni5       1.0  0.62600  0.61800  0.63300  1.0000
  Ni  Ni6       1.0  0.67100  0.44500  0.89800  1.0000
