data_image0
_chemical_formula_structural       Cd2Lu2O5
_chemical_formula_sum              "Cd2 Lu2 O5"
_cell_length_a       7.18528
_cell_length_b       4.16945
_cell_length_c       4.16945
_cell_angle_alpha    90
_cell_angle_beta     90
_cell_angle_gamma    90

_space_group_name_H-M_alt    "P 1"
_space_group_IT_number       1

loop_
  _space_group_symop_operation_xyz
  'x, y, z'

loop_
  _atom_site_type_symbol
  _atom_site_label
  _atom_site_symmetry_multiplicity
  _atom_site_fract_x
  _atom_site_fract_y
  _atom_site_fract_z
  _atom_site_occupancy
  Cd  Cd1       1.0  0.20300  0.50000  0.50000  1.0000
  Cd  Cd2       1.0  0.79700  0.50000  0.50000  1.0000
  Lu  Lu1       1.0  0.00000  0.00000  0.00000  1.0000
  Lu  Lu2       1.0  0.50000  0.00000  0.00000  1.0000
  O   O1        1.0  0.19200  0.50000  0.00000  1.0000
  O   O2        1.0  0.80800  0.50000  0.00000  1.0000
  O   O3        1.0  0.19200  0.00000  0.50000  1.0000
  O   O4        1.0  0.80800  0.00000  0.50000  1.0000
  O   O5        1.0  0.50000  0.50000  0.50000  1.0000
