data_image0
_chemical_formula_structural       Al23Ni6Yb4
_chemical_formula_sum              "Al23 Ni6 Yb4"
_cell_length_a       4.0804
_cell_length_b       8.22565
_cell_length_c       16.9729
_cell_angle_alpha    91.4607
_cell_angle_beta     96.9038
_cell_angle_gamma    104.361

_space_group_name_H-M_alt    "P 1"
_space_group_IT_number       1

loop_
  _space_group_symop_operation_xyz
  'x, y, z'

loop_
  _atom_site_type_symbol
  _atom_site_label
  _atom_site_symmetry_multiplicity
  _atom_site_fract_x
  _atom_site_fract_y
  _atom_site_fract_z
  _atom_site_occupancy
  Al  Al1       1.0  0.79100  0.53600  0.04680  1.0000
  Al  Al2       1.0  0.96000  0.87000  0.04980  1.0000
  Al  Al3       1.0  0.62900  0.19600  0.06100  1.0000
  Al  Al4       1.0  0.28800  0.43200  0.14300  1.0000
  Al  Al5       1.0  0.55300  0.94400  0.16300  1.0000
  Al  Al6       1.0  0.75200  0.28400  0.21900  1.0000
  Al  Al7       1.0  0.18800  0.09610  0.27900  1.0000
  Al  Al8       1.0  0.39400  0.47400  0.31300  1.0000
  Al  Al9       1.0  0.59600  0.86800  0.32400  1.0000
  Al  Al10      1.0  0.02580  0.64700  0.40500  1.0000
  Al  Al11      1.0  0.68100  0.88200  0.47900  1.0000
  Al  Al12      1.0  0.50000  0.50000  0.50000  1.0000
  Al  Al13      1.0  0.31900  0.11800  0.52100  1.0000
  Al  Al14      1.0  0.97400  0.35300  0.59500  1.0000
  Al  Al15      1.0  0.40400  0.13200  0.67600  1.0000
  Al  Al16      1.0  0.60600  0.52600  0.68700  1.0000
  Al  Al17      1.0  0.81200  0.90400  0.72100  1.0000
  Al  Al18      1.0  0.24800  0.71600  0.78100  1.0000
  Al  Al19      1.0  0.44700  0.05610  0.83700  1.0000
  Al  Al20      1.0  0.71200  0.56800  0.85700  1.0000
  Al  Al21      1.0  0.37100  0.80400  0.93900  1.0000
  Al  Al22      1.0  0.04020  0.13000  0.95000  1.0000
  Al  Al23      1.0  0.20900  0.46400  0.95300  1.0000
  Ni  Ni1       1.0  0.37800  0.68900  0.06710  1.0000
  Ni  Ni2       1.0  0.12800  0.12100  0.13500  1.0000
  Ni  Ni3       1.0  0.17000  0.94200  0.39800  1.0000
  Ni  Ni4       1.0  0.83000  0.05770  0.60200  1.0000
  Ni  Ni5       1.0  0.87200  0.87900  0.86500  1.0000
  Ni  Ni6       1.0  0.62200  0.31100  0.93300  1.0000
  Yb  Yb1       1.0  0.95400  0.69200  0.21700  1.0000
  Yb  Yb2       1.0  0.82900  0.25100  0.40700  1.0000
  Yb  Yb3       1.0  0.17100  0.74900  0.59300  1.0000
  Yb  Yb4       1.0  0.04560  0.30800  0.78300  1.0000
