data_image0
_chemical_formula_structural       Li14O14Pr3Rb2
_chemical_formula_sum              "Li14 O14 Pr3 Rb2"
_cell_length_a       7.42073
_cell_length_b       8.17346
_cell_length_c       8.66364
_cell_angle_alpha    118.145
_cell_angle_beta     115.358
_cell_angle_gamma    90

_space_group_name_H-M_alt    "P 1"
_space_group_IT_number       1

loop_
  _space_group_symop_operation_xyz
  'x, y, z'

loop_
  _atom_site_type_symbol
  _atom_site_label
  _atom_site_symmetry_multiplicity
  _atom_site_fract_x
  _atom_site_fract_y
  _atom_site_fract_z
  _atom_site_occupancy
  Li  Li1       1.0  0.50000  0.15800  0.00000  1.0000
  Li  Li2       1.0  0.50000  0.84200  0.00000  1.0000
  Li  Li3       1.0  0.40700  0.28800  0.26300  1.0000
  Li  Li4       1.0  0.85600  0.28800  0.26300  1.0000
  Li  Li5       1.0  0.40700  0.97500  0.26300  1.0000
  Li  Li6       1.0  0.85600  0.97500  0.26300  1.0000
  Li  Li7       1.0  0.23400  0.58900  0.46700  1.0000
  Li  Li8       1.0  0.23400  0.87900  0.46700  1.0000
  Li  Li9       1.0  0.76600  0.12100  0.53300  1.0000
  Li  Li10      1.0  0.76600  0.41100  0.53300  1.0000
  Li  Li11      1.0  0.14400  0.02500  0.73700  1.0000
  Li  Li12      1.0  0.59300  0.02500  0.73700  1.0000
  Li  Li13      1.0  0.14400  0.71200  0.73700  1.0000
  Li  Li14      1.0  0.59300  0.71200  0.73700  1.0000
  O   O1        1.0  0.30600  0.00000  0.00000  1.0000
  O   O2        1.0  0.69400  0.00000  0.00000  1.0000
  O   O3        1.0  0.62300  0.39900  0.24700  1.0000
  O   O4        1.0  0.62300  0.84800  0.24700  1.0000
  O   O5        1.0  0.13100  0.32800  0.26200  1.0000
  O   O6        1.0  0.13100  0.93400  0.26200  1.0000
  O   O7        1.0  0.54500  0.24100  0.48200  1.0000
  O   O8        1.0  0.93700  0.24100  0.48200  1.0000
  O   O9        1.0  0.06290  0.75900  0.51800  1.0000
  O   O10       1.0  0.45500  0.75900  0.51800  1.0000
  O   O11       1.0  0.86900  0.06630  0.73800  1.0000
  O   O12       1.0  0.86900  0.67200  0.73800  1.0000
  O   O13       1.0  0.37700  0.15200  0.75300  1.0000
  O   O14       1.0  0.37700  0.60100  0.75300  1.0000
  Pr  Pr1       1.0  0.00000  0.00000  0.00000  1.0000
  Pr  Pr2       1.0  0.72700  0.72700  0.45400  1.0000
  Pr  Pr3       1.0  0.27300  0.27300  0.54600  1.0000
  Rb  Rb1       1.0  0.23000  0.50000  0.00000  1.0000
  Rb  Rb2       1.0  0.77000  0.50000  0.00000  1.0000
