data_image0
_chemical_formula_structural       Al23Gd4Ni6
_chemical_formula_sum              "Al23 Gd4 Ni6"
_cell_length_a       4.08324
_cell_length_b       8.19121
_cell_length_c       16.9896
_cell_angle_alpha    90.8732
_cell_angle_beta     96.9018
_cell_angle_gamma    104.433

_space_group_name_H-M_alt    "P 1"
_space_group_IT_number       1

loop_
  _space_group_symop_operation_xyz
  'x, y, z'

loop_
  _atom_site_type_symbol
  _atom_site_label
  _atom_site_symmetry_multiplicity
  _atom_site_fract_x
  _atom_site_fract_y
  _atom_site_fract_z
  _atom_site_occupancy
  Al  Al1       1.0  0.79000  0.53400  0.04650  1.0000
  Al  Al2       1.0  0.96100  0.87100  0.05070  1.0000
  Al  Al3       1.0  0.62600  0.19300  0.05970  1.0000
  Al  Al4       1.0  0.28700  0.43100  0.14300  1.0000
  Al  Al5       1.0  0.55300  0.94200  0.16300  1.0000
  Al  Al6       1.0  0.75100  0.28300  0.21900  1.0000
  Al  Al7       1.0  0.19000  0.09910  0.28100  1.0000
  Al  Al8       1.0  0.39500  0.47600  0.31400  1.0000
  Al  Al9       1.0  0.59900  0.87400  0.32400  1.0000
  Al  Al10      1.0  0.02750  0.65000  0.40500  1.0000
  Al  Al11      1.0  0.68000  0.88100  0.48000  1.0000
  Al  Al12      1.0  0.50000  0.50000  0.50000  1.0000
  Al  Al13      1.0  0.32000  0.11900  0.52000  1.0000
  Al  Al14      1.0  0.97300  0.35000  0.59500  1.0000
  Al  Al15      1.0  0.40100  0.12600  0.67600  1.0000
  Al  Al16      1.0  0.60500  0.52400  0.68600  1.0000
  Al  Al17      1.0  0.81000  0.90100  0.71900  1.0000
  Al  Al18      1.0  0.24900  0.71700  0.78100  1.0000
  Al  Al19      1.0  0.44700  0.05760  0.83700  1.0000
  Al  Al20      1.0  0.71300  0.56900  0.85700  1.0000
  Al  Al21      1.0  0.37400  0.80700  0.94000  1.0000
  Al  Al22      1.0  0.03930  0.12900  0.94900  1.0000
  Al  Al23      1.0  0.21000  0.46600  0.95300  1.0000
  Gd  Gd1       1.0  0.95300  0.68700  0.21900  1.0000
  Gd  Gd2       1.0  0.83500  0.26300  0.40600  1.0000
  Gd  Gd3       1.0  0.16500  0.73700  0.59400  1.0000
  Gd  Gd4       1.0  0.04690  0.31300  0.78100  1.0000
  Ni  Ni1       1.0  0.37800  0.68900  0.06790  1.0000
  Ni  Ni2       1.0  0.12900  0.12100  0.13700  1.0000
  Ni  Ni3       1.0  0.17200  0.94400  0.39900  1.0000
  Ni  Ni4       1.0  0.82800  0.05580  0.60100  1.0000
  Ni  Ni5       1.0  0.87100  0.87900  0.86300  1.0000
  Ni  Ni6       1.0  0.62200  0.31100  0.93200  1.0000
