data_image0
_chemical_formula_structural       Eu2O5Sb2
_chemical_formula_sum              "Eu2 O5 Sb2"
_cell_length_a       5.78479
_cell_length_b       6.2265
_cell_length_c       5.82949
_cell_angle_alpha    60.3197
_cell_angle_beta     63.6973
_cell_angle_gamma    56.5219

_space_group_name_H-M_alt    "P 1"
_space_group_IT_number       1

loop_
  _space_group_symop_operation_xyz
  'x, y, z'

loop_
  _atom_site_type_symbol
  _atom_site_label
  _atom_site_symmetry_multiplicity
  _atom_site_fract_x
  _atom_site_fract_y
  _atom_site_fract_z
  _atom_site_occupancy
  Eu  Eu1       1.0  0.87000  0.85700  0.40000  1.0000
  Eu  Eu2       1.0  0.06850  0.14200  0.63500  1.0000
  O   O1        1.0  0.26500  0.98700  0.21900  1.0000
  O   O2        1.0  0.00287  0.52900  0.22800  1.0000
  O   O3        1.0  0.47800  0.76900  0.73200  1.0000
  O   O4        1.0  0.08680  0.45600  0.74700  1.0000
  O   O5        1.0  0.73300  0.97500  0.79800  1.0000
  Sb  Sb1       1.0  0.62300  0.66500  0.04950  1.0000
  Sb  Sb2       1.0  0.34400  0.33300  0.96800  1.0000
