data_image0
_chemical_formula_structural       O5Ti2Yb2
_chemical_formula_sum              "O5 Ti2 Yb2"
_cell_length_a       5.14908
_cell_length_b       5.34096
_cell_length_c       5.78767
_cell_angle_alpha    62.6974
_cell_angle_beta     62.865
_cell_angle_gamma    59.0136

_space_group_name_H-M_alt    "P 1"
_space_group_IT_number       1

loop_
  _space_group_symop_operation_xyz
  'x, y, z'

loop_
  _atom_site_type_symbol
  _atom_site_label
  _atom_site_symmetry_multiplicity
  _atom_site_fract_x
  _atom_site_fract_y
  _atom_site_fract_z
  _atom_site_occupancy
  O   O1        1.0  0.17700  0.00842  0.25600  1.0000
  O   O2        1.0  0.00866  0.57100  0.25700  1.0000
  O   O3        1.0  0.43900  0.80700  0.72400  1.0000
  O   O4        1.0  0.81100  0.99800  0.74400  1.0000
  O   O5        1.0  0.00756  0.41900  0.74800  1.0000
  Ti  Ti1       1.0  0.85600  0.84000  0.46700  1.0000
  Ti  Ti2       1.0  0.14700  0.15600  0.54300  1.0000
  Yb  Yb1       1.0  0.62500  0.64000  0.09690  1.0000
  Yb  Yb2       1.0  0.36500  0.37000  0.89600  1.0000
