data_image0
_chemical_formula_structural       Al23Ni6Sm4
_chemical_formula_sum              "Al23 Ni6 Sm4"
_cell_length_a       4.10546
_cell_length_b       8.2413
_cell_length_c       17.0345
_cell_angle_alpha    90.8715
_cell_angle_beta     96.9212
_cell_angle_gamma    104.423

_space_group_name_H-M_alt    "P 1"
_space_group_IT_number       1

loop_
  _space_group_symop_operation_xyz
  'x, y, z'

loop_
  _atom_site_type_symbol
  _atom_site_label
  _atom_site_symmetry_multiplicity
  _atom_site_fract_x
  _atom_site_fract_y
  _atom_site_fract_z
  _atom_site_occupancy
  Al  Al1       1.0  0.79000  0.53500  0.04590  1.0000
  Al  Al2       1.0  0.96000  0.87000  0.04960  1.0000
  Al  Al3       1.0  0.62700  0.19500  0.05980  1.0000
  Al  Al4       1.0  0.28700  0.43100  0.14200  1.0000
  Al  Al5       1.0  0.55200  0.94300  0.16200  1.0000
  Al  Al6       1.0  0.75000  0.28200  0.21800  1.0000
  Al  Al7       1.0  0.18900  0.09920  0.28000  1.0000
  Al  Al8       1.0  0.39500  0.47700  0.31400  1.0000
  Al  Al9       1.0  0.60000  0.87600  0.32400  1.0000
  Al  Al10      1.0  0.02820  0.65200  0.40500  1.0000
  Al  Al11      1.0  0.68100  0.88400  0.47900  1.0000
  Al  Al12      1.0  0.50000  0.50000  0.50000  1.0000
  Al  Al13      1.0  0.31900  0.11600  0.52100  1.0000
  Al  Al14      1.0  0.97200  0.34800  0.59500  1.0000
  Al  Al15      1.0  0.40000  0.12400  0.67600  1.0000
  Al  Al16      1.0  0.60500  0.52300  0.68600  1.0000
  Al  Al17      1.0  0.81100  0.90100  0.72000  1.0000
  Al  Al18      1.0  0.25000  0.71800  0.78200  1.0000
  Al  Al19      1.0  0.44800  0.05670  0.83800  1.0000
  Al  Al20      1.0  0.71300  0.56900  0.85800  1.0000
  Al  Al21      1.0  0.37300  0.80500  0.94000  1.0000
  Al  Al22      1.0  0.04020  0.13000  0.95000  1.0000
  Al  Al23      1.0  0.21000  0.46500  0.95400  1.0000
  Ni  Ni1       1.0  0.37800  0.68800  0.06730  1.0000
  Ni  Ni2       1.0  0.12800  0.12000  0.13600  1.0000
  Ni  Ni3       1.0  0.17200  0.94500  0.39800  1.0000
  Ni  Ni4       1.0  0.82800  0.05530  0.60200  1.0000
  Ni  Ni5       1.0  0.87200  0.88000  0.86400  1.0000
  Ni  Ni6       1.0  0.62200  0.31200  0.93300  1.0000
  Sm  Sm1       1.0  0.95300  0.68900  0.21800  1.0000
  Sm  Sm2       1.0  0.83600  0.26500  0.40700  1.0000
  Sm  Sm3       1.0  0.16400  0.73500  0.59300  1.0000
  Sm  Sm4       1.0  0.04650  0.31100  0.78200  1.0000
