data_image0
_chemical_formula_structural       BF22K3Na4Si3
_chemical_formula_sum              "B1 F22 K3 Na4 Si3"
_cell_length_a       5.33902
_cell_length_b       8.77532
_cell_length_c       9.74977
_cell_angle_alpha    116.745
_cell_angle_beta     105.891
_cell_angle_gamma    90

_space_group_name_H-M_alt    "P 1"
_space_group_IT_number       1

loop_
  _space_group_symop_operation_xyz
  'x, y, z'

loop_
  _atom_site_type_symbol
  _atom_site_label
  _atom_site_symmetry_multiplicity
  _atom_site_fract_x
  _atom_site_fract_y
  _atom_site_fract_z
  _atom_site_occupancy
  B   B1        1.0  0.50000  0.19200  0.00000  1.0000
  F   F1        1.0  0.28300  0.28400  0.00000  1.0000
  F   F2        1.0  0.71700  0.28400  0.00000  1.0000
  F   F3        1.0  0.00000  0.59900  0.00000  1.0000
  F   F4        1.0  0.00000  0.98800  0.00000  1.0000
  F   F5        1.0  0.57000  0.17300  0.14000  1.0000
  F   F6        1.0  0.29500  0.86200  0.14600  1.0000
  F   F7        1.0  0.85100  0.86200  0.14600  1.0000
  F   F8        1.0  0.41000  0.60400  0.27400  1.0000
  F   F9        1.0  0.86400  0.60400  0.27400  1.0000
  F   F10       1.0  0.70000  0.87400  0.40100  1.0000
  F   F11       1.0  0.44400  0.21800  0.43800  1.0000
  F   F12       1.0  0.99400  0.21800  0.43800  1.0000
  F   F13       1.0  0.71900  0.50700  0.43900  1.0000
  F   F14       1.0  0.28100  0.06830  0.56100  1.0000
  F   F15       1.0  0.00568  0.78000  0.56200  1.0000
  F   F16       1.0  0.55600  0.78000  0.56200  1.0000
  F   F17       1.0  0.30000  0.47400  0.59900  1.0000
  F   F18       1.0  0.13600  0.33000  0.72600  1.0000
  F   F19       1.0  0.59000  0.33000  0.72600  1.0000
  F   F20       1.0  0.14900  0.71600  0.85400  1.0000
  F   F21       1.0  0.70500  0.71600  0.85400  1.0000
  F   F22       1.0  0.43000  0.03240  0.86000  1.0000
  K   K1        1.0  0.50000  0.55800  0.00000  1.0000
  K   K2        1.0  0.12700  0.34000  0.25400  1.0000
  K   K3        1.0  0.87300  0.08610  0.74600  1.0000
  Na  Na1       1.0  0.64300  0.04350  0.28700  1.0000
  Na  Na2       1.0  0.17300  0.82100  0.34500  1.0000
  Na  Na3       1.0  0.82700  0.47600  0.65500  1.0000
  Na  Na4       1.0  0.35700  0.75600  0.71300  1.0000
  Si  Si1       1.0  0.00000  0.79600  0.00000  1.0000
  Si  Si2       1.0  0.70900  0.68700  0.41800  1.0000
  Si  Si3       1.0  0.29100  0.27000  0.58200  1.0000
