data_image0
_chemical_formula_structural       Co4F4Fe4O16P4
_chemical_formula_sum              "Co4 F4 Fe4 O16 P4"
_cell_length_a       6.39995
_cell_length_b       7.22624
_cell_length_c       9.34075
_cell_angle_alpha    91.3182
_cell_angle_beta     110.034
_cell_angle_gamma    116.284

_space_group_name_H-M_alt    "P 1"
_space_group_IT_number       1

loop_
  _space_group_symop_operation_xyz
  'x, y, z'

loop_
  _atom_site_type_symbol
  _atom_site_label
  _atom_site_symmetry_multiplicity
  _atom_site_fract_x
  _atom_site_fract_y
  _atom_site_fract_z
  _atom_site_occupancy
  Co  Co1       1.0  0.31400  0.21100  0.22200  1.0000
  Co  Co2       1.0  0.19600  0.55000  0.37000  1.0000
  Co  Co3       1.0  0.61900  0.71100  0.72200  1.0000
  Co  Co4       1.0  0.22300  0.05000  0.87000  1.0000
  F   F1        1.0  0.29000  0.31400  0.00426  1.0000
  F   F2        1.0  0.49200  0.53800  0.29200  1.0000
  F   F3        1.0  0.52800  0.81400  0.50400  1.0000
  F   F4        1.0  0.83800  0.03790  0.79200  1.0000
  Fe  Fe1       1.0  0.42000  0.62100  0.00000  1.0000
  Fe  Fe2       1.0  0.84900  0.77500  0.35800  1.0000
  Fe  Fe3       1.0  0.70100  0.12100  0.50000  1.0000
  Fe  Fe4       1.0  0.78400  0.27500  0.85800  1.0000
  O   O1        1.0  0.60200  0.13600  0.00088  1.0000
  O   O2        1.0  0.15300  0.93400  0.06100  1.0000
  O   O3        1.0  0.66800  0.88600  0.17000  1.0000
  O   O4        1.0  0.99100  0.67100  0.22100  1.0000
  O   O5        1.0  0.02310  0.25800  0.22500  1.0000
  O   O6        1.0  0.64900  0.20300  0.28100  1.0000
  O   O7        1.0  0.35700  0.12400  0.43900  1.0000
  O   O8        1.0  0.98500  0.05690  0.49900  1.0000
  O   O9        1.0  0.03560  0.63600  0.50100  1.0000
  O   O10       1.0  0.34200  0.43400  0.56100  1.0000
  O   O11       1.0  0.88800  0.38600  0.67000  1.0000
  O   O12       1.0  0.40100  0.17100  0.72100  1.0000
  O   O13       1.0  0.96000  0.75800  0.72500  1.0000
  O   O14       1.0  0.33400  0.70300  0.78100  1.0000
  O   O15       1.0  0.70600  0.62400  0.93900  1.0000
  O   O16       1.0  0.07010  0.55700  0.99900  1.0000
  P   P1        1.0  0.98200  0.70100  0.05630  1.0000
  P   P2        1.0  0.73200  0.11900  0.16800  1.0000
  P   P3        1.0  0.27600  0.20100  0.55600  1.0000
  P   P4        1.0  0.05460  0.61900  0.66800  1.0000
