data_image0
_chemical_formula_structural       Cu2S2Yb
_chemical_formula_sum              "Cu2 S2 Yb1"
_cell_length_a       3.88081
_cell_length_b       3.8808
_cell_length_c       6.32944
_cell_angle_alpha    89.9993
_cell_angle_beta     90.0007
_cell_angle_gamma    119.999

_space_group_name_H-M_alt    "P 1"
_space_group_IT_number       1

loop_
  _space_group_symop_operation_xyz
  'x, y, z'

loop_
  _atom_site_type_symbol
  _atom_site_label
  _atom_site_symmetry_multiplicity
  _atom_site_fract_x
  _atom_site_fract_y
  _atom_site_fract_z
  _atom_site_occupancy
  Cu  Cu1       1.0  0.33300  0.66700  0.37100  1.0000
  Cu  Cu2       1.0  0.66700  0.33300  0.62900  1.0000
  S   S1        1.0  0.66700  0.33300  0.25100  1.0000
  S   S2        1.0  0.33300  0.66700  0.74900  1.0000
  Yb  Yb1       1.0  0.00000  0.00000  0.00000  1.0000
