data_image0
_chemical_formula_structural       Ba9O18Sb6
_chemical_formula_sum              "Ba9 O18 Sb6"
_cell_length_a       6.16336
_cell_length_b       9.81005
_cell_length_c       12.1221
_cell_angle_alpha    74.262
_cell_angle_beta     89.6164
_cell_angle_gamma    71.3383

_space_group_name_H-M_alt    "P 1"
_space_group_IT_number       1

loop_
  _space_group_symop_operation_xyz
  'x, y, z'

loop_
  _atom_site_type_symbol
  _atom_site_label
  _atom_site_symmetry_multiplicity
  _atom_site_fract_x
  _atom_site_fract_y
  _atom_site_fract_z
  _atom_site_occupancy
  Ba  Ba1       1.0  0.59900  0.79300  0.05610  1.0000
  Ba  Ba2       1.0  0.12700  0.72600  0.28700  1.0000
  Ba  Ba3       1.0  0.82800  0.39700  0.29600  1.0000
  Ba  Ba4       1.0  0.48200  0.03250  0.30000  1.0000
  Ba  Ba5       1.0  0.00000  0.00000  0.50000  1.0000
  Ba  Ba6       1.0  0.51800  0.96800  0.70000  1.0000
  Ba  Ba7       1.0  0.17200  0.60300  0.70400  1.0000
  Ba  Ba8       1.0  0.87300  0.27400  0.71300  1.0000
  Ba  Ba9       1.0  0.40100  0.20700  0.94400  1.0000
  O   O1        1.0  0.77100  0.96400  0.13600  1.0000
  O   O2        1.0  0.33100  0.29200  0.15100  1.0000
  O   O3        1.0  0.25700  0.95500  0.15200  1.0000
  O   O4        1.0  0.98300  0.58500  0.15400  1.0000
  O   O5        1.0  0.44700  0.56700  0.17600  1.0000
  O   O6        1.0  0.91700  0.11200  0.28000  1.0000
  O   O7        1.0  0.71700  0.67700  0.35000  1.0000
  O   O8        1.0  0.27600  0.16300  0.47500  1.0000
  O   O9        1.0  0.31600  0.74400  0.48900  1.0000
  O   O10       1.0  0.68400  0.25600  0.51100  1.0000
  O   O11       1.0  0.72400  0.83700  0.52500  1.0000
  O   O12       1.0  0.28300  0.32300  0.65000  1.0000
  O   O13       1.0  0.08350  0.88800  0.72000  1.0000
  O   O14       1.0  0.55300  0.43300  0.82400  1.0000
  O   O15       1.0  0.01740  0.41500  0.84600  1.0000
  O   O16       1.0  0.74300  0.04550  0.84800  1.0000
  O   O17       1.0  0.66900  0.70800  0.84900  1.0000
  O   O18       1.0  0.22900  0.03640  0.86400  1.0000
  Sb  Sb1       1.0  0.25900  0.50800  0.07750  1.0000
  Sb  Sb2       1.0  0.94600  0.10400  0.11900  1.0000
  Sb  Sb3       1.0  0.34500  0.34100  0.49000  1.0000
  Sb  Sb4       1.0  0.65500  0.65900  0.51000  1.0000
  Sb  Sb5       1.0  0.05440  0.89600  0.88100  1.0000
  Sb  Sb6       1.0  0.74100  0.49200  0.92200  1.0000
