data_image0
_chemical_formula_structural       F6V2
_chemical_formula_sum              "F6 V2"
_cell_length_a       5.21042
_cell_length_b       5.21042
_cell_length_c       5.21043
_cell_angle_alpha    54.0585
_cell_angle_beta     54.0585
_cell_angle_gamma    54.0585

_space_group_name_H-M_alt    "P 1"
_space_group_IT_number       1

loop_
  _space_group_symop_operation_xyz
  'x, y, z'

loop_
  _atom_site_type_symbol
  _atom_site_label
  _atom_site_symmetry_multiplicity
  _atom_site_fract_x
  _atom_site_fract_y
  _atom_site_fract_z
  _atom_site_occupancy
  F   F1        1.0  0.41100  0.75000  0.08910  1.0000
  F   F2        1.0  0.91100  0.58900  0.25000  1.0000
  F   F3        1.0  0.75000  0.08910  0.41100  1.0000
  F   F4        1.0  0.25000  0.91100  0.58900  1.0000
  F   F5        1.0  0.08910  0.41100  0.75000  1.0000
  F   F6        1.0  0.58900  0.25000  0.91100  1.0000
  V   V1        1.0  0.00000  0.00000  0.00000  1.0000
  V   V2        1.0  0.50000  0.50000  0.50000  1.0000
