data_image0
_chemical_formula_structural       Cu4O10Pr4
_chemical_formula_sum              "Cu4 O10 Pr4"
_cell_length_a       5.59158
_cell_length_b       10.1856
_cell_length_c       3.80093
_cell_angle_alpha    90
_cell_angle_beta     90
_cell_angle_gamma    90

_space_group_name_H-M_alt    "P 1"
_space_group_IT_number       1

loop_
  _space_group_symop_operation_xyz
  'x, y, z'

loop_
  _atom_site_type_symbol
  _atom_site_label
  _atom_site_symmetry_multiplicity
  _atom_site_fract_x
  _atom_site_fract_y
  _atom_site_fract_z
  _atom_site_occupancy
  Cu  Cu1       1.0  0.30900  0.09690  0.00000  1.0000
  Cu  Cu2       1.0  0.80900  0.40300  0.00000  1.0000
  Cu  Cu3       1.0  0.19100  0.59700  0.00000  1.0000
  Cu  Cu4       1.0  0.69100  0.90300  0.00000  1.0000
  O   O1        1.0  0.00000  0.00000  0.00000  1.0000
  O   O2        1.0  0.58300  0.21000  0.00000  1.0000
  O   O3        1.0  0.08320  0.29000  0.00000  1.0000
  O   O4        1.0  0.50000  0.50000  0.00000  1.0000
  O   O5        1.0  0.91700  0.71000  0.00000  1.0000
  O   O6        1.0  0.41700  0.79000  0.00000  1.0000
  O   O7        1.0  0.28100  0.09920  0.50000  1.0000
  O   O8        1.0  0.78100  0.40100  0.50000  1.0000
  O   O9        1.0  0.21900  0.59900  0.50000  1.0000
  O   O10       1.0  0.71900  0.90100  0.50000  1.0000
  Pr  Pr1       1.0  0.84200  0.14700  0.50000  1.0000
  Pr  Pr2       1.0  0.34200  0.35300  0.50000  1.0000
  Pr  Pr3       1.0  0.65800  0.64700  0.50000  1.0000
  Pr  Pr4       1.0  0.15800  0.85300  0.50000  1.0000
