data_image0
_chemical_formula_structural       Cl2Cu4O16Pb4Ru2Sr4
_chemical_formula_sum              "Cl2 Cu4 O16 Pb4 Ru2 Sr4"
_cell_length_a       5.28573
_cell_length_b       5.28573
_cell_length_c       14.0902
_cell_angle_alpha    90
_cell_angle_beta     90
_cell_angle_gamma    90

_space_group_name_H-M_alt    "P 1"
_space_group_IT_number       1

loop_
  _space_group_symop_operation_xyz
  'x, y, z'

loop_
  _atom_site_type_symbol
  _atom_site_label
  _atom_site_symmetry_multiplicity
  _atom_site_fract_x
  _atom_site_fract_y
  _atom_site_fract_z
  _atom_site_occupancy
  Cl  Cl1       1.0  0.00000  0.00000  0.50000  1.0000
  Cl  Cl2       1.0  0.50000  0.50000  0.50000  1.0000
  Cu  Cu1       1.0  0.00000  0.00000  0.27300  1.0000
  Cu  Cu2       1.0  0.50000  0.50000  0.27300  1.0000
  Cu  Cu3       1.0  0.00000  0.00000  0.72700  1.0000
  Cu  Cu4       1.0  0.50000  0.50000  0.72700  1.0000
  O   O1        1.0  0.68400  0.18400  0.00000  1.0000
  O   O2        1.0  0.18400  0.31600  0.00000  1.0000
  O   O3        1.0  0.81600  0.68400  0.00000  1.0000
  O   O4        1.0  0.31600  0.81600  0.00000  1.0000
  O   O5        1.0  0.00000  0.00000  0.13300  1.0000
  O   O6        1.0  0.50000  0.50000  0.13300  1.0000
  O   O7        1.0  0.74300  0.24300  0.27800  1.0000
  O   O8        1.0  0.24300  0.25700  0.27800  1.0000
  O   O9        1.0  0.75700  0.74300  0.27800  1.0000
  O   O10       1.0  0.25700  0.75700  0.27800  1.0000
  O   O11       1.0  0.74300  0.24300  0.72200  1.0000
  O   O12       1.0  0.24300  0.25700  0.72200  1.0000
  O   O13       1.0  0.75700  0.74300  0.72200  1.0000
  O   O14       1.0  0.25700  0.75700  0.72200  1.0000
  O   O15       1.0  0.00000  0.00000  0.86700  1.0000
  O   O16       1.0  0.50000  0.50000  0.86700  1.0000
  Pb  Pb1       1.0  0.50000  0.00000  0.38800  1.0000
  Pb  Pb2       1.0  0.00000  0.50000  0.38800  1.0000
  Pb  Pb3       1.0  0.50000  0.00000  0.61200  1.0000
  Pb  Pb4       1.0  0.00000  0.50000  0.61200  1.0000
  Ru  Ru1       1.0  0.00000  0.00000  0.00000  1.0000
  Ru  Ru2       1.0  0.50000  0.50000  0.00000  1.0000
  Sr  Sr1       1.0  0.50000  0.00000  0.15000  1.0000
  Sr  Sr2       1.0  0.00000  0.50000  0.15000  1.0000
  Sr  Sr3       1.0  0.50000  0.00000  0.85000  1.0000
  Sr  Sr4       1.0  0.00000  0.50000  0.85000  1.0000
