data_image0
_chemical_formula_structural       C15V18
_chemical_formula_sum              "C15 V18"
_cell_length_a       5.09098
_cell_length_b       5.09098
_cell_length_c       14.3366
_cell_angle_alpha    90
_cell_angle_beta     90
_cell_angle_gamma    120

_space_group_name_H-M_alt    "P 1"
_space_group_IT_number       1

loop_
  _space_group_symop_operation_xyz
  'x, y, z'

loop_
  _atom_site_type_symbol
  _atom_site_label
  _atom_site_symmetry_multiplicity
  _atom_site_fract_x
  _atom_site_fract_y
  _atom_site_fract_z
  _atom_site_occupancy
  C   C1        1.0  0.78100  0.56200  0.00000  1.0000
  C   C2        1.0  0.78100  0.21900  0.66700  1.0000
  C   C3        1.0  0.43800  0.21900  0.33300  1.0000
  C   C4        1.0  0.78500  0.89200  0.33300  1.0000
  C   C5        1.0  0.10800  0.89200  0.66700  1.0000
  C   C6        1.0  0.10800  0.21500  0.00000  1.0000
  C   C7        1.0  0.11100  0.55600  0.33300  1.0000
  C   C8        1.0  0.44400  0.55600  0.66700  1.0000
  C   C9        1.0  0.44400  0.88900  0.00000  1.0000
  C   C10       1.0  0.44500  0.55500  0.16700  1.0000
  C   C11       1.0  0.44500  0.89100  0.50000  1.0000
  C   C12       1.0  0.10900  0.55500  0.83300  1.0000
  C   C13       1.0  0.77900  0.22100  0.16700  1.0000
  C   C14       1.0  0.77900  0.55900  0.50000  1.0000
  C   C15       1.0  0.44100  0.22100  0.83300  1.0000
  V   V1        1.0  0.47200  0.88900  0.25100  1.0000
  V   V2        1.0  0.11100  0.58200  0.58400  1.0000
  V   V3        1.0  0.41800  0.52800  0.91800  1.0000
  V   V4        1.0  0.75100  0.52900  0.25200  1.0000
  V   V5        1.0  0.47100  0.22200  0.58500  1.0000
  V   V6        1.0  0.77800  0.24900  0.91800  1.0000
  V   V7        1.0  0.11100  0.24600  0.25700  1.0000
  V   V8        1.0  0.75400  0.86500  0.59000  1.0000
  V   V9        1.0  0.13500  0.88900  0.92300  1.0000
  V   V10       1.0  0.75400  0.88900  0.07650  1.0000
  V   V11       1.0  0.11100  0.86500  0.41000  1.0000
  V   V12       1.0  0.13500  0.24600  0.74300  1.0000
  V   V13       1.0  0.47100  0.24900  0.08130  1.0000
  V   V14       1.0  0.75100  0.22200  0.41500  1.0000
  V   V15       1.0  0.77800  0.52900  0.74800  1.0000
  V   V16       1.0  0.11100  0.52800  0.08200  1.0000
  V   V17       1.0  0.47200  0.58200  0.41500  1.0000
  V   V18       1.0  0.41800  0.88900  0.74900  1.0000
