data_image0
_chemical_formula_structural       C4F6H12N10Si
_chemical_formula_sum              "C4 F6 H12 N10 Si1"
_cell_length_a       5.97404
_cell_length_b       7.14189
_cell_length_c       7.23615
_cell_angle_alpha    96.2998
_cell_angle_beta     107.618
_cell_angle_gamma    110.086

_space_group_name_H-M_alt    "P 1"
_space_group_IT_number       1

loop_
  _space_group_symop_operation_xyz
  'x, y, z'

loop_
  _atom_site_type_symbol
  _atom_site_label
  _atom_site_symmetry_multiplicity
  _atom_site_fract_x
  _atom_site_fract_y
  _atom_site_fract_z
  _atom_site_occupancy
  C   C1        1.0  0.75700  0.09060  0.30500  1.0000
  C   C2        1.0  0.15800  0.28500  0.49800  1.0000
  C   C3        1.0  0.84200  0.71500  0.50200  1.0000
  C   C4        1.0  0.24300  0.90900  0.69500  1.0000
  F   F1        1.0  0.94200  0.71500  0.03390  1.0000
  F   F2        1.0  0.72700  0.36400  0.03860  1.0000
  F   F3        1.0  0.17200  0.55600  0.24900  1.0000
  F   F4        1.0  0.82800  0.44400  0.75100  1.0000
  F   F5        1.0  0.27300  0.63600  0.96100  1.0000
  F   F6        1.0  0.05850  0.28500  0.96600  1.0000
  H   H1        1.0  0.40900  0.87900  0.12200  1.0000
  H   H2        1.0  0.87900  0.90200  0.14200  1.0000
  H   H3        1.0  0.68400  0.49300  0.24300  1.0000
  H   H4        1.0  0.40100  0.07510  0.29200  1.0000
  H   H5        1.0  0.46900  0.55400  0.32600  1.0000
  H   H6        1.0  0.15400  0.67400  0.44400  1.0000
  H   H7        1.0  0.84600  0.32600  0.55600  1.0000
  H   H8        1.0  0.53100  0.44600  0.67400  1.0000
  H   H9        1.0  0.59900  0.92500  0.70800  1.0000
  H   H10       1.0  0.31600  0.50700  0.75700  1.0000
  H   H11       1.0  0.12100  0.09780  0.85800  1.0000
  H   H12       1.0  0.59100  0.12100  0.87800  1.0000
  N   N1        1.0  0.50400  0.01300  0.23000  1.0000
  N   N2        1.0  0.91800  0.03100  0.24500  1.0000
  N   N3        1.0  0.64900  0.55700  0.36000  1.0000
  N   N4        1.0  0.17200  0.14900  0.36700  1.0000
  N   N5        1.0  0.90700  0.25400  0.46200  1.0000
  N   N6        1.0  0.09310  0.74600  0.53800  1.0000
  N   N7        1.0  0.82800  0.85100  0.63300  1.0000
  N   N8        1.0  0.35100  0.44300  0.64000  1.0000
  N   N9        1.0  0.08200  0.96900  0.75500  1.0000
  N   N10       1.0  0.49600  0.98700  0.77000  1.0000
  Si  Si1       1.0  0.00000  0.50000  0.00000  1.0000
