data_image0
_chemical_formula_structural       H24Yb9
_chemical_formula_sum              "H24 Yb9"
_cell_length_a       6.5024
_cell_length_b       6.5024
_cell_length_c       9.05883
_cell_angle_alpha    89.9995
_cell_angle_beta     90.0003
_cell_angle_gamma    120

_space_group_name_H-M_alt    "P 1"
_space_group_IT_number       1

loop_
  _space_group_symop_operation_xyz
  'x, y, z'

loop_
  _atom_site_type_symbol
  _atom_site_label
  _atom_site_symmetry_multiplicity
  _atom_site_fract_x
  _atom_site_fract_y
  _atom_site_fract_z
  _atom_site_occupancy
  H   H1        1.0  0.66700  0.66700  0.05120  1.0000
  H   H2        1.0  0.33300  0.00000  0.05120  1.0000
  H   H3        1.0  0.00000  0.33300  0.05130  1.0000
  H   H4        1.0  0.66700  0.00000  0.06740  1.0000
  H   H5        1.0  0.33300  0.33300  0.06740  1.0000
  H   H6        1.0  0.00000  0.66700  0.06760  1.0000
  H   H7        1.0  0.00000  0.00000  0.24800  1.0000
  H   H8        1.0  0.33300  0.66700  0.24800  1.0000
  H   H9        1.0  0.66700  0.33300  0.24800  1.0000
  H   H10       1.0  0.66700  0.00000  0.41900  1.0000
  H   H11       1.0  0.33300  0.33300  0.41900  1.0000
  H   H12       1.0  0.00000  0.66700  0.41900  1.0000
  H   H13       1.0  0.00000  0.33300  0.58100  1.0000
  H   H14       1.0  0.66700  0.66700  0.58100  1.0000
  H   H15       1.0  0.33300  0.00000  0.58100  1.0000
  H   H16       1.0  0.33300  0.66700  0.75200  1.0000
  H   H17       1.0  0.66700  0.33300  0.75200  1.0000
  H   H18       1.0  0.00000  0.00000  0.75200  1.0000
  H   H19       1.0  0.00000  0.33300  0.93200  1.0000
  H   H20       1.0  0.66700  0.66700  0.93300  1.0000
  H   H21       1.0  0.33300  0.00000  0.93300  1.0000
  H   H22       1.0  0.00000  0.66700  0.94900  1.0000
  H   H23       1.0  0.33300  0.33300  0.94900  1.0000
  H   H24       1.0  0.66700  0.00000  0.94900  1.0000
  Yb  Yb1       1.0  0.00000  0.00000  0.00000  1.0000
  Yb  Yb2       1.0  0.66700  0.33300  0.00000  1.0000
  Yb  Yb3       1.0  0.33300  0.66700  0.00000  1.0000
  Yb  Yb4       1.0  0.00000  0.33300  0.33200  1.0000
  Yb  Yb5       1.0  0.66700  0.66700  0.33200  1.0000
  Yb  Yb6       1.0  0.33300  0.00000  0.33200  1.0000
  Yb  Yb7       1.0  0.66700  0.00000  0.66800  1.0000
  Yb  Yb8       1.0  0.33300  0.33300  0.66800  1.0000
  Yb  Yb9       1.0  0.00000  0.66700  0.66800  1.0000
