data_image0
_chemical_formula_structural       Na4Nb4S24
_chemical_formula_sum              "Na4 Nb4 S24"
_cell_length_a       8.52219
_cell_length_b       10.1734
_cell_length_c       10.1734
_cell_angle_alpha    132.39
_cell_angle_beta     94.3715
_cell_angle_gamma    94.3715

_space_group_name_H-M_alt    "P 1"
_space_group_IT_number       1

loop_
  _space_group_symop_operation_xyz
  'x, y, z'

loop_
  _atom_site_type_symbol
  _atom_site_label
  _atom_site_symmetry_multiplicity
  _atom_site_fract_x
  _atom_site_fract_y
  _atom_site_fract_z
  _atom_site_occupancy
  Na  Na1       1.0  0.74100  0.49700  0.05190  1.0000
  Na  Na2       1.0  0.24100  0.05190  0.49700  1.0000
  Na  Na3       1.0  0.75900  0.94800  0.50300  1.0000
  Na  Na4       1.0  0.25900  0.50300  0.94800  1.0000
  Nb  Nb1       1.0  0.05190  0.29500  0.23600  1.0000
  Nb  Nb2       1.0  0.55200  0.23600  0.29500  1.0000
  Nb  Nb3       1.0  0.44800  0.76400  0.70500  1.0000
  Nb  Nb4       1.0  0.94800  0.70500  0.76400  1.0000
  S   S1        1.0  0.56900  0.91300  0.03920  1.0000
  S   S2        1.0  0.93100  0.96100  0.08710  1.0000
  S   S3        1.0  0.53700  0.75700  0.09590  1.0000
  S   S4        1.0  0.05180  0.44900  0.12000  1.0000
  S   S5        1.0  0.76800  0.34000  0.21900  1.0000
  S   S6        1.0  0.96300  0.90400  0.24300  1.0000
  S   S7        1.0  0.46300  0.62800  0.29000  1.0000
  S   S8        1.0  0.26800  0.21900  0.34000  1.0000
  S   S9        1.0  0.38300  0.46300  0.34000  1.0000
  S   S10       1.0  0.03690  0.71000  0.37200  1.0000
  S   S11       1.0  0.55200  0.12000  0.44900  1.0000
  S   S12       1.0  0.88300  0.34000  0.46300  1.0000
  S   S13       1.0  0.11700  0.66000  0.53700  1.0000
  S   S14       1.0  0.44800  0.88000  0.55100  1.0000
  S   S15       1.0  0.96300  0.29000  0.62800  1.0000
  S   S16       1.0  0.61700  0.53700  0.66000  1.0000
  S   S17       1.0  0.73200  0.78100  0.66000  1.0000
  S   S18       1.0  0.53700  0.37200  0.71000  1.0000
  S   S19       1.0  0.03660  0.09590  0.75700  1.0000
  S   S20       1.0  0.23200  0.66000  0.78100  1.0000
  S   S21       1.0  0.94800  0.55100  0.88000  1.0000
  S   S22       1.0  0.46300  0.24300  0.90400  1.0000
  S   S23       1.0  0.06950  0.03920  0.91300  1.0000
  S   S24       1.0  0.43100  0.08710  0.96100  1.0000
