data_image0
_chemical_formula_structural       Fe10Na6O18
_chemical_formula_sum              "Fe10 Na6 O18"
_cell_length_a       5.31311
_cell_length_b       9.0255
_cell_length_c       9.0255
_cell_angle_alpha    84.3101
_cell_angle_beta     89.7936
_cell_angle_gamma    89.7936

_space_group_name_H-M_alt    "P 1"
_space_group_IT_number       1

loop_
  _space_group_symop_operation_xyz
  'x, y, z'

loop_
  _atom_site_type_symbol
  _atom_site_label
  _atom_site_symmetry_multiplicity
  _atom_site_fract_x
  _atom_site_fract_y
  _atom_site_fract_z
  _atom_site_occupancy
  Fe  Fe1       1.0  0.78100  0.69900  0.02060  1.0000
  Fe  Fe2       1.0  0.25000  0.93600  0.06410  1.0000
  Fe  Fe3       1.0  0.28400  0.56300  0.20500  1.0000
  Fe  Fe4       1.0  0.71900  0.97900  0.30100  1.0000
  Fe  Fe5       1.0  0.21600  0.79500  0.43700  1.0000
  Fe  Fe6       1.0  0.78400  0.20500  0.56300  1.0000
  Fe  Fe7       1.0  0.28100  0.02060  0.69900  1.0000
  Fe  Fe8       1.0  0.71600  0.43700  0.79500  1.0000
  Fe  Fe9       1.0  0.75000  0.06410  0.93600  1.0000
  Fe  Fe10      1.0  0.21900  0.30100  0.97900  1.0000
  Na  Na1       1.0  0.73300  0.31600  0.16000  1.0000
  Na  Na2       1.0  0.23300  0.16000  0.31600  1.0000
  Na  Na3       1.0  0.75000  0.59200  0.40800  1.0000
  Na  Na4       1.0  0.25000  0.40800  0.59200  1.0000
  Na  Na5       1.0  0.76700  0.84000  0.68400  1.0000
  Na  Na6       1.0  0.26700  0.68400  0.84000  1.0000
  O   O1        1.0  0.43300  0.13500  0.03360  1.0000
  O   O2        1.0  0.11900  0.72300  0.08830  1.0000
  O   O3        1.0  0.93300  0.03360  0.13500  1.0000
  O   O4        1.0  0.63400  0.56400  0.16500  1.0000
  O   O5        1.0  0.16700  0.37600  0.16600  1.0000
  O   O6        1.0  0.38100  0.91200  0.27700  1.0000
  O   O7        1.0  0.66700  0.16600  0.37600  1.0000
  O   O8        1.0  0.25000  0.59100  0.40900  1.0000
  O   O9        1.0  0.86600  0.83500  0.43600  1.0000
  O   O10       1.0  0.13400  0.16500  0.56400  1.0000
  O   O11       1.0  0.75000  0.40900  0.59100  1.0000
  O   O12       1.0  0.33300  0.83400  0.62400  1.0000
  O   O13       1.0  0.61900  0.08830  0.72300  1.0000
  O   O14       1.0  0.83300  0.62400  0.83400  1.0000
  O   O15       1.0  0.36600  0.43600  0.83500  1.0000
  O   O16       1.0  0.06720  0.96600  0.86500  1.0000
  O   O17       1.0  0.88100  0.27700  0.91200  1.0000
  O   O18       1.0  0.56700  0.86500  0.96600  1.0000
