data_image0
_chemical_formula_structural       O22Ti12
_chemical_formula_sum              "O22 Ti12"
_cell_length_a       5.54791
_cell_length_b       7.13364
_cell_length_c       9.71101
_cell_angle_alpha    89.8385
_cell_angle_beta     79.8154
_cell_angle_gamma    108.462

_space_group_name_H-M_alt    "P 1"
_space_group_IT_number       1

loop_
  _space_group_symop_operation_xyz
  'x, y, z'

loop_
  _atom_site_type_symbol
  _atom_site_label
  _atom_site_symmetry_multiplicity
  _atom_site_fract_x
  _atom_site_fract_y
  _atom_site_fract_z
  _atom_site_occupancy
  O   O1        1.0  0.90000  0.64200  0.02290  1.0000
  O   O2        1.0  0.40500  0.70200  0.07450  1.0000
  O   O3        1.0  0.12300  0.01270  0.10900  1.0000
  O   O4        1.0  0.64200  0.07920  0.15400  1.0000
  O   O5        1.0  0.43200  0.35800  0.20400  1.0000
  O   O6        1.0  0.94300  0.43100  0.25700  1.0000
  O   O7        1.0  0.66300  0.73600  0.28200  1.0000
  O   O8        1.0  0.18600  0.79800  0.35500  1.0000
  O   O9        1.0  0.98700  0.09570  0.39000  1.0000
  O   O10       1.0  0.47200  0.16700  0.43500  1.0000
  O   O11       1.0  0.21300  0.45500  0.46600  1.0000
  O   O12       1.0  0.78700  0.54500  0.53400  1.0000
  O   O13       1.0  0.52800  0.83300  0.56500  1.0000
  O   O14       1.0  0.01310  0.90400  0.61000  1.0000
  O   O15       1.0  0.81400  0.20200  0.64500  1.0000
  O   O16       1.0  0.33700  0.26400  0.71800  1.0000
  O   O17       1.0  0.05720  0.56900  0.74300  1.0000
  O   O18       1.0  0.56800  0.64200  0.79600  1.0000
  O   O19       1.0  0.35800  0.92100  0.84600  1.0000
  O   O20       1.0  0.87700  0.98700  0.89100  1.0000
  O   O21       1.0  0.59500  0.29800  0.92500  1.0000
  O   O22       1.0  0.09990  0.35800  0.97700  1.0000
  Ti  Ti1       1.0  0.77100  0.86000  0.08200  1.0000
  Ti  Ti2       1.0  0.77100  0.36200  0.08800  1.0000
  Ti  Ti3       1.0  0.30900  0.57400  0.25800  1.0000
  Ti  Ti4       1.0  0.31500  0.07560  0.25800  1.0000
  Ti  Ti5       1.0  0.82200  0.80700  0.43500  1.0000
  Ti  Ti6       1.0  0.81900  0.30400  0.44000  1.0000
  Ti  Ti7       1.0  0.18100  0.69600  0.56000  1.0000
  Ti  Ti8       1.0  0.17800  0.19300  0.56500  1.0000
  Ti  Ti9       1.0  0.68500  0.92400  0.74200  1.0000
  Ti  Ti10      1.0  0.69100  0.42600  0.74200  1.0000
  Ti  Ti11      1.0  0.22900  0.63800  0.91200  1.0000
  Ti  Ti12      1.0  0.22900  0.14000  0.91800  1.0000
