data_image0
_chemical_formula_structural       Cr4H8Li4O18
_chemical_formula_sum              "Cr4 H8 Li4 O18"
_cell_length_a       5.2845
_cell_length_b       5.2845
_cell_length_c       12.4599
_cell_angle_alpha    94.607
_cell_angle_beta     94.607
_cell_angle_gamma    91.7366

_space_group_name_H-M_alt    "P 1"
_space_group_IT_number       1

loop_
  _space_group_symop_operation_xyz
  'x, y, z'

loop_
  _atom_site_type_symbol
  _atom_site_label
  _atom_site_symmetry_multiplicity
  _atom_site_fract_x
  _atom_site_fract_y
  _atom_site_fract_z
  _atom_site_occupancy
  Cr  Cr1       1.0  0.72900  0.01080  0.13800  1.0000
  Cr  Cr2       1.0  0.98900  0.27100  0.36200  1.0000
  Cr  Cr3       1.0  0.01080  0.72900  0.63800  1.0000
  Cr  Cr4       1.0  0.27100  0.98900  0.86200  1.0000
  H   H1        1.0  0.43000  0.58100  0.10000  1.0000
  H   H2        1.0  0.31400  0.34700  0.15000  1.0000
  H   H3        1.0  0.65300  0.68600  0.35000  1.0000
  H   H4        1.0  0.41900  0.57000  0.40000  1.0000
  H   H5        1.0  0.58100  0.43000  0.60000  1.0000
  H   H6        1.0  0.34700  0.31400  0.65000  1.0000
  H   H7        1.0  0.68600  0.65300  0.85000  1.0000
  H   H8        1.0  0.57000  0.41900  0.90000  1.0000
  Li  Li1       1.0  0.00000  0.50000  0.00000  1.0000
  Li  Li2       1.0  0.22800  0.77200  0.25000  1.0000
  Li  Li3       1.0  0.50000  0.00000  0.50000  1.0000
  Li  Li4       1.0  0.77200  0.22800  0.75000  1.0000
  O   O1        1.0  0.80200  0.21100  0.05420  1.0000
  O   O2        1.0  0.73000  0.72200  0.08180  1.0000
  O   O3        1.0  0.27300  0.52000  0.13000  1.0000
  O   O4        1.0  0.44900  0.06550  0.18100  1.0000
  O   O5        1.0  0.96600  0.03450  0.25000  1.0000
  O   O6        1.0  0.93400  0.55100  0.31900  1.0000
  O   O7        1.0  0.48000  0.72700  0.37000  1.0000
  O   O8        1.0  0.27800  0.27000  0.41800  1.0000
  O   O9        1.0  0.78900  0.19800  0.44600  1.0000
  O   O10       1.0  0.21100  0.80200  0.55400  1.0000
  O   O11       1.0  0.72200  0.73000  0.58200  1.0000
  O   O12       1.0  0.52000  0.27300  0.63000  1.0000
  O   O13       1.0  0.06550  0.44900  0.68100  1.0000
  O   O14       1.0  0.03450  0.96600  0.75000  1.0000
  O   O15       1.0  0.55100  0.93400  0.81900  1.0000
  O   O16       1.0  0.72700  0.48000  0.87000  1.0000
  O   O17       1.0  0.27000  0.27800  0.91800  1.0000
  O   O18       1.0  0.19800  0.78900  0.94600  1.0000
