data_image0
_chemical_formula_structural       Au4O22Se8
_chemical_formula_sum              "Au4 O22 Se8"
_cell_length_a       4.0867
_cell_length_b       10.4291
_cell_length_c       12.7534
_cell_angle_alpha    108.277
_cell_angle_beta     99.2196
_cell_angle_gamma    101.299

_space_group_name_H-M_alt    "P 1"
_space_group_IT_number       1

loop_
  _space_group_symop_operation_xyz
  'x, y, z'

loop_
  _atom_site_type_symbol
  _atom_site_label
  _atom_site_symmetry_multiplicity
  _atom_site_fract_x
  _atom_site_fract_y
  _atom_site_fract_z
  _atom_site_occupancy
  Au  Au1       1.0  0.00000  0.00000  0.00000  1.0000
  Au  Au2       1.0  0.00000  0.50000  0.00000  1.0000
  Au  Au3       1.0  0.00000  0.00000  0.50000  1.0000
  Au  Au4       1.0  0.50000  0.50000  0.50000  1.0000
  O   O1        1.0  0.91600  0.80500  0.00230  1.0000
  O   O2        1.0  0.60300  0.37300  0.02150  1.0000
  O   O3        1.0  0.45500  0.04310  0.11200  1.0000
  O   O4        1.0  0.95500  0.66000  0.13600  1.0000
  O   O5        1.0  0.32500  0.50500  0.24100  1.0000
  O   O6        1.0  0.25400  0.25000  0.25000  1.0000
  O   O7        1.0  0.07940  0.99500  0.25900  1.0000
  O   O8        1.0  0.65900  0.84000  0.36400  1.0000
  O   O9        1.0  0.80000  0.45700  0.38800  1.0000
  O   O10       1.0  0.70800  0.12700  0.47900  1.0000
  O   O11       1.0  0.60800  0.69500  0.49800  1.0000
  O   O12       1.0  0.39200  0.30500  0.50200  1.0000
  O   O13       1.0  0.29200  0.87300  0.52100  1.0000
  O   O14       1.0  0.20000  0.54300  0.61200  1.0000
  O   O15       1.0  0.34100  0.16000  0.63600  1.0000
  O   O16       1.0  0.92100  0.00457  0.74100  1.0000
  O   O17       1.0  0.74600  0.75000  0.75000  1.0000
  O   O18       1.0  0.67500  0.49500  0.75900  1.0000
  O   O19       1.0  0.04540  0.34000  0.86400  1.0000
  O   O20       1.0  0.54500  0.95700  0.88800  1.0000
  O   O21       1.0  0.39700  0.62700  0.97900  1.0000
  O   O22       1.0  0.08430  0.19500  0.99800  1.0000
  Se  Se1       1.0  0.69300  0.75900  0.09690  1.0000
  Se  Se2       1.0  0.57800  0.39900  0.24400  1.0000
  Se  Se3       1.0  0.43500  0.10100  0.25600  1.0000
  Se  Se4       1.0  0.33700  0.74100  0.40300  1.0000
  Se  Se5       1.0  0.66300  0.25900  0.59700  1.0000
  Se  Se6       1.0  0.56500  0.89900  0.74400  1.0000
  Se  Se7       1.0  0.42200  0.60100  0.75600  1.0000
  Se  Se8       1.0  0.30700  0.24100  0.90300  1.0000
