data_image0
_chemical_formula_structural       H20N6O4P2S2
_chemical_formula_sum              "H20 N6 O4 P2 S2"
_cell_length_a       6.46548
_cell_length_b       6.79093
_cell_length_c       7.26702
_cell_angle_alpha    86.4698
_cell_angle_beta     73.0574
_cell_angle_gamma    88.6909

_space_group_name_H-M_alt    "P 1"
_space_group_IT_number       1

loop_
  _space_group_symop_operation_xyz
  'x, y, z'

loop_
  _atom_site_type_symbol
  _atom_site_label
  _atom_site_symmetry_multiplicity
  _atom_site_fract_x
  _atom_site_fract_y
  _atom_site_fract_z
  _atom_site_occupancy
  H   H1        1.0  0.38000  0.85700  0.03080  1.0000
  H   H2        1.0  0.65900  0.35100  0.06290  1.0000
  H   H3        1.0  0.86700  0.80300  0.11900  1.0000
  H   H4        1.0  0.76400  0.02560  0.19400  1.0000
  H   H5        1.0  0.00937  0.94900  0.22500  1.0000
  H   H6        1.0  0.77800  0.83600  0.36200  1.0000
  H   H7        1.0  0.86300  0.32200  0.37200  1.0000
  H   H8        1.0  0.25900  0.80300  0.40800  1.0000
  H   H9        1.0  0.28000  0.54800  0.44300  1.0000
  H   H10       1.0  0.58600  0.30000  0.45700  1.0000
  H   H11       1.0  0.41400  0.70000  0.54300  1.0000
  H   H12       1.0  0.72000  0.45200  0.55700  1.0000
  H   H13       1.0  0.74100  0.19700  0.59200  1.0000
  H   H14       1.0  0.13700  0.67800  0.62800  1.0000
  H   H15       1.0  0.22200  0.16400  0.63800  1.0000
  H   H16       1.0  0.99100  0.05060  0.77500  1.0000
  H   H17       1.0  0.23600  0.97400  0.80600  1.0000
  H   H18       1.0  0.13300  0.19700  0.88100  1.0000
  H   H19       1.0  0.34100  0.64900  0.93700  1.0000
  H   H20       1.0  0.62000  0.14300  0.96900  1.0000
  N   N1        1.0  0.59300  0.21100  0.09790  1.0000
  N   N2        1.0  0.85500  0.90400  0.22500  1.0000
  N   N3        1.0  0.73000  0.31600  0.49600  1.0000
  N   N4        1.0  0.27000  0.68400  0.50400  1.0000
  N   N5        1.0  0.14500  0.09560  0.77500  1.0000
  N   N6        1.0  0.40700  0.78900  0.90200  1.0000
  O   O1        1.0  0.26100  0.99400  0.25000  1.0000
  O   O2        1.0  0.33700  0.29100  0.42600  1.0000
  O   O3        1.0  0.66300  0.70900  0.57400  1.0000
  O   O4        1.0  0.73900  0.00606  0.75000  1.0000
  P   P1        1.0  0.33200  0.21100  0.23300  1.0000
  P   P2        1.0  0.66800  0.78900  0.76700  1.0000
  S   S1        1.0  0.14100  0.38500  0.11500  1.0000
  S   S2        1.0  0.85900  0.61500  0.88500  1.0000
