data_image0
_chemical_formula_structural       B10Na6Pt18
_chemical_formula_sum              "B10 Na6 Pt18"
_cell_length_a       5.61347
_cell_length_b       6.40092
_cell_length_c       15.24
_cell_angle_alpha    90
_cell_angle_beta     90
_cell_angle_gamma    63.9925

_space_group_name_H-M_alt    "P 1"
_space_group_IT_number       1

loop_
  _space_group_symop_operation_xyz
  'x, y, z'

loop_
  _atom_site_type_symbol
  _atom_site_label
  _atom_site_symmetry_multiplicity
  _atom_site_fract_x
  _atom_site_fract_y
  _atom_site_fract_z
  _atom_site_occupancy
  B   B1        1.0  0.19000  0.62100  0.02750  1.0000
  B   B2        1.0  0.94400  0.11200  0.14700  1.0000
  B   B3        1.0  0.27200  0.45600  0.25000  1.0000
  B   B4        1.0  0.94400  0.11200  0.35300  1.0000
  B   B5        1.0  0.19000  0.62100  0.47200  1.0000
  B   B6        1.0  0.81000  0.37900  0.52800  1.0000
  B   B7        1.0  0.05590  0.88800  0.64700  1.0000
  B   B8        1.0  0.72800  0.54400  0.75000  1.0000
  B   B9        1.0  0.05590  0.88800  0.85300  1.0000
  B   B10       1.0  0.81000  0.37900  0.97200  1.0000
  Na  Na1       1.0  0.55900  0.88200  0.08600  1.0000
  Na  Na2       1.0  0.68600  0.62800  0.25000  1.0000
  Na  Na3       1.0  0.55900  0.88200  0.41400  1.0000
  Na  Na4       1.0  0.44100  0.11800  0.58600  1.0000
  Na  Na5       1.0  0.31400  0.37200  0.75000  1.0000
  Na  Na6       1.0  0.44100  0.11800  0.91400  1.0000
  Pt  Pt1       1.0  0.00000  0.00000  0.00000  1.0000
  Pt  Pt2       1.0  0.06400  0.36800  0.07910  1.0000
  Pt  Pt3       1.0  0.56800  0.36800  0.07910  1.0000
  Pt  Pt4       1.0  0.12700  0.74500  0.15700  1.0000
  Pt  Pt5       1.0  0.16700  0.17500  0.25000  1.0000
  Pt  Pt6       1.0  0.65900  0.17500  0.25000  1.0000
  Pt  Pt7       1.0  0.12700  0.74500  0.34300  1.0000
  Pt  Pt8       1.0  0.06400  0.36800  0.42100  1.0000
  Pt  Pt9       1.0  0.56800  0.36800  0.42100  1.0000
  Pt  Pt10      1.0  0.00000  0.00000  0.50000  1.0000
  Pt  Pt11      1.0  0.43200  0.63200  0.57900  1.0000
  Pt  Pt12      1.0  0.93600  0.63200  0.57900  1.0000
  Pt  Pt13      1.0  0.87300  0.25500  0.65700  1.0000
  Pt  Pt14      1.0  0.34100  0.82500  0.75000  1.0000
  Pt  Pt15      1.0  0.83300  0.82500  0.75000  1.0000
  Pt  Pt16      1.0  0.87300  0.25500  0.84300  1.0000
  Pt  Pt17      1.0  0.43200  0.63200  0.92100  1.0000
  Pt  Pt18      1.0  0.93600  0.63200  0.92100  1.0000
