data_image0
_chemical_formula_structural       O24Pb3Re6
_chemical_formula_sum              "O24 Pb3 Re6"
_cell_length_a       11.2652
_cell_length_b       11.2652
_cell_length_c       4.50971
_cell_angle_alpha    90.0001
_cell_angle_beta     90
_cell_angle_gamma    120

_space_group_name_H-M_alt    "P 1"
_space_group_IT_number       1

loop_
  _space_group_symop_operation_xyz
  'x, y, z'

loop_
  _atom_site_type_symbol
  _atom_site_label
  _atom_site_symmetry_multiplicity
  _atom_site_fract_x
  _atom_site_fract_y
  _atom_site_fract_z
  _atom_site_occupancy
  O   O1        1.0  0.53000  0.15100  0.09470  1.0000
  O   O2        1.0  0.62000  0.47000  0.09470  1.0000
  O   O3        1.0  0.47000  0.62000  0.09470  1.0000
  O   O4        1.0  0.38000  0.84900  0.09470  1.0000
  O   O5        1.0  0.84900  0.38000  0.09470  1.0000
  O   O6        1.0  0.15100  0.53000  0.09470  1.0000
  O   O7        1.0  0.23100  0.00000  0.09630  1.0000
  O   O8        1.0  0.76900  0.76900  0.09640  1.0000
  O   O9        1.0  0.00000  0.23100  0.09640  1.0000
  O   O10       1.0  0.71300  0.00000  0.10800  1.0000
  O   O11       1.0  0.28700  0.28700  0.10800  1.0000
  O   O12       1.0  0.00000  0.71300  0.10800  1.0000
  O   O13       1.0  0.38300  0.00000  0.59900  1.0000
  O   O14       1.0  0.61700  0.61700  0.59900  1.0000
  O   O15       1.0  0.00000  0.38300  0.59900  1.0000
  O   O16       1.0  0.00000  0.86300  0.60200  1.0000
  O   O17       1.0  0.86300  0.00000  0.60200  1.0000
  O   O18       1.0  0.13700  0.13700  0.60200  1.0000
  O   O19       1.0  0.43500  0.28600  0.61500  1.0000
  O   O20       1.0  0.56500  0.85100  0.61500  1.0000
  O   O21       1.0  0.85100  0.56500  0.61500  1.0000
  O   O22       1.0  0.14900  0.71400  0.61500  1.0000
  O   O23       1.0  0.71400  0.14900  0.61500  1.0000
  O   O24       1.0  0.28600  0.43500  0.61500  1.0000
  Pb  Pb1       1.0  0.00000  0.00000  0.04660  1.0000
  Pb  Pb2       1.0  0.66700  0.33300  0.47600  1.0000
  Pb  Pb3       1.0  0.33300  0.66700  0.47600  1.0000
  Re  Re1       1.0  0.71300  0.00000  0.49300  1.0000
  Re  Re2       1.0  0.28700  0.28700  0.49300  1.0000
  Re  Re3       1.0  0.00000  0.71300  0.49300  1.0000
  Re  Re4       1.0  0.38100  0.00000  0.98400  1.0000
  Re  Re5       1.0  0.61900  0.61900  0.98400  1.0000
  Re  Re6       1.0  0.00000  0.38100  0.98400  1.0000
