data_image0
_chemical_formula_structural       P24Pr2Ru8
_chemical_formula_sum              "P24 Pr2 Ru8"
_cell_length_a       8.1033
_cell_length_b       8.1033
_cell_length_c       8.1033
_cell_angle_alpha    90
_cell_angle_beta     90
_cell_angle_gamma    90

_space_group_name_H-M_alt    "P 1"
_space_group_IT_number       1

loop_
  _space_group_symop_operation_xyz
  'x, y, z'

loop_
  _atom_site_type_symbol
  _atom_site_label
  _atom_site_symmetry_multiplicity
  _atom_site_fract_x
  _atom_site_fract_y
  _atom_site_fract_z
  _atom_site_occupancy
  P   P1        1.0  0.35800  0.14400  0.00000  1.0000
  P   P2        1.0  0.64200  0.14400  0.00000  1.0000
  P   P3        1.0  0.35800  0.85600  0.00000  1.0000
  P   P4        1.0  0.64200  0.85600  0.00000  1.0000
  P   P5        1.0  0.35600  0.50000  0.14200  1.0000
  P   P6        1.0  0.64400  0.50000  0.14200  1.0000
  P   P7        1.0  0.00000  0.35800  0.14400  1.0000
  P   P8        1.0  0.00000  0.64200  0.14400  1.0000
  P   P9        1.0  0.50000  0.14200  0.35600  1.0000
  P   P10       1.0  0.50000  0.85800  0.35600  1.0000
  P   P11       1.0  0.14400  0.00000  0.35800  1.0000
  P   P12       1.0  0.85600  0.00000  0.35800  1.0000
  P   P13       1.0  0.14200  0.35600  0.50000  1.0000
  P   P14       1.0  0.85800  0.35600  0.50000  1.0000
  P   P15       1.0  0.14200  0.64400  0.50000  1.0000
  P   P16       1.0  0.85800  0.64400  0.50000  1.0000
  P   P17       1.0  0.14400  0.00000  0.64200  1.0000
  P   P18       1.0  0.85600  0.00000  0.64200  1.0000
  P   P19       1.0  0.50000  0.14200  0.64400  1.0000
  P   P20       1.0  0.50000  0.85800  0.64400  1.0000
  P   P21       1.0  0.00000  0.35800  0.85600  1.0000
  P   P22       1.0  0.00000  0.64200  0.85600  1.0000
  P   P23       1.0  0.35600  0.50000  0.85800  1.0000
  P   P24       1.0  0.64400  0.50000  0.85800  1.0000
  Pr  Pr1       1.0  0.00000  0.00000  0.00000  1.0000
  Pr  Pr2       1.0  0.50000  0.50000  0.50000  1.0000
  Ru  Ru1       1.0  0.25000  0.25000  0.25000  1.0000
  Ru  Ru2       1.0  0.75000  0.25000  0.25000  1.0000
  Ru  Ru3       1.0  0.25000  0.75000  0.25000  1.0000
  Ru  Ru4       1.0  0.75000  0.75000  0.25000  1.0000
  Ru  Ru5       1.0  0.25000  0.25000  0.75000  1.0000
  Ru  Ru6       1.0  0.75000  0.25000  0.75000  1.0000
  Ru  Ru7       1.0  0.25000  0.75000  0.75000  1.0000
  Ru  Ru8       1.0  0.75000  0.75000  0.75000  1.0000
