data_image0
_chemical_formula_structural       H6O18P6Sb4
_chemical_formula_sum              "H6 O18 P6 Sb4"
_cell_length_a       9.09203
_cell_length_b       8.27452
_cell_length_c       7.10635
_cell_angle_alpha    68.5068
_cell_angle_beta     78.6379
_cell_angle_gamma    65.8306

_space_group_name_H-M_alt    "P 1"
_space_group_IT_number       1

loop_
  _space_group_symop_operation_xyz
  'x, y, z'

loop_
  _atom_site_type_symbol
  _atom_site_label
  _atom_site_symmetry_multiplicity
  _atom_site_fract_x
  _atom_site_fract_y
  _atom_site_fract_z
  _atom_site_occupancy
  H   H1        1.0  0.78800  0.01520  0.14100  1.0000
  H   H2        1.0  0.01620  0.14500  0.43600  1.0000
  H   H3        1.0  0.90600  0.48500  0.47100  1.0000
  H   H4        1.0  0.09380  0.51500  0.52900  1.0000
  H   H5        1.0  0.98400  0.85500  0.56400  1.0000
  H   H6        1.0  0.21200  0.98500  0.85900  1.0000
  O   O1        1.0  0.91700  0.25400  0.10800  1.0000
  O   O2        1.0  0.58700  0.32200  0.12600  1.0000
  O   O3        1.0  0.20300  0.05220  0.17400  1.0000
  O   O4        1.0  0.50900  0.05500  0.19200  1.0000
  O   O5        1.0  0.09150  0.38800  0.19800  1.0000
  O   O6        1.0  0.25200  0.60000  0.22600  1.0000
  O   O7        1.0  0.70000  0.38600  0.44700  1.0000
  O   O8        1.0  0.67700  0.05010  0.45600  1.0000
  O   O9        1.0  0.64300  0.70600  0.48100  1.0000
  O   O10       1.0  0.35700  0.29400  0.51900  1.0000
  O   O11       1.0  0.32300  0.95000  0.54400  1.0000
  O   O12       1.0  0.30000  0.61400  0.55300  1.0000
  O   O13       1.0  0.74800  0.40000  0.77400  1.0000
  O   O14       1.0  0.90900  0.61200  0.80200  1.0000
  O   O15       1.0  0.49100  0.94500  0.80800  1.0000
  O   O16       1.0  0.79700  0.94800  0.82600  1.0000
  O   O17       1.0  0.41300  0.67800  0.87400  1.0000
  O   O18       1.0  0.08270  0.74600  0.89200  1.0000
  P   P1        1.0  0.06120  0.21100  0.23000  1.0000
  P   P2        1.0  0.64100  0.10800  0.23100  1.0000
  P   P3        1.0  0.25200  0.50300  0.46000  1.0000
  P   P4        1.0  0.74800  0.49700  0.54000  1.0000
  P   P5        1.0  0.35900  0.89200  0.76900  1.0000
  P   P6        1.0  0.93900  0.78900  0.77000  1.0000
  Sb  Sb1       1.0  0.72700  0.49800  0.00642  1.0000
  Sb  Sb2       1.0  0.42100  0.83500  0.31700  1.0000
  Sb  Sb3       1.0  0.57900  0.16500  0.68300  1.0000
  Sb  Sb4       1.0  0.27300  0.50200  0.99400  1.0000
