data_image0
_chemical_formula_structural       Ba2Ni20P12
_chemical_formula_sum              "Ba2 Ni20 P12"
_cell_length_a       8.71227
_cell_length_b       6.42968
_cell_length_c       8.76609
_cell_angle_alpha    90
_cell_angle_beta     90
_cell_angle_gamma    111.654

_space_group_name_H-M_alt    "P 1"
_space_group_IT_number       1

loop_
  _space_group_symop_operation_xyz
  'x, y, z'

loop_
  _atom_site_type_symbol
  _atom_site_label
  _atom_site_symmetry_multiplicity
  _atom_site_fract_x
  _atom_site_fract_y
  _atom_site_fract_z
  _atom_site_occupancy
  Ba  Ba1       1.0  0.00000  0.50000  0.00000  1.0000
  Ba  Ba2       1.0  0.00000  0.00000  0.50000  1.0000
  Ni  Ni1       1.0  0.65000  0.02310  0.02890  1.0000
  Ni  Ni2       1.0  0.65000  0.62700  0.02890  1.0000
  Ni  Ni3       1.0  0.90900  0.95500  0.11900  1.0000
  Ni  Ni4       1.0  0.58100  0.29000  0.20500  1.0000
  Ni  Ni5       1.0  0.32400  0.41200  0.25000  1.0000
  Ni  Ni6       1.0  0.32400  0.91200  0.25000  1.0000
  Ni  Ni7       1.0  0.58100  0.79000  0.29500  1.0000
  Ni  Ni8       1.0  0.90900  0.45500  0.38100  1.0000
  Ni  Ni9       1.0  0.65000  0.12700  0.47100  1.0000
  Ni  Ni10      1.0  0.65000  0.52300  0.47100  1.0000
  Ni  Ni11      1.0  0.35000  0.47700  0.52900  1.0000
  Ni  Ni12      1.0  0.35000  0.87300  0.52900  1.0000
  Ni  Ni13      1.0  0.09060  0.54500  0.61900  1.0000
  Ni  Ni14      1.0  0.41900  0.21000  0.70500  1.0000
  Ni  Ni15      1.0  0.67600  0.08810  0.75000  1.0000
  Ni  Ni16      1.0  0.67600  0.58800  0.75000  1.0000
  Ni  Ni17      1.0  0.41900  0.71000  0.79500  1.0000
  Ni  Ni18      1.0  0.09060  0.04530  0.88100  1.0000
  Ni  Ni19      1.0  0.35000  0.37300  0.97100  1.0000
  Ni  Ni20      1.0  0.35000  0.97700  0.97100  1.0000
  P   P1        1.0  0.41700  0.70800  0.07430  1.0000
  P   P2        1.0  0.18000  0.08990  0.12800  1.0000
  P   P3        1.0  0.78000  0.14000  0.25000  1.0000
  P   P4        1.0  0.78000  0.64000  0.25000  1.0000
  P   P5        1.0  0.18000  0.59000  0.37200  1.0000
  P   P6        1.0  0.41700  0.20800  0.42600  1.0000
  P   P7        1.0  0.58300  0.79200  0.57400  1.0000
  P   P8        1.0  0.82000  0.41000  0.62800  1.0000
  P   P9        1.0  0.22000  0.36000  0.75000  1.0000
  P   P10       1.0  0.22000  0.86000  0.75000  1.0000
  P   P11       1.0  0.82000  0.91000  0.87200  1.0000
  P   P12       1.0  0.58300  0.29200  0.92600  1.0000
