data_image0
_chemical_formula_structural       Cs8O19Ta6
_chemical_formula_sum              "Cs8 O19 Ta6"
_cell_length_a       9.75837
_cell_length_b       9.75837
_cell_length_c       9.83735
_cell_angle_alpha    119.735
_cell_angle_beta     119.735
_cell_angle_gamma    90

_space_group_name_H-M_alt    "P 1"
_space_group_IT_number       1

loop_
  _space_group_symop_operation_xyz
  'x, y, z'

loop_
  _atom_site_type_symbol
  _atom_site_label
  _atom_site_symmetry_multiplicity
  _atom_site_fract_x
  _atom_site_fract_y
  _atom_site_fract_z
  _atom_site_occupancy
  Cs  Cs1       1.0  0.57400  0.36200  0.30500  1.0000
  Cs  Cs2       1.0  0.94200  0.57400  0.30500  1.0000
  Cs  Cs3       1.0  0.36200  0.73100  0.30500  1.0000
  Cs  Cs4       1.0  0.73100  0.94200  0.30500  1.0000
  Cs  Cs5       1.0  0.26900  0.05750  0.69500  1.0000
  Cs  Cs6       1.0  0.63800  0.26900  0.69500  1.0000
  Cs  Cs7       1.0  0.05750  0.42600  0.69500  1.0000
  Cs  Cs8       1.0  0.42600  0.63800  0.69500  1.0000
  O   O1        1.0  0.00000  0.00000  0.00000  1.0000
  O   O2        1.0  0.26800  0.08720  0.00000  1.0000
  O   O3        1.0  0.62200  0.20600  0.00000  1.0000
  O   O4        1.0  0.91300  0.26800  0.00000  1.0000
  O   O5        1.0  0.20600  0.37800  0.00000  1.0000
  O   O6        1.0  0.79400  0.62200  0.00000  1.0000
  O   O7        1.0  0.08720  0.73200  0.00000  1.0000
  O   O8        1.0  0.37800  0.79400  0.00000  1.0000
  O   O9        1.0  0.73200  0.91300  0.00000  1.0000
  O   O10       1.0  0.32200  0.04970  0.28100  1.0000
  O   O11       1.0  0.95900  0.23200  0.28100  1.0000
  O   O12       1.0  0.23200  0.32200  0.28100  1.0000
  O   O13       1.0  0.04970  0.95900  0.28100  1.0000
  O   O14       1.0  0.70200  0.70200  0.40400  1.0000
  O   O15       1.0  0.29800  0.29800  0.59600  1.0000
  O   O16       1.0  0.95000  0.04050  0.71900  1.0000
  O   O17       1.0  0.76800  0.67800  0.71900  1.0000
  O   O18       1.0  0.04050  0.76800  0.71900  1.0000
  O   O19       1.0  0.67800  0.95000  0.71900  1.0000
  Ta  Ta1       1.0  0.78200  0.10900  0.00000  1.0000
  Ta  Ta2       1.0  0.10900  0.21800  0.00000  1.0000
  Ta  Ta3       1.0  0.89100  0.78200  0.00000  1.0000
  Ta  Ta4       1.0  0.21800  0.89100  0.00000  1.0000
  Ta  Ta5       1.0  0.16700  0.16700  0.33500  1.0000
  Ta  Ta6       1.0  0.83300  0.83300  0.66500  1.0000
