data_image0
_chemical_formula_structural       Ba8Br2O18Ru3Ta2
_chemical_formula_sum              "Ba8 Br2 O18 Ru3 Ta2"
_cell_length_a       5.87976
_cell_length_b       5.87976
_cell_length_c       20.0771
_cell_angle_alpha    90
_cell_angle_beta     98.4201
_cell_angle_gamma    60

_space_group_name_H-M_alt    "P 1"
_space_group_IT_number       1

loop_
  _space_group_symop_operation_xyz
  'x, y, z'

loop_
  _atom_site_type_symbol
  _atom_site_label
  _atom_site_symmetry_multiplicity
  _atom_site_fract_x
  _atom_site_fract_y
  _atom_site_fract_z
  _atom_site_occupancy
  Ba  Ba1       1.0  0.73800  0.63100  0.10700  1.0000
  Ba  Ba2       1.0  0.48400  0.25800  0.22600  1.0000
  Ba  Ba3       1.0  0.88200  0.55900  0.32400  1.0000
  Ba  Ba4       1.0  0.62400  0.18800  0.43600  1.0000
  Ba  Ba5       1.0  0.37600  0.81200  0.56400  1.0000
  Ba  Ba6       1.0  0.11800  0.44100  0.67600  1.0000
  Ba  Ba7       1.0  0.51600  0.74200  0.77400  1.0000
  Ba  Ba8       1.0  0.26200  0.36900  0.89300  1.0000
  Br  Br1       1.0  0.37400  0.31300  0.06090  1.0000
  Br  Br2       1.0  0.62600  0.68700  0.93900  1.0000
  O   O1        1.0  0.46400  0.76800  0.20200  1.0000
  O   O2        1.0  0.97000  0.26200  0.20200  1.0000
  O   O3        1.0  0.97000  0.76800  0.20200  1.0000
  O   O4        1.0  0.36700  0.04380  0.32300  1.0000
  O   O5        1.0  0.36700  0.58900  0.32300  1.0000
  O   O6        1.0  0.91200  0.04380  0.32300  1.0000
  O   O7        1.0  0.12600  0.19000  0.44300  1.0000
  O   O8        1.0  0.12600  0.68300  0.44300  1.0000
  O   O9        1.0  0.63300  0.68300  0.44300  1.0000
  O   O10       1.0  0.36700  0.31700  0.55700  1.0000
  O   O11       1.0  0.87400  0.31700  0.55700  1.0000
  O   O12       1.0  0.87400  0.81000  0.55700  1.0000
  O   O13       1.0  0.08760  0.95600  0.67700  1.0000
  O   O14       1.0  0.63300  0.41100  0.67700  1.0000
  O   O15       1.0  0.63300  0.95600  0.67700  1.0000
  O   O16       1.0  0.03000  0.23200  0.79800  1.0000
  O   O17       1.0  0.03000  0.73800  0.79800  1.0000
  O   O18       1.0  0.53600  0.23200  0.79800  1.0000
  Ru  Ru1       1.0  0.26000  0.87000  0.39000  1.0000
  Ru  Ru2       1.0  0.00000  0.50000  0.50000  1.0000
  Ru  Ru3       1.0  0.74000  0.13000  0.61000  1.0000
  Ta  Ta1       1.0  0.16400  0.91800  0.24600  1.0000
  Ta  Ta2       1.0  0.83600  0.08210  0.75400  1.0000
