data_image0
_chemical_formula_structural       C2Cl10H12Hg4N6
_chemical_formula_sum              "C2 Cl10 H12 Hg4 N6"
_cell_length_a       4.0256
_cell_length_b       7.85268
_cell_length_c       18.3971
_cell_angle_alpha    90
_cell_angle_beta     90
_cell_angle_gamma    75.1482

_space_group_name_H-M_alt    "P 1"
_space_group_IT_number       1

loop_
  _space_group_symop_operation_xyz
  'x, y, z'

loop_
  _atom_site_type_symbol
  _atom_site_label
  _atom_site_symmetry_multiplicity
  _atom_site_fract_x
  _atom_site_fract_y
  _atom_site_fract_z
  _atom_site_occupancy
  C   C1        1.0  0.61600  0.76900  0.25000  1.0000
  C   C2        1.0  0.38400  0.23100  0.75000  1.0000
  Cl  Cl1       1.0  0.38300  0.00000  0.00000  1.0000
  Cl  Cl2       1.0  0.11500  0.59800  0.07950  1.0000
  Cl  Cl3       1.0  0.76100  0.21200  0.16300  1.0000
  Cl  Cl4       1.0  0.02650  0.21200  0.33700  1.0000
  Cl  Cl5       1.0  0.28700  0.59800  0.42000  1.0000
  Cl  Cl6       1.0  0.61700  0.00000  0.50000  1.0000
  Cl  Cl7       1.0  0.88500  0.40200  0.58000  1.0000
  Cl  Cl8       1.0  0.23900  0.78800  0.66300  1.0000
  Cl  Cl9       1.0  0.97400  0.78800  0.83700  1.0000
  Cl  Cl10      1.0  0.71300  0.40200  0.92000  1.0000
  H   H1        1.0  0.38200  0.79300  0.15000  1.0000
  H   H2        1.0  0.46400  0.98500  0.18400  1.0000
  H   H3        1.0  0.70400  0.52200  0.20400  1.0000
  H   H4        1.0  0.77400  0.52200  0.29600  1.0000
  H   H5        1.0  0.55000  0.98500  0.31600  1.0000
  H   H6        1.0  0.82500  0.79300  0.35000  1.0000
  H   H7        1.0  0.61800  0.20700  0.65000  1.0000
  H   H8        1.0  0.53600  0.01450  0.68400  1.0000
  H   H9        1.0  0.29600  0.47800  0.70400  1.0000
  H   H10       1.0  0.22600  0.47800  0.79600  1.0000
  H   H11       1.0  0.45000  0.01450  0.81600  1.0000
  H   H12       1.0  0.17500  0.20700  0.85000  1.0000
  Hg  Hg1       1.0  0.73600  0.26400  0.03650  1.0000
  Hg  Hg2       1.0  0.00035  0.26400  0.46300  1.0000
  Hg  Hg3       1.0  0.26400  0.73600  0.53700  1.0000
  Hg  Hg4       1.0  0.00000  0.73600  0.96300  1.0000
  N   N1        1.0  0.45900  0.85800  0.19200  1.0000
  N   N2        1.0  0.70400  0.59300  0.25000  1.0000
  N   N3        1.0  0.68400  0.85800  0.30800  1.0000
  N   N4        1.0  0.54100  0.14200  0.69200  1.0000
  N   N5        1.0  0.29600  0.40700  0.75000  1.0000
  N   N6        1.0  0.31600  0.14200  0.80800  1.0000
