data_image0
_chemical_formula_structural       Ba2HO22P6V3
_chemical_formula_sum              "Ba2 H1 O22 P6 V3"
_cell_length_a       4.8254
_cell_length_b       7.8857
_cell_length_c       11.3077
_cell_angle_alpha    88.8307
_cell_angle_beta     89.7903
_cell_angle_gamma    87.3437

_space_group_name_H-M_alt    "P 1"
_space_group_IT_number       1

loop_
  _space_group_symop_operation_xyz
  'x, y, z'

loop_
  _atom_site_type_symbol
  _atom_site_label
  _atom_site_symmetry_multiplicity
  _atom_site_fract_x
  _atom_site_fract_y
  _atom_site_fract_z
  _atom_site_occupancy
  Ba  Ba1       1.0  0.73100  0.00641  0.17700  1.0000
  Ba  Ba2       1.0  0.26900  0.99400  0.82300  1.0000
  H   H1        1.0  0.50000  0.50000  0.00000  1.0000
  O   O1        1.0  0.27000  0.88900  0.07080  1.0000
  O   O2        1.0  0.87600  0.31600  0.08290  1.0000
  O   O3        1.0  0.40100  0.56500  0.08550  1.0000
  O   O4        1.0  0.91300  0.68500  0.12500  1.0000
  O   O5        1.0  0.49300  0.30200  0.26300  1.0000
  O   O6        1.0  0.52400  0.65900  0.31100  1.0000
  O   O7        1.0  0.01610  0.44100  0.31300  1.0000
  O   O8        1.0  0.13000  0.12200  0.34500  1.0000
  O   O9        1.0  0.67900  0.92000  0.40700  1.0000
  O   O10       1.0  0.21800  0.79000  0.46500  1.0000
  O   O11       1.0  0.32600  0.35500  0.47400  1.0000
  O   O12       1.0  0.67400  0.64500  0.52600  1.0000
  O   O13       1.0  0.78200  0.21000  0.53500  1.0000
  O   O14       1.0  0.32100  0.08030  0.59300  1.0000
  O   O15       1.0  0.87000  0.87800  0.65500  1.0000
  O   O16       1.0  0.98400  0.55900  0.68700  1.0000
  O   O17       1.0  0.47600  0.34100  0.68900  1.0000
  O   O18       1.0  0.50700  0.69800  0.73700  1.0000
  O   O19       1.0  0.08700  0.31500  0.87500  1.0000
  O   O20       1.0  0.59900  0.43500  0.91400  1.0000
  O   O21       1.0  0.12400  0.68400  0.91700  1.0000
  O   O22       1.0  0.73000  0.11100  0.92900  1.0000
  P   P1        1.0  0.17700  0.70800  0.05020  1.0000
  P   P2        1.0  0.23300  0.30300  0.34300  1.0000
  P   P3        1.0  0.51600  0.75700  0.42500  1.0000
  P   P4        1.0  0.48400  0.24300  0.57500  1.0000
  P   P5        1.0  0.76700  0.69700  0.65700  1.0000
  P   P6        1.0  0.82300  0.29200  0.95000  1.0000
  V   V1        1.0  0.71500  0.49500  0.20300  1.0000
  V   V2        1.0  0.00000  0.00000  0.50000  1.0000
  V   V3        1.0  0.28500  0.50500  0.79700  1.0000
