data_image0
_chemical_formula_structural       Mo4Na6O21U2
_chemical_formula_sum              "Mo4 Na6 O21 U2"
_cell_length_a       7.52963
_cell_length_b       8.06498
_cell_length_c       8.6612
_cell_angle_alpha    72.8273
_cell_angle_beta     80.3196
_cell_angle_gamma    66.0581

_space_group_name_H-M_alt    "P 1"
_space_group_IT_number       1

loop_
  _space_group_symop_operation_xyz
  'x, y, z'

loop_
  _atom_site_type_symbol
  _atom_site_label
  _atom_site_symmetry_multiplicity
  _atom_site_fract_x
  _atom_site_fract_y
  _atom_site_fract_z
  _atom_site_occupancy
  Mo  Mo1       1.0  0.44200  0.25300  0.01520  1.0000
  Mo  Mo2       1.0  0.93300  0.42100  0.35400  1.0000
  Mo  Mo3       1.0  0.06680  0.57900  0.64600  1.0000
  Mo  Mo4       1.0  0.55800  0.74700  0.98500  1.0000
  Na  Na1       1.0  0.05440  0.75700  0.00998  1.0000
  Na  Na2       1.0  0.73300  0.90700  0.34500  1.0000
  Na  Na3       1.0  0.45800  0.39300  0.34900  1.0000
  Na  Na4       1.0  0.54200  0.60700  0.65100  1.0000
  Na  Na5       1.0  0.26700  0.09300  0.65500  1.0000
  Na  Na6       1.0  0.94600  0.24300  0.99000  1.0000
  O   O1        1.0  0.27300  0.46000  0.05900  1.0000
  O   O2        1.0  0.32500  0.08170  0.06780  1.0000
  O   O3        1.0  0.62400  0.18200  0.15300  1.0000
  O   O4        1.0  0.45400  0.69000  0.19100  1.0000
  O   O5        1.0  0.03860  0.90700  0.20300  1.0000
  O   O6        1.0  0.85000  0.64700  0.22200  1.0000
  O   O7        1.0  0.00285  0.26200  0.22900  1.0000
  O   O8        1.0  0.40200  0.93300  0.42100  1.0000
  O   O9        1.0  0.15400  0.36400  0.44700  1.0000
  O   O10       1.0  0.73400  0.37200  0.49200  1.0000
  O   O11       1.0  0.00000  0.00000  0.50000  1.0000
  O   O12       1.0  0.26600  0.62800  0.50800  1.0000
  O   O13       1.0  0.84600  0.63600  0.55300  1.0000
  O   O14       1.0  0.59800  0.06700  0.57900  1.0000
  O   O15       1.0  0.99700  0.73800  0.77100  1.0000
  O   O16       1.0  0.15000  0.35300  0.77800  1.0000
  O   O17       1.0  0.96100  0.09320  0.79700  1.0000
  O   O18       1.0  0.54600  0.31000  0.80900  1.0000
  O   O19       1.0  0.37600  0.81800  0.84700  1.0000
  O   O20       1.0  0.67500  0.91800  0.93200  1.0000
  O   O21       1.0  0.72700  0.54000  0.94100  1.0000
  U   U1        1.0  0.21800  0.92100  0.31300  1.0000
  U   U2        1.0  0.78200  0.07920  0.68700  1.0000
