data_image0
_chemical_formula_structural       Ba2Fe3HO22P6
_chemical_formula_sum              "Ba2 Fe3 H1 O22 P6"
_cell_length_a       4.82678
_cell_length_b       7.85428
_cell_length_c       11.2578
_cell_angle_alpha    89.2074
_cell_angle_beta     89.6852
_cell_angle_gamma    87.3451

_space_group_name_H-M_alt    "P 1"
_space_group_IT_number       1

loop_
  _space_group_symop_operation_xyz
  'x, y, z'

loop_
  _atom_site_type_symbol
  _atom_site_label
  _atom_site_symmetry_multiplicity
  _atom_site_fract_x
  _atom_site_fract_y
  _atom_site_fract_z
  _atom_site_occupancy
  Ba  Ba1       1.0  0.73400  0.00526  0.17600  1.0000
  Ba  Ba2       1.0  0.26600  0.99500  0.82400  1.0000
  Fe  Fe1       1.0  0.72200  0.49300  0.20400  1.0000
  Fe  Fe2       1.0  0.00000  0.00000  0.50000  1.0000
  Fe  Fe3       1.0  0.27800  0.50700  0.79600  1.0000
  H   H1        1.0  0.50000  0.50000  0.00000  1.0000
  O   O1        1.0  0.27200  0.88800  0.07080  1.0000
  O   O2        1.0  0.86800  0.32000  0.08350  1.0000
  O   O3        1.0  0.40400  0.56300  0.08740  1.0000
  O   O4        1.0  0.91500  0.68300  0.12500  1.0000
  O   O5        1.0  0.49300  0.30000  0.26300  1.0000
  O   O6        1.0  0.53300  0.65600  0.31000  1.0000
  O   O7        1.0  0.01870  0.44000  0.31100  1.0000
  O   O8        1.0  0.12800  0.12000  0.34800  1.0000
  O   O9        1.0  0.68300  0.91900  0.40700  1.0000
  O   O10       1.0  0.21900  0.79300  0.46100  1.0000
  O   O11       1.0  0.32700  0.35600  0.47500  1.0000
  O   O12       1.0  0.67300  0.64400  0.52500  1.0000
  O   O13       1.0  0.78100  0.20700  0.53900  1.0000
  O   O14       1.0  0.31700  0.08070  0.59300  1.0000
  O   O15       1.0  0.87200  0.88000  0.65200  1.0000
  O   O16       1.0  0.98100  0.56000  0.68900  1.0000
  O   O17       1.0  0.46700  0.34400  0.69000  1.0000
  O   O18       1.0  0.50700  0.70000  0.73700  1.0000
  O   O19       1.0  0.08490  0.31700  0.87500  1.0000
  O   O20       1.0  0.59600  0.43700  0.91300  1.0000
  O   O21       1.0  0.13200  0.68000  0.91700  1.0000
  O   O22       1.0  0.72800  0.11200  0.92900  1.0000
  P   P1        1.0  0.18000  0.70600  0.05120  1.0000
  P   P2        1.0  0.23500  0.30200  0.34300  1.0000
  P   P3        1.0  0.51800  0.75700  0.42300  1.0000
  P   P4        1.0  0.48200  0.24300  0.57700  1.0000
  P   P5        1.0  0.76500  0.69800  0.65700  1.0000
  P   P6        1.0  0.82000  0.29400  0.94900  1.0000
