data_image0
_chemical_formula_structural       Ga10GeO20Pb3
_chemical_formula_sum              "Ga10 Ge1 O20 Pb3"
_cell_length_a       5.11761
_cell_length_b       9.74468
_cell_length_c       9.74468
_cell_angle_alpha    73.8582
_cell_angle_beta     105.09
_cell_angle_gamma    105.09

_space_group_name_H-M_alt    "P 1"
_space_group_IT_number       1

loop_
  _space_group_symop_operation_xyz
  'x, y, z'

loop_
  _atom_site_type_symbol
  _atom_site_label
  _atom_site_symmetry_multiplicity
  _atom_site_fract_x
  _atom_site_fract_y
  _atom_site_fract_z
  _atom_site_occupancy
  Ga  Ga1       1.0  0.65800  0.27800  0.00663  1.0000
  Ga  Ga2       1.0  0.83300  0.57700  0.14900  1.0000
  Ga  Ga3       1.0  0.65800  0.00663  0.27800  1.0000
  Ga  Ga4       1.0  0.50000  0.63300  0.36700  1.0000
  Ga  Ga5       1.0  0.16700  0.85100  0.42300  1.0000
  Ga  Ga6       1.0  0.83300  0.14900  0.57700  1.0000
  Ga  Ga7       1.0  0.50000  0.36700  0.63300  1.0000
  Ga  Ga8       1.0  0.34200  0.99300  0.72200  1.0000
  Ga  Ga9       1.0  0.16700  0.42300  0.85100  1.0000
  Ga  Ga10      1.0  0.34200  0.72200  0.99300  1.0000
  Ge  Ge1       1.0  0.00000  0.50000  0.50000  1.0000
  O   O1        1.0  0.98700  0.71900  0.00500  1.0000
  O   O2        1.0  0.49700  0.09390  0.09390  1.0000
  O   O3        1.0  0.64400  0.39400  0.12400  1.0000
  O   O4        1.0  0.56800  0.66400  0.17300  1.0000
  O   O5        1.0  0.01280  0.99500  0.28100  1.0000
  O   O6        1.0  0.10400  0.54300  0.31400  1.0000
  O   O7        1.0  0.43200  0.82700  0.33600  1.0000
  O   O8        1.0  0.64400  0.12400  0.39400  1.0000
  O   O9        1.0  0.61600  0.43300  0.43300  1.0000
  O   O10       1.0  0.89600  0.68600  0.45700  1.0000
  O   O11       1.0  0.10400  0.31400  0.54300  1.0000
  O   O12       1.0  0.38400  0.56700  0.56700  1.0000
  O   O13       1.0  0.35600  0.87600  0.60600  1.0000
  O   O14       1.0  0.56800  0.17300  0.66400  1.0000
  O   O15       1.0  0.89600  0.45700  0.68600  1.0000
  O   O16       1.0  0.98700  0.00500  0.71900  1.0000
  O   O17       1.0  0.43200  0.33600  0.82700  1.0000
  O   O18       1.0  0.35600  0.60600  0.87600  1.0000
  O   O19       1.0  0.50300  0.90600  0.90600  1.0000
  O   O20       1.0  0.01280  0.28100  0.99500  1.0000
  Pb  Pb1       1.0  0.00000  0.00000  0.00000  1.0000
  Pb  Pb2       1.0  0.31800  0.27700  0.27700  1.0000
  Pb  Pb3       1.0  0.68200  0.72300  0.72300  1.0000
