data_image0
_chemical_formula_structural       Cu6O16Pb4Sr4Y2
_chemical_formula_sum              "Cu6 O16 Pb4 Sr4 Y2"
_cell_length_a       14.4178
_cell_length_b       5.15911
_cell_length_c       5.10399
_cell_angle_alpha    90
_cell_angle_beta     90
_cell_angle_gamma    90

_space_group_name_H-M_alt    "P 1"
_space_group_IT_number       1

loop_
  _space_group_symop_operation_xyz
  'x, y, z'

loop_
  _atom_site_type_symbol
  _atom_site_label
  _atom_site_symmetry_multiplicity
  _atom_site_fract_x
  _atom_site_fract_y
  _atom_site_fract_z
  _atom_site_occupancy
  Cu  Cu1       1.0  0.50000  0.25000  0.24700  1.0000
  Cu  Cu2       1.0  0.10500  0.75000  0.25000  1.0000
  Cu  Cu3       1.0  0.89500  0.75000  0.25000  1.0000
  Cu  Cu4       1.0  0.89500  0.25000  0.75000  1.0000
  Cu  Cu5       1.0  0.10500  0.25000  0.75000  1.0000
  Cu  Cu6       1.0  0.50000  0.75000  0.75300  1.0000
  O   O1        1.0  0.09730  0.00000  0.00000  1.0000
  O   O2        1.0  0.90300  0.00000  0.00000  1.0000
  O   O3        1.0  0.09690  0.50000  0.00000  1.0000
  O   O4        1.0  0.90300  0.50000  0.00000  1.0000
  O   O5        1.0  0.38000  0.18800  0.21800  1.0000
  O   O6        1.0  0.62000  0.31200  0.21800  1.0000
  O   O7        1.0  0.24900  0.74500  0.25300  1.0000
  O   O8        1.0  0.75100  0.75500  0.25300  1.0000
  O   O9        1.0  0.09720  0.00000  0.50000  1.0000
  O   O10       1.0  0.90300  0.00000  0.50000  1.0000
  O   O11       1.0  0.09650  0.50000  0.50000  1.0000
  O   O12       1.0  0.90300  0.50000  0.50000  1.0000
  O   O13       1.0  0.75100  0.24500  0.74700  1.0000
  O   O14       1.0  0.24900  0.25500  0.74700  1.0000
  O   O15       1.0  0.62000  0.68800  0.78200  1.0000
  O   O16       1.0  0.38000  0.81200  0.78200  1.0000
  Pb  Pb1       1.0  0.39400  0.73500  0.25700  1.0000
  Pb  Pb2       1.0  0.60600  0.76500  0.25700  1.0000
  Pb  Pb3       1.0  0.60600  0.23500  0.74300  1.0000
  Pb  Pb4       1.0  0.39400  0.26500  0.74300  1.0000
  Sr  Sr1       1.0  0.22300  0.24900  0.25000  1.0000
  Sr  Sr2       1.0  0.77700  0.25100  0.25000  1.0000
  Sr  Sr3       1.0  0.77700  0.74900  0.75000  1.0000
  Sr  Sr4       1.0  0.22300  0.75100  0.75000  1.0000
  Y   Y1        1.0  0.00000  0.25000  0.25000  1.0000
  Y   Y2        1.0  0.00000  0.75000  0.75000  1.0000
