data_image0
_chemical_formula_structural       Fe4H6O18P6
_chemical_formula_sum              "Fe4 H6 O18 P6"
_cell_length_a       7.84259
_cell_length_b       7.84255
_cell_length_c       7.35638
_cell_angle_alpha    90
_cell_angle_beta     90
_cell_angle_gamma    120

_space_group_name_H-M_alt    "P 1"
_space_group_IT_number       1

loop_
  _space_group_symop_operation_xyz
  'x, y, z'

loop_
  _atom_site_type_symbol
  _atom_site_label
  _atom_site_symmetry_multiplicity
  _atom_site_fract_x
  _atom_site_fract_y
  _atom_site_fract_z
  _atom_site_occupancy
  Fe  Fe1       1.0  0.66700  0.33300  0.04920  1.0000
  Fe  Fe2       1.0  0.66700  0.33300  0.45100  1.0000
  Fe  Fe3       1.0  0.33300  0.66700  0.54900  1.0000
  Fe  Fe4       1.0  0.33300  0.66700  0.95100  1.0000
  H   H1        1.0  0.85900  0.03260  0.25000  1.0000
  H   H2        1.0  0.17400  0.14100  0.25000  1.0000
  H   H3        1.0  0.96700  0.82600  0.25000  1.0000
  H   H4        1.0  0.03260  0.17400  0.75000  1.0000
  H   H5        1.0  0.82600  0.85900  0.75000  1.0000
  H   H6        1.0  0.14100  0.96700  0.75000  1.0000
  O   O1        1.0  0.24800  0.42100  0.07610  1.0000
  O   O2        1.0  0.17300  0.75200  0.07610  1.0000
  O   O3        1.0  0.57900  0.82700  0.07610  1.0000
  O   O4        1.0  0.60800  0.12100  0.25000  1.0000
  O   O5        1.0  0.51300  0.39200  0.25000  1.0000
  O   O6        1.0  0.87900  0.48700  0.25000  1.0000
  O   O7        1.0  0.57900  0.82700  0.42400  1.0000
  O   O8        1.0  0.17300  0.75200  0.42400  1.0000
  O   O9        1.0  0.24800  0.42100  0.42400  1.0000
  O   O10       1.0  0.75200  0.57900  0.57600  1.0000
  O   O11       1.0  0.82700  0.24800  0.57600  1.0000
  O   O12       1.0  0.42100  0.17300  0.57600  1.0000
  O   O13       1.0  0.12100  0.51300  0.75000  1.0000
  O   O14       1.0  0.48700  0.60800  0.75000  1.0000
  O   O15       1.0  0.39200  0.87900  0.75000  1.0000
  O   O16       1.0  0.42100  0.17300  0.92400  1.0000
  O   O17       1.0  0.82700  0.24800  0.92400  1.0000
  O   O18       1.0  0.75200  0.57900  0.92400  1.0000
  P   P1        1.0  0.29600  0.34700  0.25000  1.0000
  P   P2        1.0  0.05050  0.70400  0.25000  1.0000
  P   P3        1.0  0.65300  0.94900  0.25000  1.0000
  P   P4        1.0  0.34700  0.05050  0.75000  1.0000
  P   P5        1.0  0.94900  0.29600  0.75000  1.0000
  P   P6        1.0  0.70400  0.65300  0.75000  1.0000
