data_image0
_chemical_formula_structural       Ba2Mo4O24P4
_chemical_formula_sum              "Ba2 Mo4 O24 P4"
_cell_length_a       6.37982
_cell_length_b       7.0853
_cell_length_c       9.92526
_cell_angle_alpha    90
_cell_angle_beta     95.5642
_cell_angle_gamma    90

_space_group_name_H-M_alt    "P 1"
_space_group_IT_number       1

loop_
  _space_group_symop_operation_xyz
  'x, y, z'

loop_
  _atom_site_type_symbol
  _atom_site_label
  _atom_site_symmetry_multiplicity
  _atom_site_fract_x
  _atom_site_fract_y
  _atom_site_fract_z
  _atom_site_occupancy
  Ba  Ba1       1.0  0.00000  0.00000  0.00000  1.0000
  Ba  Ba2       1.0  0.00000  0.50000  0.50000  1.0000
  Mo  Mo1       1.0  0.27800  0.46700  0.17700  1.0000
  Mo  Mo2       1.0  0.72200  0.96700  0.32300  1.0000
  Mo  Mo3       1.0  0.27800  0.03340  0.67700  1.0000
  Mo  Mo4       1.0  0.72200  0.53300  0.82300  1.0000
  O   O1        1.0  0.78400  0.66500  0.02830  1.0000
  O   O2        1.0  0.23600  0.68700  0.10400  1.0000
  O   O3        1.0  0.57000  0.41900  0.14000  1.0000
  O   O4        1.0  0.67200  0.02110  0.15400  1.0000
  O   O5        1.0  0.96100  0.42000  0.18800  1.0000
  O   O6        1.0  0.25500  0.17200  0.21600  1.0000
  O   O7        1.0  0.74500  0.67200  0.28400  1.0000
  O   O8        1.0  0.03920  0.92000  0.31200  1.0000
  O   O9        1.0  0.32800  0.52100  0.34600  1.0000
  O   O10       1.0  0.43000  0.91900  0.36000  1.0000
  O   O11       1.0  0.76400  0.18700  0.39600  1.0000
  O   O12       1.0  0.21600  0.16500  0.47200  1.0000
  O   O13       1.0  0.78400  0.83500  0.52800  1.0000
  O   O14       1.0  0.23600  0.81300  0.60400  1.0000
  O   O15       1.0  0.57000  0.08070  0.64000  1.0000
  O   O16       1.0  0.67200  0.47900  0.65400  1.0000
  O   O17       1.0  0.96100  0.07990  0.68800  1.0000
  O   O18       1.0  0.25500  0.32800  0.71600  1.0000
  O   O19       1.0  0.74500  0.82800  0.78400  1.0000
  O   O20       1.0  0.03920  0.58000  0.81200  1.0000
  O   O21       1.0  0.32800  0.97900  0.84600  1.0000
  O   O22       1.0  0.43000  0.58100  0.86000  1.0000
  O   O23       1.0  0.76400  0.31300  0.89600  1.0000
  O   O24       1.0  0.21600  0.33500  0.97200  1.0000
  P   P1        1.0  0.76600  0.55100  0.15700  1.0000
  P   P2        1.0  0.23400  0.05070  0.34300  1.0000
  P   P3        1.0  0.76600  0.94900  0.65700  1.0000
  P   P4        1.0  0.23400  0.44900  0.84300  1.0000
