data_image0
_chemical_formula_structural       Cu2F16Fe4H8O4
_chemical_formula_sum              "Cu2 F16 Fe4 H8 O4"
_cell_length_a       5.16005
_cell_length_b       5.16005
_cell_length_c       12.5803
_cell_angle_alpha    90.5051
_cell_angle_beta     89.4949
_cell_angle_gamma    89.9669

_space_group_name_H-M_alt    "P 1"
_space_group_IT_number       1

loop_
  _space_group_symop_operation_xyz
  'x, y, z'

loop_
  _atom_site_type_symbol
  _atom_site_label
  _atom_site_symmetry_multiplicity
  _atom_site_fract_x
  _atom_site_fract_y
  _atom_site_fract_z
  _atom_site_occupancy
  Cu  Cu1       1.0  0.00000  0.50000  0.00000  1.0000
  Cu  Cu2       1.0  0.50000  0.00000  0.50000  1.0000
  F   F1        1.0  0.28000  0.78500  0.09560  1.0000
  F   F2        1.0  0.80400  0.31400  0.10200  1.0000
  F   F3        1.0  0.62200  0.96600  0.23600  1.0000
  F   F4        1.0  0.12200  0.12200  0.25000  1.0000
  F   F5        1.0  0.46600  0.46600  0.25000  1.0000
  F   F6        1.0  0.96600  0.62200  0.26400  1.0000
  F   F7        1.0  0.31400  0.80400  0.39800  1.0000
  F   F8        1.0  0.78500  0.28000  0.40400  1.0000
  F   F9        1.0  0.21500  0.72000  0.59600  1.0000
  F   F10       1.0  0.68600  0.19600  0.60200  1.0000
  F   F11       1.0  0.03420  0.37800  0.73600  1.0000
  F   F12       1.0  0.53400  0.53400  0.75000  1.0000
  F   F13       1.0  0.87800  0.87800  0.75000  1.0000
  F   F14       1.0  0.37800  0.03420  0.76400  1.0000
  F   F15       1.0  0.19600  0.68600  0.89800  1.0000
  F   F16       1.0  0.72000  0.21500  0.90400  1.0000
  Fe  Fe1       1.0  0.29300  0.79300  0.24800  1.0000
  Fe  Fe2       1.0  0.79300  0.29300  0.25200  1.0000
  Fe  Fe3       1.0  0.20700  0.70700  0.74800  1.0000
  Fe  Fe4       1.0  0.70700  0.20700  0.75200  1.0000
  H   H1        1.0  0.57300  0.75100  0.03730  1.0000
  H   H2        1.0  0.24700  0.07280  0.03930  1.0000
  H   H3        1.0  0.07280  0.24700  0.46100  1.0000
  H   H4        1.0  0.75100  0.57300  0.46300  1.0000
  H   H5        1.0  0.24900  0.42700  0.53700  1.0000
  H   H6        1.0  0.92700  0.75300  0.53900  1.0000
  H   H7        1.0  0.75300  0.92700  0.96100  1.0000
  H   H8        1.0  0.42700  0.24900  0.96300  1.0000
  O   O1        1.0  0.26200  0.24100  0.00276  1.0000
  O   O2        1.0  0.24100  0.26200  0.49700  1.0000
  O   O3        1.0  0.75900  0.73800  0.50300  1.0000
  O   O4        1.0  0.73800  0.75900  0.99700  1.0000
