data_image0
_chemical_formula_structural       Nb4O24P6
_chemical_formula_sum              "Nb4 O24 P6"
_cell_length_a       8.77627
_cell_length_b       8.77627
_cell_length_c       8.83353
_cell_angle_alpha    119.786
_cell_angle_beta     119.786
_cell_angle_gamma    60

_space_group_name_H-M_alt    "P 1"
_space_group_IT_number       1

loop_
  _space_group_symop_operation_xyz
  'x, y, z'

loop_
  _atom_site_type_symbol
  _atom_site_label
  _atom_site_symmetry_multiplicity
  _atom_site_fract_x
  _atom_site_fract_y
  _atom_site_fract_z
  _atom_site_occupancy
  Nb  Nb1       1.0  0.36200  0.36200  0.08620  1.0000
  Nb  Nb2       1.0  0.13800  0.13800  0.41400  1.0000
  Nb  Nb3       1.0  0.86200  0.86200  0.58600  1.0000
  Nb  Nb4       1.0  0.63800  0.63800  0.91400  1.0000
  O   O1        1.0  0.87000  0.49800  0.07570  1.0000
  O   O2        1.0  0.49800  0.70800  0.07570  1.0000
  O   O3        1.0  0.70800  0.87000  0.07570  1.0000
  O   O4        1.0  0.58400  0.21600  0.24300  1.0000
  O   O5        1.0  0.21600  0.44300  0.24300  1.0000
  O   O6        1.0  0.44300  0.58400  0.24300  1.0000
  O   O7        1.0  0.91600  0.05660  0.25700  1.0000
  O   O8        1.0  0.05660  0.28400  0.25700  1.0000
  O   O9        1.0  0.28400  0.91600  0.25700  1.0000
  O   O10       1.0  0.79200  0.00226  0.42400  1.0000
  O   O11       1.0  0.00226  0.63000  0.42400  1.0000
  O   O12       1.0  0.63000  0.79200  0.42400  1.0000
  O   O13       1.0  0.37000  0.20800  0.57600  1.0000
  O   O14       1.0  0.99800  0.37000  0.57600  1.0000
  O   O15       1.0  0.20800  0.99800  0.57600  1.0000
  O   O16       1.0  0.71600  0.08410  0.74300  1.0000
  O   O17       1.0  0.94300  0.71600  0.74300  1.0000
  O   O18       1.0  0.08410  0.94300  0.74300  1.0000
  O   O19       1.0  0.55700  0.41600  0.75700  1.0000
  O   O20       1.0  0.78400  0.55700  0.75700  1.0000
  O   O21       1.0  0.41600  0.78400  0.75700  1.0000
  O   O22       1.0  0.29200  0.13000  0.92400  1.0000
  O   O23       1.0  0.50200  0.29200  0.92400  1.0000
  O   O24       1.0  0.13000  0.50200  0.92400  1.0000
  P   P1        1.0  0.75000  0.03400  0.25000  1.0000
  P   P2        1.0  0.03400  0.46600  0.25000  1.0000
  P   P3        1.0  0.46600  0.75000  0.25000  1.0000
  P   P4        1.0  0.53400  0.25000  0.75000  1.0000
  P   P5        1.0  0.96600  0.53400  0.75000  1.0000
  P   P6        1.0  0.25000  0.96600  0.75000  1.0000
