data_image0
_chemical_formula_structural       Al14Te20
_chemical_formula_sum              "Al14 Te20"
_cell_length_a       10.472
_cell_length_b       10.472
_cell_length_c       10.472
_cell_angle_alpha    89.7905
_cell_angle_beta     90.2095
_cell_angle_gamma    90.2095

_space_group_name_H-M_alt    "P 1"
_space_group_IT_number       1

loop_
  _space_group_symop_operation_xyz
  'x, y, z'

loop_
  _atom_site_type_symbol
  _atom_site_label
  _atom_site_symmetry_multiplicity
  _atom_site_fract_x
  _atom_site_fract_y
  _atom_site_fract_z
  _atom_site_occupancy
  Al  Al1       1.0  0.84600  0.42200  0.11100  1.0000
  Al  Al2       1.0  0.57800  0.11100  0.15400  1.0000
  Al  Al3       1.0  0.65400  0.74200  0.16300  1.0000
  Al  Al4       1.0  0.34600  0.83700  0.25800  1.0000
  Al  Al5       1.0  0.25800  0.16300  0.34600  1.0000
  Al  Al6       1.0  0.88900  0.15400  0.42200  1.0000
  Al  Al7       1.0  0.57200  0.42800  0.42800  1.0000
  Al  Al8       1.0  0.42800  0.57200  0.57200  1.0000
  Al  Al9       1.0  0.15400  0.88900  0.57800  1.0000
  Al  Al10      1.0  0.16300  0.25800  0.65400  1.0000
  Al  Al11      1.0  0.83700  0.34600  0.74200  1.0000
  Al  Al12      1.0  0.74200  0.65400  0.83700  1.0000
  Al  Al13      1.0  0.11100  0.57800  0.84600  1.0000
  Al  Al14      1.0  0.42200  0.84600  0.88900  1.0000
  Te  Te1       1.0  0.82000  0.82000  1.00000  1.0000
  Te  Te2       1.0  0.42200  0.67100  0.07680  1.0000
  Te  Te3       1.0  0.08000  0.50000  0.08000  1.0000
  Te  Te4       1.0  0.83000  0.17000  0.17000  1.0000
  Te  Te5       1.0  0.18000  0.00000  0.18000  1.0000
  Te  Te6       1.0  0.44000  0.30900  0.24100  1.0000
  Te  Te7       1.0  0.75900  0.56000  0.30900  1.0000
  Te  Te8       1.0  0.57800  0.92300  0.32900  1.0000
  Te  Te9       1.0  0.07680  0.32900  0.42200  1.0000
  Te  Te10      1.0  0.24100  0.69100  0.44000  1.0000
  Te  Te11      1.0  0.92000  0.92000  0.50000  1.0000
  Te  Te12      1.0  0.69100  0.24100  0.56000  1.0000
  Te  Te13      1.0  0.32900  0.07680  0.57800  1.0000
  Te  Te14      1.0  0.92300  0.57800  0.67100  1.0000
  Te  Te15      1.0  0.56000  0.75900  0.69100  1.0000
  Te  Te16      1.0  0.30900  0.44000  0.75900  1.0000
  Te  Te17      1.0  0.00000  0.18000  0.82000  1.0000
  Te  Te18      1.0  0.17000  0.83000  0.83000  1.0000
  Te  Te19      1.0  0.50000  0.08000  0.92000  1.0000
  Te  Te20      1.0  0.67100  0.42200  0.92300  1.0000
