data_image0
_chemical_formula_structural       Mn6O20Sr8
_chemical_formula_sum              "Mn6 O20 Sr8"
_cell_length_a       5.47389
_cell_length_b       6.79649
_cell_length_c       12.5968
_cell_angle_alpha    90
_cell_angle_beta     90
_cell_angle_gamma    66.2529

_space_group_name_H-M_alt    "P 1"
_space_group_IT_number       1

loop_
  _space_group_symop_operation_xyz
  'x, y, z'

loop_
  _atom_site_type_symbol
  _atom_site_label
  _atom_site_symmetry_multiplicity
  _atom_site_fract_x
  _atom_site_fract_y
  _atom_site_fract_z
  _atom_site_occupancy
  Mn  Mn1       1.0  0.00000  0.00000  0.00000  1.0000
  Mn  Mn2       1.0  0.13500  0.73100  0.15100  1.0000
  Mn  Mn3       1.0  0.63500  0.73100  0.34900  1.0000
  Mn  Mn4       1.0  0.50000  0.00000  0.50000  1.0000
  Mn  Mn5       1.0  0.36500  0.26900  0.65100  1.0000
  Mn  Mn6       1.0  0.86500  0.26900  0.84900  1.0000
  O   O1        1.0  0.34200  0.77800  0.03520  1.0000
  O   O2        1.0  0.88000  0.77800  0.03520  1.0000
  O   O3        1.0  0.96400  0.07120  0.14800  1.0000
  O   O4        1.0  0.28000  0.44100  0.15300  1.0000
  O   O5        1.0  0.36900  0.76200  0.25000  1.0000
  O   O6        1.0  0.86900  0.76200  0.25000  1.0000
  O   O7        1.0  0.78000  0.44100  0.34700  1.0000
  O   O8        1.0  0.46400  0.07120  0.35200  1.0000
  O   O9        1.0  0.38000  0.77800  0.46500  1.0000
  O   O10       1.0  0.84200  0.77800  0.46500  1.0000
  O   O11       1.0  0.15800  0.22200  0.53500  1.0000
  O   O12       1.0  0.62000  0.22200  0.53500  1.0000
  O   O13       1.0  0.53600  0.92900  0.64800  1.0000
  O   O14       1.0  0.22000  0.55900  0.65300  1.0000
  O   O15       1.0  0.13100  0.23800  0.75000  1.0000
  O   O16       1.0  0.63100  0.23800  0.75000  1.0000
  O   O17       1.0  0.72000  0.55900  0.84700  1.0000
  O   O18       1.0  0.03560  0.92900  0.85200  1.0000
  O   O19       1.0  0.12000  0.22200  0.96500  1.0000
  O   O20       1.0  0.65800  0.22200  0.96500  1.0000
  Sr  Sr1       1.0  0.76400  0.47100  0.11400  1.0000
  Sr  Sr2       1.0  0.47200  0.05570  0.14400  1.0000
  Sr  Sr3       1.0  0.97200  0.05570  0.35600  1.0000
  Sr  Sr4       1.0  0.26400  0.47100  0.38600  1.0000
  Sr  Sr5       1.0  0.73600  0.52900  0.61400  1.0000
  Sr  Sr6       1.0  0.02780  0.94400  0.64400  1.0000
  Sr  Sr7       1.0  0.52800  0.94400  0.85600  1.0000
  Sr  Sr8       1.0  0.23600  0.52900  0.88600  1.0000
