data_image0
_chemical_formula_structural       Ba8Cu4Nd4O18
_chemical_formula_sum              "Ba8 Cu4 Nd4 O18"
_cell_length_a       11.9831
_cell_length_b       11.9831
_cell_length_c       3.86655
_cell_angle_alpha    90
_cell_angle_beta     90
_cell_angle_gamma    90

_space_group_name_H-M_alt    "P 1"
_space_group_IT_number       1

loop_
  _space_group_symop_operation_xyz
  'x, y, z'

loop_
  _atom_site_type_symbol
  _atom_site_label
  _atom_site_symmetry_multiplicity
  _atom_site_fract_x
  _atom_site_fract_y
  _atom_site_fract_z
  _atom_site_occupancy
  Ba  Ba1       1.0  0.61200  0.32900  0.24400  1.0000
  Ba  Ba2       1.0  0.38800  0.67100  0.24400  1.0000
  Ba  Ba3       1.0  0.82900  0.11200  0.25600  1.0000
  Ba  Ba4       1.0  0.17100  0.88800  0.25600  1.0000
  Ba  Ba5       1.0  0.11200  0.17100  0.74400  1.0000
  Ba  Ba6       1.0  0.88800  0.82900  0.74400  1.0000
  Ba  Ba7       1.0  0.32900  0.38800  0.75600  1.0000
  Ba  Ba8       1.0  0.67100  0.61200  0.75600  1.0000
  Cu  Cu1       1.0  0.10000  0.40000  0.25000  1.0000
  Cu  Cu2       1.0  0.90000  0.60000  0.25000  1.0000
  Cu  Cu3       1.0  0.60000  0.10000  0.75000  1.0000
  Cu  Cu4       1.0  0.40000  0.90000  0.75000  1.0000
  Nd  Nd1       1.0  0.38900  0.11100  0.25000  1.0000
  Nd  Nd2       1.0  0.61100  0.88900  0.25000  1.0000
  Nd  Nd3       1.0  0.88900  0.38900  0.75000  1.0000
  Nd  Nd4       1.0  0.11100  0.61100  0.75000  1.0000
  O   O1        1.0  0.50000  0.50000  0.00000  1.0000
  O   O2        1.0  0.97600  0.28900  0.24900  1.0000
  O   O3        1.0  0.02380  0.71100  0.24900  1.0000
  O   O4        1.0  0.59300  0.09270  0.25000  1.0000
  O   O5        1.0  0.25400  0.24600  0.25000  1.0000
  O   O6        1.0  0.74600  0.75400  0.25000  1.0000
  O   O7        1.0  0.40700  0.90700  0.25000  1.0000
  O   O8        1.0  0.78900  0.47600  0.25100  1.0000
  O   O9        1.0  0.21100  0.52400  0.25100  1.0000
  O   O10       1.0  0.00000  0.00000  0.50000  1.0000
  O   O11       1.0  0.47600  0.21100  0.74900  1.0000
  O   O12       1.0  0.52400  0.78900  0.74900  1.0000
  O   O13       1.0  0.75400  0.25400  0.75000  1.0000
  O   O14       1.0  0.09270  0.40700  0.75000  1.0000
  O   O15       1.0  0.90700  0.59300  0.75000  1.0000
  O   O16       1.0  0.24600  0.74600  0.75000  1.0000
  O   O17       1.0  0.28900  0.02380  0.75100  1.0000
  O   O18       1.0  0.71100  0.97600  0.75100  1.0000
