data_image0
_chemical_formula_structural       H8O20Si2U4
_chemical_formula_sum              "H8 O20 Si2 U4"
_cell_length_a       6.94573
_cell_length_b       6.94573
_cell_length_c       10.179
_cell_angle_alpha    103.261
_cell_angle_beta     103.261
_cell_angle_gamma    109.125

_space_group_name_H-M_alt    "P 1"
_space_group_IT_number       1

loop_
  _space_group_symop_operation_xyz
  'x, y, z'

loop_
  _atom_site_type_symbol
  _atom_site_label
  _atom_site_symmetry_multiplicity
  _atom_site_fract_x
  _atom_site_fract_y
  _atom_site_fract_z
  _atom_site_occupancy
  H   H1        1.0  0.48700  0.67500  0.09580  1.0000
  H   H2        1.0  0.60900  0.92100  0.09580  1.0000
  H   H3        1.0  0.07920  0.39100  0.40400  1.0000
  H   H4        1.0  0.32500  0.51300  0.40400  1.0000
  H   H5        1.0  0.67500  0.48700  0.59600  1.0000
  H   H6        1.0  0.92100  0.60900  0.59600  1.0000
  H   H7        1.0  0.39100  0.07920  0.90400  1.0000
  H   H8        1.0  0.51300  0.32500  0.90400  1.0000
  O   O1        1.0  0.77100  0.18900  0.09030  1.0000
  O   O2        1.0  0.32000  0.40100  0.09030  1.0000
  O   O3        1.0  0.09220  0.00222  0.13600  1.0000
  O   O4        1.0  0.04360  0.63400  0.13600  1.0000
  O   O5        1.0  0.57700  0.82700  0.15400  1.0000
  O   O6        1.0  0.17300  0.42300  0.34600  1.0000
  O   O7        1.0  0.99800  0.90800  0.36400  1.0000
  O   O8        1.0  0.36600  0.95600  0.36400  1.0000
  O   O9        1.0  0.81100  0.22900  0.41000  1.0000
  O   O10       1.0  0.59900  0.68000  0.41000  1.0000
  O   O11       1.0  0.40100  0.32000  0.59000  1.0000
  O   O12       1.0  0.18900  0.77100  0.59000  1.0000
  O   O13       1.0  0.63400  0.04360  0.63600  1.0000
  O   O14       1.0  0.00222  0.09220  0.63600  1.0000
  O   O15       1.0  0.82700  0.57700  0.65400  1.0000
  O   O16       1.0  0.42300  0.17300  0.84600  1.0000
  O   O17       1.0  0.95600  0.36600  0.86400  1.0000
  O   O18       1.0  0.90800  0.99800  0.86400  1.0000
  O   O19       1.0  0.68000  0.59900  0.91000  1.0000
  O   O20       1.0  0.22900  0.81100  0.91000  1.0000
  Si  Si1       1.0  0.12500  0.87500  0.25000  1.0000
  Si  Si2       1.0  0.87500  0.12500  0.75000  1.0000
  U   U1        1.0  0.04480  0.29500  0.08960  1.0000
  U   U2        1.0  0.70500  0.95500  0.41000  1.0000
  U   U3        1.0  0.29500  0.04480  0.59000  1.0000
  U   U4        1.0  0.95500  0.70500  0.91000  1.0000
