data_image0
_chemical_formula_structural       Au2K6Se26
_chemical_formula_sum              "Au2 K6 Se26"
_cell_length_a       15.2981
_cell_length_b       5.08714
_cell_length_c       13.8349
_cell_angle_alpha    90
_cell_angle_beta     94.4566
_cell_angle_gamma    90

_space_group_name_H-M_alt    "P 1"
_space_group_IT_number       1

loop_
  _space_group_symop_operation_xyz
  'x, y, z'

loop_
  _atom_site_type_symbol
  _atom_site_label
  _atom_site_symmetry_multiplicity
  _atom_site_fract_x
  _atom_site_fract_y
  _atom_site_fract_z
  _atom_site_occupancy
  Au  Au1       1.0  0.50000  0.00000  0.00000  1.0000
  Au  Au2       1.0  0.50000  0.00000  0.50000  1.0000
  K   K1        1.0  0.27700  0.19900  0.16300  1.0000
  K   K2        1.0  0.00000  0.16200  0.25000  1.0000
  K   K3        1.0  0.72300  0.19900  0.33700  1.0000
  K   K4        1.0  0.27700  0.80100  0.66300  1.0000
  K   K5        1.0  0.00000  0.83800  0.75000  1.0000
  K   K6        1.0  0.72300  0.80100  0.83700  1.0000
  Se  Se1       1.0  0.85100  0.07710  0.03510  1.0000
  Se  Se2       1.0  0.38000  0.70000  0.05090  1.0000
  Se  Se3       1.0  0.73200  0.35700  0.07710  1.0000
  Se  Se4       1.0  0.07210  0.68000  0.07970  1.0000
  Se  Se5       1.0  0.58800  0.90200  0.15800  1.0000
  Se  Se6       1.0  0.15100  0.69000  0.23400  1.0000
  Se  Se7       1.0  0.50000  0.62600  0.25000  1.0000
  Se  Se8       1.0  0.84900  0.69000  0.26600  1.0000
  Se  Se9       1.0  0.41200  0.90200  0.34200  1.0000
  Se  Se10      1.0  0.92800  0.68000  0.42000  1.0000
  Se  Se11      1.0  0.26800  0.35700  0.42300  1.0000
  Se  Se12      1.0  0.62000  0.70000  0.44900  1.0000
  Se  Se13      1.0  0.14900  0.07710  0.46500  1.0000
  Se  Se14      1.0  0.85100  0.92300  0.53500  1.0000
  Se  Se15      1.0  0.38000  0.30000  0.55100  1.0000
  Se  Se16      1.0  0.73200  0.64300  0.57700  1.0000
  Se  Se17      1.0  0.07210  0.32000  0.58000  1.0000
  Se  Se18      1.0  0.58800  0.09790  0.65800  1.0000
  Se  Se19      1.0  0.15100  0.31000  0.73400  1.0000
  Se  Se20      1.0  0.50000  0.37400  0.75000  1.0000
  Se  Se21      1.0  0.84900  0.31000  0.76600  1.0000
  Se  Se22      1.0  0.41200  0.09790  0.84200  1.0000
  Se  Se23      1.0  0.92800  0.32000  0.92000  1.0000
  Se  Se24      1.0  0.26800  0.64300  0.92300  1.0000
  Se  Se25      1.0  0.62000  0.30000  0.94900  1.0000
  Se  Se26      1.0  0.14900  0.92300  0.96500  1.0000
