data_image0
_chemical_formula_structural       Ba8O20Pt2Ti4
_chemical_formula_sum              "Ba8 O20 Pt2 Ti4"
_cell_length_a       5.77917
_cell_length_b       7.29678
_cell_length_c       13.1118
_cell_angle_alpha    90
_cell_angle_beta     90
_cell_angle_gamma    66.6711

_space_group_name_H-M_alt    "P 1"
_space_group_IT_number       1

loop_
  _space_group_symop_operation_xyz
  'x, y, z'

loop_
  _atom_site_type_symbol
  _atom_site_label
  _atom_site_symmetry_multiplicity
  _atom_site_fract_x
  _atom_site_fract_y
  _atom_site_fract_z
  _atom_site_occupancy
  Ba  Ba1       1.0  0.76500  0.46900  0.10800  1.0000
  Ba  Ba2       1.0  0.47000  0.05980  0.14100  1.0000
  Ba  Ba3       1.0  0.97000  0.05980  0.35900  1.0000
  Ba  Ba4       1.0  0.26500  0.46900  0.39200  1.0000
  Ba  Ba5       1.0  0.73500  0.53100  0.60800  1.0000
  Ba  Ba6       1.0  0.02990  0.94000  0.64100  1.0000
  Ba  Ba7       1.0  0.53000  0.94000  0.85900  1.0000
  Ba  Ba8       1.0  0.23500  0.53100  0.89200  1.0000
  O   O1        1.0  0.33900  0.77800  0.03680  1.0000
  O   O2        1.0  0.88300  0.77800  0.03680  1.0000
  O   O3        1.0  0.27300  0.45500  0.15100  1.0000
  O   O4        1.0  0.96500  0.07040  0.15200  1.0000
  O   O5        1.0  0.37300  0.75300  0.25000  1.0000
  O   O6        1.0  0.87300  0.75300  0.25000  1.0000
  O   O7        1.0  0.46500  0.07040  0.34800  1.0000
  O   O8        1.0  0.77300  0.45500  0.34900  1.0000
  O   O9        1.0  0.38300  0.77800  0.46300  1.0000
  O   O10       1.0  0.83900  0.77800  0.46300  1.0000
  O   O11       1.0  0.16100  0.22200  0.53700  1.0000
  O   O12       1.0  0.61700  0.22200  0.53700  1.0000
  O   O13       1.0  0.22700  0.54500  0.65100  1.0000
  O   O14       1.0  0.53500  0.93000  0.65200  1.0000
  O   O15       1.0  0.12700  0.24700  0.75000  1.0000
  O   O16       1.0  0.62700  0.24700  0.75000  1.0000
  O   O17       1.0  0.03520  0.93000  0.84800  1.0000
  O   O18       1.0  0.72700  0.54500  0.84900  1.0000
  O   O19       1.0  0.11700  0.22200  0.96300  1.0000
  O   O20       1.0  0.66100  0.22200  0.96300  1.0000
  Pt  Pt1       1.0  0.00000  0.00000  0.00000  1.0000
  Pt  Pt2       1.0  0.50000  0.00000  0.50000  1.0000
  Ti  Ti1       1.0  0.13700  0.72700  0.15400  1.0000
  Ti  Ti2       1.0  0.63700  0.72700  0.34600  1.0000
  Ti  Ti3       1.0  0.36300  0.27300  0.65400  1.0000
  Ti  Ti4       1.0  0.86300  0.27300  0.84600  1.0000
