data_image0
_chemical_formula_structural       As8Na4O22
_chemical_formula_sum              "As8 Na4 O22"
_cell_length_a       6.10951
_cell_length_b       6.10951
_cell_length_c       11.5456
_cell_angle_alpha    99.0164
_cell_angle_beta     80.9836
_cell_angle_gamma    95.0821

_space_group_name_H-M_alt    "P 1"
_space_group_IT_number       1

loop_
  _space_group_symop_operation_xyz
  'x, y, z'

loop_
  _atom_site_type_symbol
  _atom_site_label
  _atom_site_symmetry_multiplicity
  _atom_site_fract_x
  _atom_site_fract_y
  _atom_site_fract_z
  _atom_site_occupancy
  As  As1       1.0  0.91100  0.99600  0.11700  1.0000
  As  As2       1.0  0.04280  0.52700  0.16800  1.0000
  As  As3       1.0  0.52700  0.04280  0.33200  1.0000
  As  As4       1.0  0.99600  0.91100  0.38300  1.0000
  As  As5       1.0  0.00382  0.08910  0.61700  1.0000
  As  As6       1.0  0.47300  0.95700  0.66800  1.0000
  As  As7       1.0  0.95700  0.47300  0.83200  1.0000
  As  As8       1.0  0.08910  0.00382  0.88300  1.0000
  Na  Na1       1.0  0.54100  0.26200  0.03150  1.0000
  Na  Na2       1.0  0.26200  0.54100  0.46800  1.0000
  Na  Na3       1.0  0.73800  0.45900  0.53200  1.0000
  Na  Na4       1.0  0.45900  0.73800  0.96800  1.0000
  O   O1        1.0  0.18800  0.02580  0.02790  1.0000
  O   O2        1.0  0.90000  0.69100  0.09760  1.0000
  O   O3        1.0  0.31400  0.52700  0.12300  1.0000
  O   O4        1.0  0.86200  0.29800  0.14200  1.0000
  O   O5        1.0  0.60700  0.97100  0.17900  1.0000
  O   O6        1.0  0.03940  0.03940  0.25000  1.0000
  O   O7        1.0  0.97100  0.60700  0.32100  1.0000
  O   O8        1.0  0.29800  0.86200  0.35800  1.0000
  O   O9        1.0  0.52700  0.31400  0.37700  1.0000
  O   O10       1.0  0.69100  0.90000  0.40200  1.0000
  O   O11       1.0  0.02580  0.18800  0.47200  1.0000
  O   O12       1.0  0.97400  0.81200  0.52800  1.0000
  O   O13       1.0  0.30900  0.10000  0.59800  1.0000
  O   O14       1.0  0.47300  0.68600  0.62300  1.0000
  O   O15       1.0  0.70200  0.13800  0.64200  1.0000
  O   O16       1.0  0.02860  0.39300  0.67900  1.0000
  O   O17       1.0  0.96100  0.96100  0.75000  1.0000
  O   O18       1.0  0.39300  0.02860  0.82100  1.0000
  O   O19       1.0  0.13800  0.70200  0.85800  1.0000
  O   O20       1.0  0.68600  0.47300  0.87700  1.0000
  O   O21       1.0  0.10000  0.30900  0.90200  1.0000
  O   O22       1.0  0.81200  0.97400  0.97200  1.0000
