data_image0
_chemical_formula_structural       Be8H4O18Si4
_chemical_formula_sum              "Be8 H4 O18 Si4"
_cell_length_a       4.54163
_cell_length_b       8.63648
_cell_length_c       8.66785
_cell_angle_alpha    60.1197
_cell_angle_beta     90
_cell_angle_gamma    90

_space_group_name_H-M_alt    "P 1"
_space_group_IT_number       1

loop_
  _space_group_symop_operation_xyz
  'x, y, z'

loop_
  _atom_site_type_symbol
  _atom_site_label
  _atom_site_symmetry_multiplicity
  _atom_site_fract_x
  _atom_site_fract_y
  _atom_site_fract_z
  _atom_site_occupancy
  Be  Be1       1.0  0.99000  0.11500  0.10900  1.0000
  Be  Be2       1.0  0.99000  0.77600  0.10900  1.0000
  Be  Be3       1.0  0.99600  0.10700  0.44300  1.0000
  Be  Be4       1.0  0.99600  0.45000  0.44300  1.0000
  Be  Be5       1.0  0.49600  0.55000  0.55700  1.0000
  Be  Be6       1.0  0.49600  0.89300  0.55700  1.0000
  Be  Be7       1.0  0.49000  0.22400  0.89100  1.0000
  Be  Be8       1.0  0.49000  0.88500  0.89100  1.0000
  H   H1        1.0  0.20800  0.86000  0.28100  1.0000
  H   H2        1.0  0.72100  0.80600  0.38800  1.0000
  H   H3        1.0  0.22100  0.19400  0.61200  1.0000
  H   H4        1.0  0.70800  0.14000  0.71900  1.0000
  O   O1        1.0  0.63800  0.15800  0.08610  1.0000
  O   O2        1.0  0.63800  0.75600  0.08610  1.0000
  O   O3        1.0  0.56700  0.42200  0.15600  1.0000
  O   O4        1.0  0.04600  0.90300  0.19400  1.0000
  O   O5        1.0  0.14100  0.17300  0.24700  1.0000
  O   O6        1.0  0.14100  0.58000  0.24700  1.0000
  O   O7        1.0  0.64400  0.08800  0.42100  1.0000
  O   O8        1.0  0.64400  0.49100  0.42100  1.0000
  O   O9        1.0  0.55900  0.76200  0.47500  1.0000
  O   O10       1.0  0.05910  0.23800  0.52500  1.0000
  O   O11       1.0  0.14400  0.50900  0.57900  1.0000
  O   O12       1.0  0.14400  0.91200  0.57900  1.0000
  O   O13       1.0  0.64100  0.42000  0.75300  1.0000
  O   O14       1.0  0.64100  0.82700  0.75300  1.0000
  O   O15       1.0  0.54600  0.09720  0.80600  1.0000
  O   O16       1.0  0.06660  0.57800  0.84400  1.0000
  O   O17       1.0  0.13800  0.24400  0.91400  1.0000
  O   O18       1.0  0.13800  0.84200  0.91400  1.0000
  Si  Si1       1.0  0.49500  0.21300  0.22500  1.0000
  Si  Si2       1.0  0.49500  0.56100  0.22500  1.0000
  Si  Si3       1.0  0.99500  0.43900  0.77500  1.0000
  Si  Si4       1.0  0.99500  0.78700  0.77500  1.0000
