data_image0
_chemical_formula_structural       Ca4Mn4O10
_chemical_formula_sum              "Ca4 Mn4 O10"
_cell_length_a       5.44129
_cell_length_b       10.1467
_cell_length_c       3.8286
_cell_angle_alpha    90
_cell_angle_beta     90
_cell_angle_gamma    90

_space_group_name_H-M_alt    "P 1"
_space_group_IT_number       1

loop_
  _space_group_symop_operation_xyz
  'x, y, z'

loop_
  _atom_site_type_symbol
  _atom_site_label
  _atom_site_symmetry_multiplicity
  _atom_site_fract_x
  _atom_site_fract_y
  _atom_site_fract_z
  _atom_site_occupancy
  Ca  Ca1       1.0  0.31000  0.36900  0.50000  1.0000
  Ca  Ca2       1.0  0.69000  0.63100  0.50000  1.0000
  Ca  Ca3       1.0  0.81000  0.13100  0.50000  1.0000
  Ca  Ca4       1.0  0.19000  0.86900  0.50000  1.0000
  Mn  Mn1       1.0  0.28200  0.11900  0.00000  1.0000
  Mn  Mn2       1.0  0.71800  0.88100  0.00000  1.0000
  Mn  Mn3       1.0  0.78200  0.38100  0.00000  1.0000
  Mn  Mn4       1.0  0.21800  0.61900  0.00000  1.0000
  O   O1        1.0  0.00000  0.00000  0.00000  1.0000
  O   O2        1.0  0.50000  0.50000  0.00000  1.0000
  O   O3        1.0  0.08820  0.29400  0.00000  1.0000
  O   O4        1.0  0.91200  0.70600  0.00000  1.0000
  O   O5        1.0  0.58800  0.20600  0.00000  1.0000
  O   O6        1.0  0.41200  0.79400  0.00000  1.0000
  O   O7        1.0  0.28800  0.10200  0.50000  1.0000
  O   O8        1.0  0.71200  0.89800  0.50000  1.0000
  O   O9        1.0  0.78800  0.39800  0.50000  1.0000
  O   O10       1.0  0.21200  0.60200  0.50000  1.0000
