data_image0
_chemical_formula_structural       Cl4Cs4H12O12Te2
_chemical_formula_sum              "Cl4 Cs4 H12 O12 Te2"
_cell_length_a       6.21483
_cell_length_b       11.0169
_cell_length_c       7.78151
_cell_angle_alpha    90
_cell_angle_beta     107.821
_cell_angle_gamma    90

_space_group_name_H-M_alt    "P 1"
_space_group_IT_number       1

loop_
  _space_group_symop_operation_xyz
  'x, y, z'

loop_
  _atom_site_type_symbol
  _atom_site_label
  _atom_site_symmetry_multiplicity
  _atom_site_fract_x
  _atom_site_fract_y
  _atom_site_fract_z
  _atom_site_occupancy
  Cl  Cl1       1.0  0.37900  0.32800  0.19000  1.0000
  Cl  Cl2       1.0  0.62100  0.82800  0.31000  1.0000
  Cl  Cl3       1.0  0.37900  0.17200  0.69000  1.0000
  Cl  Cl4       1.0  0.62100  0.67200  0.81000  1.0000
  Cs  Cs1       1.0  0.24600  0.62600  0.05830  1.0000
  Cs  Cs2       1.0  0.75400  0.12600  0.44200  1.0000
  Cs  Cs3       1.0  0.24600  0.87400  0.55800  1.0000
  Cs  Cs4       1.0  0.75400  0.37400  0.94200  1.0000
  H   H1        1.0  0.39000  0.91700  0.07650  1.0000
  H   H2        1.0  0.84500  0.85100  0.17200  1.0000
  H   H3        1.0  0.22400  0.15700  0.20600  1.0000
  H   H4        1.0  0.77600  0.65700  0.29400  1.0000
  H   H5        1.0  0.15500  0.35100  0.32800  1.0000
  H   H6        1.0  0.61000  0.41700  0.42400  1.0000
  H   H7        1.0  0.39000  0.58300  0.57600  1.0000
  H   H8        1.0  0.84500  0.64900  0.67200  1.0000
  H   H9        1.0  0.22400  0.34300  0.70600  1.0000
  H   H10       1.0  0.77600  0.84300  0.79400  1.0000
  H   H11       1.0  0.15500  0.14900  0.82800  1.0000
  H   H12       1.0  0.61000  0.08280  0.92400  1.0000
  O   O1        1.0  0.72900  0.06790  0.04110  1.0000
  O   O2        1.0  0.98700  0.85400  0.13700  1.0000
  O   O3        1.0  0.17600  0.07330  0.22900  1.0000
  O   O4        1.0  0.82400  0.57300  0.27100  1.0000
  O   O5        1.0  0.01310  0.35400  0.36300  1.0000
  O   O6        1.0  0.27100  0.56800  0.45900  1.0000
  O   O7        1.0  0.72900  0.43200  0.54100  1.0000
  O   O8        1.0  0.98700  0.64600  0.63700  1.0000
  O   O9        1.0  0.17600  0.42700  0.72900  1.0000
  O   O10       1.0  0.82400  0.92700  0.77100  1.0000
  O   O11       1.0  0.01310  0.14600  0.86300  1.0000
  O   O12       1.0  0.27100  0.93200  0.95900  1.0000
  Te  Te1       1.0  0.00000  0.00000  0.00000  1.0000
  Te  Te2       1.0  0.00000  0.50000  0.50000  1.0000
