data_image0
_chemical_formula_structural       Nd4O22Ti8
_chemical_formula_sum              "Nd4 O22 Ti8"
_cell_length_a       5.09818
_cell_length_b       7.2076
_cell_length_c       12.5904
_cell_angle_alpha    97.2471
_cell_angle_beta     101.681
_cell_angle_gamma    110.712

_space_group_name_H-M_alt    "P 1"
_space_group_IT_number       1

loop_
  _space_group_symop_operation_xyz
  'x, y, z'

loop_
  _atom_site_type_symbol
  _atom_site_label
  _atom_site_symmetry_multiplicity
  _atom_site_fract_x
  _atom_site_fract_y
  _atom_site_fract_z
  _atom_site_occupancy
  Nd  Nd1       1.0  0.89200  0.69900  0.09360  1.0000
  Nd  Nd2       1.0  0.59900  0.80100  0.40600  1.0000
  Nd  Nd3       1.0  0.40100  0.19900  0.59400  1.0000
  Nd  Nd4       1.0  0.10800  0.30100  0.90600  1.0000
  O   O1        1.0  0.63800  0.91900  0.05760  1.0000
  O   O2        1.0  0.91800  0.34200  0.06040  1.0000
  O   O3        1.0  0.48200  0.41400  0.09570  1.0000
  O   O4        1.0  0.25600  0.07670  0.16700  1.0000
  O   O5        1.0  0.28100  0.67000  0.22300  1.0000
  O   O6        1.0  0.89700  0.25000  0.25000  1.0000
  O   O7        1.0  0.88900  0.83000  0.27700  1.0000
  O   O8        1.0  0.51300  0.42300  0.33300  1.0000
  O   O9        1.0  0.47200  0.08570  0.40400  1.0000
  O   O10       1.0  0.01570  0.15800  0.44000  1.0000
  O   O11       1.0  0.16100  0.58100  0.44200  1.0000
  O   O12       1.0  0.83900  0.41900  0.55800  1.0000
  O   O13       1.0  0.98400  0.84200  0.56000  1.0000
  O   O14       1.0  0.52800  0.91400  0.59600  1.0000
  O   O15       1.0  0.48700  0.57700  0.66700  1.0000
  O   O16       1.0  0.11100  0.17000  0.72300  1.0000
  O   O17       1.0  0.10300  0.75000  0.75000  1.0000
  O   O18       1.0  0.71900  0.33000  0.77700  1.0000
  O   O19       1.0  0.74400  0.92300  0.83300  1.0000
  O   O20       1.0  0.51800  0.58600  0.90400  1.0000
  O   O21       1.0  0.08230  0.65800  0.94000  1.0000
  O   O22       1.0  0.36200  0.08060  0.94200  1.0000
  Ti  Ti1       1.0  0.57300  0.15900  0.09790  1.0000
  Ti  Ti2       1.0  0.24000  0.41100  0.19100  1.0000
  Ti  Ti3       1.0  0.13900  0.08930  0.30900  1.0000
  Ti  Ti4       1.0  0.81700  0.34100  0.40200  1.0000
  Ti  Ti5       1.0  0.18300  0.65900  0.59800  1.0000
  Ti  Ti6       1.0  0.86100  0.91100  0.69100  1.0000
  Ti  Ti7       1.0  0.76000  0.58900  0.80900  1.0000
  Ti  Ti8       1.0  0.42700  0.84100  0.90200  1.0000
