data_image0
_chemical_formula_structural       Br12Hg14P8
_chemical_formula_sum              "Br12 Hg14 P8"
_cell_length_a       6.18338
_cell_length_b       20.282
_cell_length_c       7.74022
_cell_angle_alpha    90
_cell_angle_beta     103.856
_cell_angle_gamma    90

_space_group_name_H-M_alt    "P 1"
_space_group_IT_number       1

loop_
  _space_group_symop_operation_xyz
  'x, y, z'

loop_
  _atom_site_type_symbol
  _atom_site_label
  _atom_site_symmetry_multiplicity
  _atom_site_fract_x
  _atom_site_fract_y
  _atom_site_fract_z
  _atom_site_occupancy
  Br  Br1       1.0  0.81300  0.38800  0.08170  1.0000
  Br  Br2       1.0  0.36300  0.28900  0.20700  1.0000
  Br  Br3       1.0  0.60100  0.98000  0.22200  1.0000
  Br  Br4       1.0  0.39900  0.48000  0.27800  1.0000
  Br  Br5       1.0  0.63700  0.78900  0.29300  1.0000
  Br  Br6       1.0  0.18700  0.88800  0.41800  1.0000
  Br  Br7       1.0  0.81300  0.11200  0.58200  1.0000
  Br  Br8       1.0  0.36300  0.21100  0.70700  1.0000
  Br  Br9       1.0  0.60100  0.52000  0.72200  1.0000
  Br  Br10      1.0  0.39900  0.02030  0.77800  1.0000
  Br  Br11      1.0  0.63700  0.71100  0.79300  1.0000
  Br  Br12      1.0  0.18700  0.61200  0.91800  1.0000
  Hg  Hg1       1.0  0.00000  0.00000  0.00000  1.0000
  Hg  Hg2       1.0  0.78200  0.58900  0.00864  1.0000
  Hg  Hg3       1.0  0.49300  0.13700  0.07820  1.0000
  Hg  Hg4       1.0  0.08980  0.76800  0.18900  1.0000
  Hg  Hg5       1.0  0.91000  0.26800  0.31100  1.0000
  Hg  Hg6       1.0  0.50700  0.63700  0.42200  1.0000
  Hg  Hg7       1.0  0.21800  0.08870  0.49100  1.0000
  Hg  Hg8       1.0  0.00000  0.50000  0.50000  1.0000
  Hg  Hg9       1.0  0.78200  0.91100  0.50900  1.0000
  Hg  Hg10      1.0  0.49300  0.36300  0.57800  1.0000
  Hg  Hg11      1.0  0.08980  0.73200  0.68900  1.0000
  Hg  Hg12      1.0  0.91000  0.23200  0.81100  1.0000
  Hg  Hg13      1.0  0.50700  0.86300  0.92200  1.0000
  Hg  Hg14      1.0  0.21800  0.41100  0.99100  1.0000
  P   P1        1.0  0.87700  0.17800  0.08990  1.0000
  P   P2        1.0  0.14300  0.10300  0.16400  1.0000
  P   P3        1.0  0.85700  0.60300  0.33600  1.0000
  P   P4        1.0  0.12300  0.67800  0.41000  1.0000
  P   P5        1.0  0.87700  0.32200  0.59000  1.0000
  P   P6        1.0  0.14300  0.39700  0.66400  1.0000
  P   P7        1.0  0.85700  0.89700  0.83600  1.0000
  P   P8        1.0  0.12300  0.82200  0.91000  1.0000
