data_image0
_chemical_formula_structural       Co4H8O16Se4
_chemical_formula_sum              "Co4 H8 O16 Se4"
_cell_length_a       4.57617
_cell_length_b       11.7116
_cell_length_c       5.48003
_cell_angle_alpha    89.9985
_cell_angle_beta     91.2717
_cell_angle_gamma    90.0004

_space_group_name_H-M_alt    "P 1"
_space_group_IT_number       1

loop_
  _space_group_symop_operation_xyz
  'x, y, z'

loop_
  _atom_site_type_symbol
  _atom_site_label
  _atom_site_symmetry_multiplicity
  _atom_site_fract_x
  _atom_site_fract_y
  _atom_site_fract_z
  _atom_site_occupancy
  Co  Co1       1.0  0.66300  0.26200  0.37500  1.0000
  Co  Co2       1.0  0.83700  0.76200  0.12500  1.0000
  Co  Co3       1.0  0.33700  0.73800  0.62500  1.0000
  Co  Co4       1.0  0.16300  0.23800  0.87500  1.0000
  H   H1        1.0  0.33000  0.40900  0.56400  1.0000
  H   H2        1.0  0.17000  0.90900  0.93600  1.0000
  H   H3        1.0  0.67000  0.59100  0.43600  1.0000
  H   H4        1.0  0.83000  0.09090  0.06400  1.0000
  H   H5        1.0  0.17800  0.37300  0.30900  1.0000
  H   H6        1.0  0.32200  0.87300  0.19100  1.0000
  H   H7        1.0  0.82200  0.62700  0.69100  1.0000
  H   H8        1.0  0.67800  0.12700  0.80900  1.0000
  O   O1        1.0  0.36500  0.40000  0.38500  1.0000
  O   O2        1.0  0.13500  0.90000  0.11500  1.0000
  O   O3        1.0  0.63500  0.60000  0.61500  1.0000
  O   O4        1.0  0.86500  0.09960  0.88500  1.0000
  O   O5        1.0  0.90200  0.10400  0.36400  1.0000
  O   O6        1.0  0.59800  0.60400  0.13600  1.0000
  O   O7        1.0  0.09840  0.89600  0.63600  1.0000
  O   O8        1.0  0.40200  0.39600  0.86400  1.0000
  O   O9        1.0  0.39500  0.16900  0.61000  1.0000
  O   O10       1.0  0.10500  0.66900  0.89000  1.0000
  O   O11       1.0  0.60500  0.83100  0.39000  1.0000
  O   O12       1.0  0.89500  0.33100  0.11000  1.0000
  O   O13       1.0  0.89000  0.33200  0.64700  1.0000
  O   O14       1.0  0.61000  0.83200  0.85300  1.0000
  O   O15       1.0  0.11000  0.66800  0.35300  1.0000
  O   O16       1.0  0.39000  0.16800  0.14700  1.0000
  Se  Se1       1.0  0.76800  0.42400  0.87600  1.0000
  Se  Se2       1.0  0.73200  0.92400  0.62500  1.0000
  Se  Se3       1.0  0.23200  0.57600  0.12400  1.0000
  Se  Se4       1.0  0.26800  0.07600  0.37500  1.0000
