data_image0
_chemical_formula_structural       Ca11O18SSi4
_chemical_formula_sum              "Ca11 O18 S1 Si4"
_cell_length_a       8.57523
_cell_length_b       8.57523
_cell_length_c       8.57523
_cell_angle_alpha    118.291
_cell_angle_beta     105.25
_cell_angle_gamma    105.25

_space_group_name_H-M_alt    "P 1"
_space_group_IT_number       1

loop_
  _space_group_symop_operation_xyz
  'x, y, z'

loop_
  _atom_site_type_symbol
  _atom_site_label
  _atom_site_symmetry_multiplicity
  _atom_site_fract_x
  _atom_site_fract_y
  _atom_site_fract_z
  _atom_site_occupancy
  Ca  Ca1       1.0  0.25400  0.79500  0.04870  1.0000
  Ca  Ca2       1.0  0.25400  0.45800  0.20500  1.0000
  Ca  Ca3       1.0  0.74600  0.95100  0.20500  1.0000
  Ca  Ca4       1.0  0.24200  0.19100  0.43300  1.0000
  Ca  Ca5       1.0  0.00000  0.50000  0.50000  1.0000
  Ca  Ca6       1.0  0.50000  0.00295  0.50300  1.0000
  Ca  Ca7       1.0  0.74600  0.79500  0.54200  1.0000
  Ca  Ca8       1.0  0.24200  0.05070  0.80900  1.0000
  Ca  Ca9       1.0  0.75800  0.56700  0.80900  1.0000
  Ca  Ca10      1.0  0.75800  0.19100  0.94900  1.0000
  Ca  Ca11      1.0  0.50000  0.49700  0.99700  1.0000
  O   O1        1.0  0.45400  0.32400  0.13900  1.0000
  O   O2        1.0  0.81600  0.68500  0.13900  1.0000
  O   O3        1.0  0.71200  0.20600  0.20500  1.0000
  O   O4        1.0  0.99800  0.49300  0.20500  1.0000
  O   O5        1.0  0.50000  0.75000  0.25000  1.0000
  O   O6        1.0  0.45400  0.13100  0.31500  1.0000
  O   O7        1.0  0.18400  0.86100  0.31500  1.0000
  O   O8        1.0  0.00160  0.20600  0.49400  1.0000
  O   O9        1.0  0.28800  0.49300  0.49400  1.0000
  O   O10       1.0  0.71200  0.50600  0.50700  1.0000
  O   O11       1.0  0.00160  0.79500  0.50700  1.0000
  O   O12       1.0  0.54600  0.86100  0.67600  1.0000
  O   O13       1.0  0.81600  0.13100  0.67600  1.0000
  O   O14       1.0  0.50000  0.25000  0.75000  1.0000
  O   O15       1.0  0.99800  0.50600  0.79400  1.0000
  O   O16       1.0  0.28800  0.79500  0.79400  1.0000
  O   O17       1.0  0.18400  0.32400  0.86900  1.0000
  O   O18       1.0  0.54600  0.68500  0.86900  1.0000
  S   S1        1.0  0.00000  0.00000  0.00000  1.0000
  Si  Si1       1.0  0.00000  0.71100  0.28900  1.0000
  Si  Si2       1.0  0.57900  0.28900  0.28900  1.0000
  Si  Si3       1.0  0.00000  0.28900  0.71100  1.0000
  Si  Si4       1.0  0.42100  0.71100  0.71100  1.0000
