data_image0
_chemical_formula_structural       Mo2O23P4Si4
_chemical_formula_sum              "Mo2 O23 P4 Si4"
_cell_length_a       8.18753
_cell_length_b       5.19377
_cell_length_c       10.9815
_cell_angle_alpha    78.0495
_cell_angle_beta     77.5612
_cell_angle_gamma    73.5803

_space_group_name_H-M_alt    "P 1"
_space_group_IT_number       1

loop_
  _space_group_symop_operation_xyz
  'x, y, z'

loop_
  _atom_site_type_symbol
  _atom_site_label
  _atom_site_symmetry_multiplicity
  _atom_site_fract_x
  _atom_site_fract_y
  _atom_site_fract_z
  _atom_site_occupancy
  Mo  Mo1       1.0  0.25600  0.27700  0.16100  1.0000
  Mo  Mo2       1.0  0.74400  0.72300  0.83900  1.0000
  O   O1        1.0  0.69700  0.46900  0.00278  1.0000
  O   O2        1.0  0.25800  0.97800  0.07050  1.0000
  O   O3        1.0  0.84700  0.03190  0.12300  1.0000
  O   O4        1.0  0.52900  0.13300  0.13100  1.0000
  O   O5        1.0  0.03800  0.40900  0.18300  1.0000
  O   O6        1.0  0.30000  0.51800  0.27200  1.0000
  O   O7        1.0  0.71400  0.69600  0.31300  1.0000
  O   O8        1.0  0.00117  0.82300  0.32200  1.0000
  O   O9        1.0  0.26200  0.99100  0.32200  1.0000
  O   O10       1.0  0.70500  0.18000  0.35000  1.0000
  O   O11       1.0  0.16900  0.63200  0.49100  1.0000
  O   O12       1.0  0.50000  0.50000  0.50000  1.0000
  O   O13       1.0  0.83100  0.36800  0.50900  1.0000
  O   O14       1.0  0.29500  0.82000  0.65100  1.0000
  O   O15       1.0  0.73800  0.00896  0.67800  1.0000
  O   O16       1.0  0.99900  0.17700  0.67800  1.0000
  O   O17       1.0  0.28600  0.30400  0.68700  1.0000
  O   O18       1.0  0.70000  0.48200  0.72800  1.0000
  O   O19       1.0  0.96200  0.59100  0.81700  1.0000
  O   O20       1.0  0.47100  0.86700  0.86900  1.0000
  O   O21       1.0  0.15300  0.96800  0.87700  1.0000
  O   O22       1.0  0.74200  0.02170  0.92900  1.0000
  O   O23       1.0  0.30300  0.53100  0.99700  1.0000
  P   P1        1.0  0.69400  0.16900  0.04370  1.0000
  P   P2        1.0  0.19000  0.74100  0.34500  1.0000
  P   P3        1.0  0.81000  0.25900  0.65500  1.0000
  P   P4        1.0  0.30600  0.83100  0.95600  1.0000
  Si  Si1       1.0  0.81400  0.93300  0.27600  1.0000
  Si  Si2       1.0  0.68600  0.43700  0.41500  1.0000
  Si  Si3       1.0  0.31400  0.56300  0.58500  1.0000
  Si  Si4       1.0  0.18600  0.06680  0.72400  1.0000
