data_image0
_chemical_formula_structural       I8O24Zr2
_chemical_formula_sum              "I8 O24 Zr2"
_cell_length_a       8.30604
_cell_length_b       8.30604
_cell_length_c       7.36603
_cell_angle_alpha    90
_cell_angle_beta     90
_cell_angle_gamma    90

_space_group_name_H-M_alt    "P 1"
_space_group_IT_number       1

loop_
  _space_group_symop_operation_xyz
  'x, y, z'

loop_
  _atom_site_type_symbol
  _atom_site_label
  _atom_site_symmetry_multiplicity
  _atom_site_fract_x
  _atom_site_fract_y
  _atom_site_fract_z
  _atom_site_occupancy
  I   I1        1.0  0.96800  0.50000  0.27400  1.0000
  I   I2        1.0  0.50000  0.53200  0.27400  1.0000
  I   I3        1.0  0.00000  0.96800  0.27400  1.0000
  I   I4        1.0  0.53200  0.00000  0.27400  1.0000
  I   I5        1.0  0.46800  0.00020  0.72600  1.0000
  I   I6        1.0  0.00020  0.03220  0.72600  1.0000
  I   I7        1.0  0.50000  0.46800  0.72600  1.0000
  I   I8        1.0  0.03220  0.50000  0.72600  1.0000
  O   O1        1.0  0.66500  0.54000  0.09880  1.0000
  O   O2        1.0  0.96000  0.66500  0.09880  1.0000
  O   O3        1.0  0.54000  0.83500  0.09880  1.0000
  O   O4        1.0  0.83500  0.96000  0.09880  1.0000
  O   O5        1.0  0.31900  0.03970  0.22200  1.0000
  O   O6        1.0  0.03970  0.18100  0.22200  1.0000
  O   O7        1.0  0.46000  0.31900  0.22200  1.0000
  O   O8        1.0  0.18100  0.46000  0.22200  1.0000
  O   O9        1.0  0.65300  0.50000  0.45200  1.0000
  O   O10       1.0  0.00000  0.65300  0.45200  1.0000
  O   O11       1.0  0.50000  0.84700  0.45200  1.0000
  O   O12       1.0  0.84700  0.00000  0.45200  1.0000
  O   O13       1.0  0.15300  0.00023  0.54800  1.0000
  O   O14       1.0  0.50000  0.15300  0.54800  1.0000
  O   O15       1.0  0.00023  0.34700  0.54800  1.0000
  O   O16       1.0  0.34700  0.50000  0.54800  1.0000
  O   O17       1.0  0.81900  0.54000  0.77800  1.0000
  O   O18       1.0  0.54000  0.68100  0.77800  1.0000
  O   O19       1.0  0.96000  0.81900  0.77800  1.0000
  O   O20       1.0  0.68100  0.96000  0.77800  1.0000
  O   O21       1.0  0.16500  0.04030  0.90100  1.0000
  O   O22       1.0  0.46000  0.16500  0.90100  1.0000
  O   O23       1.0  0.04030  0.33500  0.90100  1.0000
  O   O24       1.0  0.33500  0.46000  0.90100  1.0000
  Zr  Zr1       1.0  0.25000  0.25000  0.05530  1.0000
  Zr  Zr2       1.0  0.75000  0.75000  0.94500  1.0000
