data_image0
_chemical_formula_structural       C8Cl12Ge4O8Ru2
_chemical_formula_sum              "C8 Cl12 Ge4 O8 Ru2"
_cell_length_a       9.1842
_cell_length_b       10.0616
_cell_length_c       8.40935
_cell_angle_alpha    90.0001
_cell_angle_beta     94.8335
_cell_angle_gamma    90

_space_group_name_H-M_alt    "P 1"
_space_group_IT_number       1

loop_
  _space_group_symop_operation_xyz
  'x, y, z'

loop_
  _atom_site_type_symbol
  _atom_site_label
  _atom_site_symmetry_multiplicity
  _atom_site_fract_x
  _atom_site_fract_y
  _atom_site_fract_z
  _atom_site_occupancy
  C   C1        1.0  0.21400  0.01820  0.00680  1.0000
  C   C2        1.0  0.02600  0.86300  0.16700  1.0000
  C   C3        1.0  0.47400  0.36300  0.33300  1.0000
  C   C4        1.0  0.28600  0.51800  0.49300  1.0000
  C   C5        1.0  0.71400  0.48200  0.50700  1.0000
  C   C6        1.0  0.52600  0.63700  0.66700  1.0000
  C   C7        1.0  0.97400  0.13700  0.83300  1.0000
  C   C8        1.0  0.78600  0.98200  0.99300  1.0000
  Cl  Cl1       1.0  0.33400  0.64500  0.08920  1.0000
  Cl  Cl2       1.0  0.02020  0.37800  0.14400  1.0000
  Cl  Cl3       1.0  0.70700  0.66700  0.16300  1.0000
  Cl  Cl4       1.0  0.79300  0.16700  0.33700  1.0000
  Cl  Cl5       1.0  0.48000  0.87800  0.35600  1.0000
  Cl  Cl6       1.0  0.16600  0.14500  0.41100  1.0000
  Cl  Cl7       1.0  0.83400  0.85500  0.58900  1.0000
  Cl  Cl8       1.0  0.52000  0.12200  0.64400  1.0000
  Cl  Cl9       1.0  0.20700  0.83300  0.66300  1.0000
  Cl  Cl10      1.0  0.29300  0.33300  0.83700  1.0000
  Cl  Cl11      1.0  0.98000  0.62200  0.85600  1.0000
  Cl  Cl12      1.0  0.66600  0.35500  0.91100  1.0000
  Ge  Ge1       1.0  0.99400  0.17200  0.21700  1.0000
  Ge  Ge2       1.0  0.50500  0.67200  0.28300  1.0000
  Ge  Ge3       1.0  0.49400  0.32800  0.71700  1.0000
  Ge  Ge4       1.0  0.00550  0.82800  0.78300  1.0000
  O   O1        1.0  0.33900  0.02720  0.01190  1.0000
  O   O2        1.0  0.45700  0.28400  0.23600  1.0000
  O   O3        1.0  0.04310  0.78400  0.26400  1.0000
  O   O4        1.0  0.16100  0.52700  0.48800  1.0000
  O   O5        1.0  0.83900  0.47300  0.51200  1.0000
  O   O6        1.0  0.95700  0.21600  0.73600  1.0000
  O   O7        1.0  0.54300  0.71600  0.76400  1.0000
  O   O8        1.0  0.66100  0.97300  0.98800  1.0000
  Ru  Ru1       1.0  0.00000  0.00000  0.00000  1.0000
  Ru  Ru2       1.0  0.50000  0.50000  0.50000  1.0000
