data_image0
_chemical_formula_structural       Ba8Cu6O18Yb2
_chemical_formula_sum              "Ba8 Cu6 O18 Yb2"
_cell_length_a       8.03735
_cell_length_b       8.03735
_cell_length_c       8.03735
_cell_angle_alpha    90
_cell_angle_beta     90
_cell_angle_gamma    90

_space_group_name_H-M_alt    "P 1"
_space_group_IT_number       1

loop_
  _space_group_symop_operation_xyz
  'x, y, z'

loop_
  _atom_site_type_symbol
  _atom_site_label
  _atom_site_symmetry_multiplicity
  _atom_site_fract_x
  _atom_site_fract_y
  _atom_site_fract_z
  _atom_site_occupancy
  Ba  Ba1       1.0  0.25000  0.25000  0.25000  1.0000
  Ba  Ba2       1.0  0.75000  0.25000  0.25000  1.0000
  Ba  Ba3       1.0  0.25000  0.75000  0.25000  1.0000
  Ba  Ba4       1.0  0.75000  0.75000  0.25000  1.0000
  Ba  Ba5       1.0  0.25000  0.25000  0.75000  1.0000
  Ba  Ba6       1.0  0.75000  0.25000  0.75000  1.0000
  Ba  Ba7       1.0  0.25000  0.75000  0.75000  1.0000
  Ba  Ba8       1.0  0.75000  0.75000  0.75000  1.0000
  Cu  Cu1       1.0  0.50000  0.00000  0.00000  1.0000
  Cu  Cu2       1.0  0.00000  0.50000  0.00000  1.0000
  Cu  Cu3       1.0  0.50000  0.50000  0.00000  1.0000
  Cu  Cu4       1.0  0.00000  0.00000  0.50000  1.0000
  Cu  Cu5       1.0  0.50000  0.00000  0.50000  1.0000
  Cu  Cu6       1.0  0.00000  0.50000  0.50000  1.0000
  O   O1        1.0  0.27700  0.00000  0.00000  1.0000
  O   O2        1.0  0.72300  0.00000  0.00000  1.0000
  O   O3        1.0  0.50000  0.25000  0.00000  1.0000
  O   O4        1.0  0.00000  0.27700  0.00000  1.0000
  O   O5        1.0  0.00000  0.72300  0.00000  1.0000
  O   O6        1.0  0.50000  0.75000  0.00000  1.0000
  O   O7        1.0  0.50000  0.50000  0.22300  1.0000
  O   O8        1.0  0.00000  0.50000  0.25000  1.0000
  O   O9        1.0  0.00000  0.00000  0.27700  1.0000
  O   O10       1.0  0.25000  0.00000  0.50000  1.0000
  O   O11       1.0  0.75000  0.00000  0.50000  1.0000
  O   O12       1.0  0.50000  0.22300  0.50000  1.0000
  O   O13       1.0  0.22300  0.50000  0.50000  1.0000
  O   O14       1.0  0.77700  0.50000  0.50000  1.0000
  O   O15       1.0  0.50000  0.77700  0.50000  1.0000
  O   O16       1.0  0.00000  0.00000  0.72300  1.0000
  O   O17       1.0  0.00000  0.50000  0.75000  1.0000
  O   O18       1.0  0.50000  0.50000  0.77700  1.0000
  Yb  Yb1       1.0  0.00000  0.00000  0.00000  1.0000
  Yb  Yb2       1.0  0.50000  0.50000  0.50000  1.0000
