data_image0
_chemical_formula_structural       Ce2I8O24
_chemical_formula_sum              "Ce2 I8 O24"
_cell_length_a       9.76121
_cell_length_b       9.76121
_cell_length_c       5.37884
_cell_angle_alpha    90
_cell_angle_beta     90
_cell_angle_gamma    90

_space_group_name_H-M_alt    "P 1"
_space_group_IT_number       1

loop_
  _space_group_symop_operation_xyz
  'x, y, z'

loop_
  _atom_site_type_symbol
  _atom_site_label
  _atom_site_symmetry_multiplicity
  _atom_site_fract_x
  _atom_site_fract_y
  _atom_site_fract_z
  _atom_site_occupancy
  Ce  Ce1       1.0  0.00000  0.00000  0.00000  1.0000
  Ce  Ce2       1.0  0.50000  0.50000  0.50000  1.0000
  I   I1        1.0  0.21900  0.49000  0.04060  1.0000
  I   I2        1.0  0.78100  0.51000  0.04060  1.0000
  I   I3        1.0  0.28100  0.01010  0.45900  1.0000
  I   I4        1.0  0.71900  0.99000  0.45900  1.0000
  I   I5        1.0  0.99000  0.28100  0.54100  1.0000
  I   I6        1.0  0.01010  0.71900  0.54100  1.0000
  I   I7        1.0  0.51000  0.21900  0.95900  1.0000
  I   I8        1.0  0.49000  0.78100  0.95900  1.0000
  O   O1        1.0  0.62600  0.07640  0.02370  1.0000
  O   O2        1.0  0.37400  0.92400  0.02370  1.0000
  O   O3        1.0  0.58600  0.34400  0.17900  1.0000
  O   O4        1.0  0.41400  0.65600  0.17900  1.0000
  O   O5        1.0  0.20700  0.10400  0.19800  1.0000
  O   O6        1.0  0.79300  0.89600  0.19800  1.0000
  O   O7        1.0  0.29300  0.39600  0.30200  1.0000
  O   O8        1.0  0.70700  0.60400  0.30200  1.0000
  O   O9        1.0  0.91400  0.15600  0.32100  1.0000
  O   O10       1.0  0.08580  0.84400  0.32100  1.0000
  O   O11       1.0  0.87400  0.42400  0.47600  1.0000
  O   O12       1.0  0.12600  0.57600  0.47600  1.0000
  O   O13       1.0  0.42400  0.12600  0.52400  1.0000
  O   O14       1.0  0.57600  0.87400  0.52400  1.0000
  O   O15       1.0  0.15600  0.08580  0.67900  1.0000
  O   O16       1.0  0.84400  0.91400  0.67900  1.0000
  O   O17       1.0  0.60400  0.29300  0.69800  1.0000
  O   O18       1.0  0.39600  0.70700  0.69800  1.0000
  O   O19       1.0  0.89600  0.20700  0.80200  1.0000
  O   O20       1.0  0.10400  0.79300  0.80200  1.0000
  O   O21       1.0  0.34400  0.41400  0.82100  1.0000
  O   O22       1.0  0.65600  0.58600  0.82100  1.0000
  O   O23       1.0  0.07640  0.37400  0.97600  1.0000
  O   O24       1.0  0.92400  0.62600  0.97600  1.0000
