data_image0
_chemical_formula_structural       Cl6Cu9O14Se4
_chemical_formula_sum              "Cl6 Cu9 O14 Se4"
_cell_length_a       6.2351
_cell_length_b       8.12407
_cell_length_c       11.7221
_cell_angle_alpha    91.0043
_cell_angle_beta     74.5762
_cell_angle_gamma    112.566

_space_group_name_H-M_alt    "P 1"
_space_group_IT_number       1

loop_
  _space_group_symop_operation_xyz
  'x, y, z'

loop_
  _atom_site_type_symbol
  _atom_site_label
  _atom_site_symmetry_multiplicity
  _atom_site_fract_x
  _atom_site_fract_y
  _atom_site_fract_z
  _atom_site_occupancy
  Cl  Cl1       1.0  0.56400  0.19600  0.06800  1.0000
  Cl  Cl2       1.0  0.19400  0.74700  0.36000  1.0000
  Cl  Cl3       1.0  0.40200  0.25300  0.44900  1.0000
  Cl  Cl4       1.0  0.59800  0.74700  0.55100  1.0000
  Cl  Cl5       1.0  0.80600  0.25300  0.64000  1.0000
  Cl  Cl6       1.0  0.43600  0.80400  0.93200  1.0000
  Cu  Cu1       1.0  0.00000  0.50000  0.00000  1.0000
  Cu  Cu2       1.0  0.50000  0.50000  0.00000  1.0000
  Cu  Cu3       1.0  0.02650  0.14700  0.09400  1.0000
  Cu  Cu4       1.0  0.16600  0.54900  0.21700  1.0000
  Cu  Cu5       1.0  0.44700  0.16100  0.26800  1.0000
  Cu  Cu6       1.0  0.00000  0.50000  0.50000  1.0000
  Cu  Cu7       1.0  0.55300  0.83900  0.73200  1.0000
  Cu  Cu8       1.0  0.83400  0.45100  0.78300  1.0000
  Cu  Cu9       1.0  0.97300  0.85300  0.90600  1.0000
  O   O1        1.0  0.16200  0.40200  0.07790  1.0000
  O   O2        1.0  0.90400  0.88900  0.08170  1.0000
  O   O3        1.0  0.50800  0.59000  0.15700  1.0000
  O   O4        1.0  0.92400  0.59000  0.15700  1.0000
  O   O5        1.0  0.12400  0.11600  0.25700  1.0000
  O   O6        1.0  0.73400  0.11600  0.25700  1.0000
  O   O7        1.0  0.00134  0.36900  0.36600  1.0000
  O   O8        1.0  0.99900  0.63100  0.63400  1.0000
  O   O9        1.0  0.26600  0.88400  0.74300  1.0000
  O   O10       1.0  0.87500  0.88400  0.74300  1.0000
  O   O11       1.0  0.07630  0.41000  0.84300  1.0000
  O   O12       1.0  0.49200  0.41000  0.84300  1.0000
  O   O13       1.0  0.09640  0.11100  0.91800  1.0000
  O   O14       1.0  0.83800  0.59800  0.92200  1.0000
  Se  Se1       1.0  0.76200  0.72400  0.20100  1.0000
  Se  Se2       1.0  0.88600  0.13900  0.36700  1.0000
  Se  Se3       1.0  0.11400  0.86100  0.63300  1.0000
  Se  Se4       1.0  0.23800  0.27600  0.79900  1.0000
