data_image0
_chemical_formula_structural       Ca4Fe6La2O16
_chemical_formula_sum              "Ca4 Fe6 La2 O16"
_cell_length_a       5.48832
_cell_length_b       11.1899
_cell_length_c       5.60661
_cell_angle_alpha    90
_cell_angle_beta     90
_cell_angle_gamma    90

_space_group_name_H-M_alt    "P 1"
_space_group_IT_number       1

loop_
  _space_group_symop_operation_xyz
  'x, y, z'

loop_
  _atom_site_type_symbol
  _atom_site_label
  _atom_site_symmetry_multiplicity
  _atom_site_fract_x
  _atom_site_fract_y
  _atom_site_fract_z
  _atom_site_occupancy
  Ca  Ca1       1.0  0.74400  0.31600  0.27400  1.0000
  Ca  Ca2       1.0  0.74400  0.68400  0.27400  1.0000
  Ca  Ca3       1.0  0.24400  0.31600  0.72600  1.0000
  Ca  Ca4       1.0  0.24400  0.68400  0.72600  1.0000
  Fe  Fe1       1.0  0.21900  0.50000  0.18500  1.0000
  Fe  Fe2       1.0  0.27400  0.17700  0.24000  1.0000
  Fe  Fe3       1.0  0.27400  0.82300  0.24000  1.0000
  Fe  Fe4       1.0  0.77400  0.17700  0.76000  1.0000
  Fe  Fe5       1.0  0.77400  0.82300  0.76000  1.0000
  Fe  Fe6       1.0  0.71900  0.50000  0.81500  1.0000
  La  La1       1.0  0.79500  0.00000  0.25800  1.0000
  La  La2       1.0  0.29500  0.00000  0.74200  1.0000
  O   O1        1.0  0.00191  0.20500  0.02480  1.0000
  O   O2        1.0  0.00191  0.79500  0.02480  1.0000
  O   O3        1.0  0.86800  0.50000  0.12800  1.0000
  O   O4        1.0  0.26900  0.00000  0.16600  1.0000
  O   O5        1.0  0.31200  0.35900  0.33400  1.0000
  O   O6        1.0  0.31200  0.64100  0.33400  1.0000
  O   O7        1.0  0.54500  0.14600  0.48200  1.0000
  O   O8        1.0  0.54500  0.85400  0.48200  1.0000
  O   O9        1.0  0.04480  0.14600  0.51800  1.0000
  O   O10       1.0  0.04480  0.85400  0.51800  1.0000
  O   O11       1.0  0.81200  0.35900  0.66600  1.0000
  O   O12       1.0  0.81200  0.64100  0.66600  1.0000
  O   O13       1.0  0.76900  0.00000  0.83400  1.0000
  O   O14       1.0  0.36800  0.50000  0.87200  1.0000
  O   O15       1.0  0.50200  0.20500  0.97500  1.0000
  O   O16       1.0  0.50200  0.79500  0.97500  1.0000
