data_image0
_chemical_formula_structural       Ni18S16
_chemical_formula_sum              "Ni18 S16"
_cell_length_a       7.25337
_cell_length_b       7.25337
_cell_length_c       9.37867
_cell_angle_alpha    90
_cell_angle_beta     90
_cell_angle_gamma    79.2966

_space_group_name_H-M_alt    "P 1"
_space_group_IT_number       1

loop_
  _space_group_symop_operation_xyz
  'x, y, z'

loop_
  _atom_site_type_symbol
  _atom_site_label
  _atom_site_symmetry_multiplicity
  _atom_site_fract_x
  _atom_site_fract_y
  _atom_site_fract_z
  _atom_site_occupancy
  Ni  Ni1       1.0  0.77700  0.22300  0.00000  1.0000
  Ni  Ni2       1.0  0.50000  0.50000  0.00000  1.0000
  Ni  Ni3       1.0  0.22300  0.77700  0.00000  1.0000
  Ni  Ni4       1.0  0.05750  0.31300  0.12200  1.0000
  Ni  Ni5       1.0  0.94200  0.68700  0.12200  1.0000
  Ni  Ni6       1.0  0.00000  0.00000  0.21500  1.0000
  Ni  Ni7       1.0  0.50000  0.00000  0.27000  1.0000
  Ni  Ni8       1.0  0.71000  0.45900  0.37400  1.0000
  Ni  Ni9       1.0  0.29000  0.54100  0.37400  1.0000
  Ni  Ni10      1.0  0.00000  0.00000  0.50000  1.0000
  Ni  Ni11      1.0  0.23600  0.23600  0.50000  1.0000
  Ni  Ni12      1.0  0.76400  0.76400  0.50000  1.0000
  Ni  Ni13      1.0  0.54100  0.29000  0.62600  1.0000
  Ni  Ni14      1.0  0.45900  0.71000  0.62600  1.0000
  Ni  Ni15      1.0  0.00000  0.50000  0.73000  1.0000
  Ni  Ni16      1.0  0.00000  0.00000  0.78500  1.0000
  Ni  Ni17      1.0  0.31300  0.05750  0.87800  1.0000
  Ni  Ni18      1.0  0.68700  0.94200  0.87800  1.0000
  S   S1        1.0  0.26900  0.03340  0.12000  1.0000
  S   S2        1.0  0.73100  0.96700  0.12000  1.0000
  S   S3        1.0  0.74800  0.48400  0.13600  1.0000
  S   S4        1.0  0.25200  0.51600  0.13600  1.0000
  S   S5        1.0  0.98200  0.24900  0.36100  1.0000
  S   S6        1.0  0.01850  0.75100  0.36100  1.0000
  S   S7        1.0  0.49800  0.25900  0.38600  1.0000
  S   S8        1.0  0.50200  0.74100  0.38600  1.0000
  S   S9        1.0  0.25900  0.49800  0.61400  1.0000
  S   S10       1.0  0.74100  0.50200  0.61400  1.0000
  S   S11       1.0  0.75100  0.01850  0.63900  1.0000
  S   S12       1.0  0.24900  0.98200  0.63900  1.0000
  S   S13       1.0  0.51600  0.25200  0.86400  1.0000
  S   S14       1.0  0.48400  0.74800  0.86400  1.0000
  S   S15       1.0  0.03340  0.26900  0.88000  1.0000
  S   S16       1.0  0.96700  0.73100  0.88000  1.0000
