data_image0
_chemical_formula_structural       Cu2H12O16Se4
_chemical_formula_sum              "Cu2 H12 O16 Se4"
_cell_length_a       6.08518
_cell_length_b       6.02752
_cell_length_c       8.99633
_cell_angle_alpha    90
_cell_angle_beta     90.5919
_cell_angle_gamma    90

_space_group_name_H-M_alt    "P 1"
_space_group_IT_number       1

loop_
  _space_group_symop_operation_xyz
  'x, y, z'

loop_
  _atom_site_type_symbol
  _atom_site_label
  _atom_site_symmetry_multiplicity
  _atom_site_fract_x
  _atom_site_fract_y
  _atom_site_fract_z
  _atom_site_occupancy
  Cu  Cu1       1.0  0.00000  0.00000  0.00000  1.0000
  Cu  Cu2       1.0  0.00000  0.50000  0.50000  1.0000
  H   H1        1.0  0.77100  0.46000  0.03420  1.0000
  H   H2        1.0  0.35900  0.70200  0.07540  1.0000
  H   H3        1.0  0.59900  0.22700  0.15800  1.0000
  H   H4        1.0  0.40100  0.72700  0.34200  1.0000
  H   H5        1.0  0.64100  0.20200  0.42500  1.0000
  H   H6        1.0  0.22900  0.96000  0.46600  1.0000
  H   H7        1.0  0.77100  0.04030  0.53400  1.0000
  H   H8        1.0  0.35900  0.79800  0.57500  1.0000
  H   H9        1.0  0.59900  0.27300  0.65800  1.0000
  H   H10       1.0  0.40100  0.77300  0.84200  1.0000
  H   H11       1.0  0.64100  0.29800  0.92500  1.0000
  H   H12       1.0  0.22900  0.54000  0.96600  1.0000
  O   O1        1.0  0.72100  0.30500  0.02190  1.0000
  O   O2        1.0  0.79400  0.76400  0.06630  1.0000
  O   O3        1.0  0.10200  0.02560  0.20200  1.0000
  O   O4        1.0  0.51800  0.16000  0.24900  1.0000
  O   O5        1.0  0.48200  0.66000  0.25100  1.0000
  O   O6        1.0  0.89800  0.52600  0.29800  1.0000
  O   O7        1.0  0.20600  0.26400  0.43400  1.0000
  O   O8        1.0  0.27900  0.80500  0.47800  1.0000
  O   O9        1.0  0.72100  0.19500  0.52200  1.0000
  O   O10       1.0  0.79400  0.73600  0.56600  1.0000
  O   O11       1.0  0.10200  0.47400  0.70200  1.0000
  O   O12       1.0  0.51800  0.34000  0.74900  1.0000
  O   O13       1.0  0.48200  0.84000  0.75100  1.0000
  O   O14       1.0  0.89800  0.97400  0.79800  1.0000
  O   O15       1.0  0.20600  0.23600  0.93400  1.0000
  O   O16       1.0  0.27900  0.69500  0.97800  1.0000
  Se  Se1       1.0  0.24000  0.26700  0.24400  1.0000
  Se  Se2       1.0  0.76000  0.76700  0.25600  1.0000
  Se  Se3       1.0  0.24000  0.23300  0.74400  1.0000
  Se  Se4       1.0  0.76000  0.73300  0.75600  1.0000
