data_image0
_chemical_formula_structural       Ga4O24S6
_chemical_formula_sum              "Ga4 O24 S6"
_cell_length_a       8.01333
_cell_length_b       8.01333
_cell_length_c       8.60809
_cell_angle_alpha    62.2604
_cell_angle_beta     117.74
_cell_angle_gamma    120

_space_group_name_H-M_alt    "P 1"
_space_group_IT_number       1

loop_
  _space_group_symop_operation_xyz
  'x, y, z'

loop_
  _atom_site_type_symbol
  _atom_site_label
  _atom_site_symmetry_multiplicity
  _atom_site_fract_x
  _atom_site_fract_y
  _atom_site_fract_z
  _atom_site_occupancy
  Ga  Ga1       1.0  0.34900  0.65100  0.04830  1.0000
  Ga  Ga2       1.0  0.14300  0.85700  0.42800  1.0000
  Ga  Ga3       1.0  0.85700  0.14300  0.57200  1.0000
  Ga  Ga4       1.0  0.65100  0.34900  0.95200  1.0000
  O   O1        1.0  0.79200  0.15800  0.10400  1.0000
  O   O2        1.0  0.47000  0.20800  0.10400  1.0000
  O   O3        1.0  0.84200  0.53000  0.10400  1.0000
  O   O4        1.0  0.49500  0.46500  0.20300  1.0000
  O   O5        1.0  0.17200  0.50500  0.20300  1.0000
  O   O6        1.0  0.53500  0.82800  0.20300  1.0000
  O   O7        1.0  0.25000  0.12500  0.26300  1.0000
  O   O8        1.0  0.13800  0.75000  0.26300  1.0000
  O   O9        1.0  0.87500  0.86200  0.26300  1.0000
  O   O10       1.0  0.60600  0.19700  0.42700  1.0000
  O   O11       1.0  0.01680  0.39400  0.42700  1.0000
  O   O12       1.0  0.80300  0.98300  0.42700  1.0000
  O   O13       1.0  0.19700  0.01680  0.57300  1.0000
  O   O14       1.0  0.98300  0.60600  0.57300  1.0000
  O   O15       1.0  0.39400  0.80300  0.57300  1.0000
  O   O16       1.0  0.12500  0.13800  0.73700  1.0000
  O   O17       1.0  0.86200  0.25000  0.73700  1.0000
  O   O18       1.0  0.75000  0.87500  0.73700  1.0000
  O   O19       1.0  0.46500  0.17200  0.79700  1.0000
  O   O20       1.0  0.82800  0.49500  0.79700  1.0000
  O   O21       1.0  0.50500  0.53500  0.79700  1.0000
  O   O22       1.0  0.15800  0.47000  0.89600  1.0000
  O   O23       1.0  0.53000  0.79200  0.89600  1.0000
  O   O24       1.0  0.20800  0.84200  0.89600  1.0000
  S   S1        1.0  0.45700  0.24900  0.24800  1.0000
  S   S2        1.0  0.04100  0.54300  0.24800  1.0000
  S   S3        1.0  0.75100  0.95900  0.24800  1.0000
  S   S4        1.0  0.24900  0.04100  0.75200  1.0000
  S   S5        1.0  0.95900  0.45700  0.75200  1.0000
  S   S6        1.0  0.54300  0.75100  0.75200  1.0000
