data_image0
_chemical_formula_structural       Li3O6Pu2
_chemical_formula_sum              "Li3 O6 Pu2"
_cell_length_a       5.81023
_cell_length_b       5.81023
_cell_length_c       4.99842
_cell_angle_alpha    98.6231
_cell_angle_beta     98.6231
_cell_angle_gamma    121.904

_space_group_name_H-M_alt    "P 1"
_space_group_IT_number       1

loop_
  _space_group_symop_operation_xyz
  'x, y, z'

loop_
  _atom_site_type_symbol
  _atom_site_label
  _atom_site_symmetry_multiplicity
  _atom_site_fract_x
  _atom_site_fract_y
  _atom_site_fract_z
  _atom_site_occupancy
  Li  Li1       1.0  0.50000  0.50000  0.00000  1.0000
  Li  Li2       1.0  0.63600  0.36400  0.50000  1.0000
  Li  Li3       1.0  0.36400  0.63600  0.50000  1.0000
  O   O1        1.0  0.25700  0.25700  0.22300  1.0000
  O   O2        1.0  0.91500  0.54900  0.23800  1.0000
  O   O3        1.0  0.54900  0.91500  0.23800  1.0000
  O   O4        1.0  0.45100  0.08530  0.76200  1.0000
  O   O5        1.0  0.08530  0.45100  0.76200  1.0000
  O   O6        1.0  0.74300  0.74300  0.77700  1.0000
  Pu  Pu1       1.0  0.83900  0.16100  0.00000  1.0000
  Pu  Pu2       1.0  0.16100  0.83900  0.00000  1.0000
