data_image0
_chemical_formula_structural       Ga2H4Na6O18P4
_chemical_formula_sum              "Ga2 H4 Na6 O18 P4"
_cell_length_a       6.98213
_cell_length_b       7.11324
_cell_length_c       8.44055
_cell_angle_alpha    114.921
_cell_angle_beta     95.8307
_cell_angle_gamma    90

_space_group_name_H-M_alt    "P 1"
_space_group_IT_number       1

loop_
  _space_group_symop_operation_xyz
  'x, y, z'

loop_
  _atom_site_type_symbol
  _atom_site_label
  _atom_site_symmetry_multiplicity
  _atom_site_fract_x
  _atom_site_fract_y
  _atom_site_fract_z
  _atom_site_occupancy
  Ga  Ga1       1.0  0.00000  0.00000  0.50000  1.0000
  Ga  Ga2       1.0  0.00000  0.50000  0.50000  1.0000
  H   H1        1.0  0.38100  0.05490  0.11000  1.0000
  H   H2        1.0  0.18500  0.18700  0.37300  1.0000
  H   H3        1.0  0.81500  0.81300  0.62700  1.0000
  H   H4        1.0  0.61900  0.94500  0.89000  1.0000
  Na  Na1       1.0  0.00000  0.23400  0.00000  1.0000
  Na  Na2       1.0  0.00000  0.76600  0.00000  1.0000
  Na  Na3       1.0  0.71200  0.61400  0.22700  1.0000
  Na  Na4       1.0  0.50000  0.00000  0.50000  1.0000
  Na  Na5       1.0  0.50000  0.50000  0.50000  1.0000
  Na  Na6       1.0  0.28800  0.38600  0.77300  1.0000
  O   O1        1.0  0.22000  0.51900  0.03870  1.0000
  O   O2        1.0  0.75800  0.02380  0.04770  1.0000
  O   O3        1.0  0.46800  0.11500  0.23100  1.0000
  O   O4        1.0  0.11600  0.46600  0.29100  1.0000
  O   O5        1.0  0.11600  0.82500  0.29100  1.0000
  O   O6        1.0  0.43200  0.66700  0.33300  1.0000
  O   O7        1.0  0.76200  0.34800  0.33600  1.0000
  O   O8        1.0  0.76200  0.98800  0.33600  1.0000
  O   O9        1.0  0.12200  0.24000  0.48100  1.0000
  O   O10       1.0  0.87800  0.76000  0.51900  1.0000
  O   O11       1.0  0.23800  0.01180  0.66400  1.0000
  O   O12       1.0  0.23800  0.65200  0.66400  1.0000
  O   O13       1.0  0.56800  0.33300  0.66700  1.0000
  O   O14       1.0  0.88400  0.17500  0.70900  1.0000
  O   O15       1.0  0.88400  0.53400  0.70900  1.0000
  O   O16       1.0  0.53200  0.88500  0.76900  1.0000
  O   O17       1.0  0.24200  0.97600  0.95200  1.0000
  O   O18       1.0  0.78000  0.48100  0.96100  1.0000
  P   P1        1.0  0.69600  0.11700  0.23400  1.0000
  P   P2        1.0  0.22800  0.61900  0.23800  1.0000
  P   P3        1.0  0.77200  0.38100  0.76200  1.0000
  P   P4        1.0  0.30400  0.88300  0.76600  1.0000
