data_image0
_chemical_formula_structural       Fe2K2Na2O20Si8
_chemical_formula_sum              "Fe2 K2 Na2 O20 Si8"
_cell_length_a       6.96504
_cell_length_b       8.11158
_cell_length_c       9.94185
_cell_angle_alpha    114.45
_cell_angle_beta     79.1941
_cell_angle_gamma    115.904

_space_group_name_H-M_alt    "P 1"
_space_group_IT_number       1

loop_
  _space_group_symop_operation_xyz
  'x, y, z'

loop_
  _atom_site_type_symbol
  _atom_site_label
  _atom_site_symmetry_multiplicity
  _atom_site_fract_x
  _atom_site_fract_y
  _atom_site_fract_z
  _atom_site_occupancy
  Fe  Fe1       1.0  0.04970  0.29800  0.40700  1.0000
  Fe  Fe2       1.0  0.95000  0.70200  0.59300  1.0000
  K   K1        1.0  0.13100  0.80100  0.00726  1.0000
  K   K2        1.0  0.86900  0.19900  0.99300  1.0000
  Na  Na1       1.0  0.52600  0.27300  0.40900  1.0000
  Na  Na2       1.0  0.47400  0.72700  0.59100  1.0000
  O   O1        1.0  0.63200  0.85600  0.03770  1.0000
  O   O2        1.0  0.29800  0.46400  0.13400  1.0000
  O   O3        1.0  0.63900  0.41600  0.16700  1.0000
  O   O4        1.0  0.03670  0.63300  0.20800  1.0000
  O   O5        1.0  0.79700  0.80600  0.23100  1.0000
  O   O6        1.0  0.25400  0.18800  0.24100  1.0000
  O   O7        1.0  0.79300  0.15600  0.27900  1.0000
  O   O8        1.0  0.43200  0.85500  0.29500  1.0000
  O   O9        1.0  0.18200  0.59500  0.42300  1.0000
  O   O10       1.0  0.75800  0.66300  0.44300  1.0000
  O   O11       1.0  0.24200  0.33700  0.55700  1.0000
  O   O12       1.0  0.81800  0.40500  0.57700  1.0000
  O   O13       1.0  0.56800  0.14500  0.70500  1.0000
  O   O14       1.0  0.20700  0.84400  0.72100  1.0000
  O   O15       1.0  0.74600  0.81200  0.75900  1.0000
  O   O16       1.0  0.20300  0.19400  0.76900  1.0000
  O   O17       1.0  0.96300  0.36700  0.79200  1.0000
  O   O18       1.0  0.36100  0.58400  0.83300  1.0000
  O   O19       1.0  0.70200  0.53600  0.86600  1.0000
  O   O20       1.0  0.36800  0.14400  0.96200  1.0000
  Si  Si1       1.0  0.38200  0.30200  0.13300  1.0000
  Si  Si2       1.0  0.66700  0.92200  0.21400  1.0000
  Si  Si3       1.0  0.23800  0.63700  0.27300  1.0000
  Si  Si4       1.0  0.80300  0.63400  0.27400  1.0000
  Si  Si5       1.0  0.19700  0.36600  0.72600  1.0000
  Si  Si6       1.0  0.76200  0.36300  0.72700  1.0000
  Si  Si7       1.0  0.33300  0.07760  0.78600  1.0000
  Si  Si8       1.0  0.61800  0.69800  0.86700  1.0000
