data_image0
_chemical_formula_structural       Cs8F20Ni6
_chemical_formula_sum              "Cs8 F20 Ni6"
_cell_length_a       6.00922
_cell_length_b       7.6768
_cell_length_c       13.4149
_cell_angle_alpha    90
_cell_angle_beta     90
_cell_angle_gamma    66.9591

_space_group_name_H-M_alt    "P 1"
_space_group_IT_number       1

loop_
  _space_group_symop_operation_xyz
  'x, y, z'

loop_
  _atom_site_type_symbol
  _atom_site_label
  _atom_site_symmetry_multiplicity
  _atom_site_fract_x
  _atom_site_fract_y
  _atom_site_fract_z
  _atom_site_occupancy
  Cs  Cs1       1.0  0.24200  0.51700  0.11500  1.0000
  Cs  Cs2       1.0  0.54300  0.91300  0.14000  1.0000
  Cs  Cs3       1.0  0.04340  0.91300  0.36000  1.0000
  Cs  Cs4       1.0  0.74200  0.51700  0.38500  1.0000
  Cs  Cs5       1.0  0.25800  0.48300  0.61500  1.0000
  Cs  Cs6       1.0  0.95700  0.08690  0.64000  1.0000
  Cs  Cs7       1.0  0.45700  0.08690  0.86000  1.0000
  Cs  Cs8       1.0  0.75800  0.48300  0.88500  1.0000
  F   F1        1.0  0.11700  0.20600  0.03530  1.0000
  F   F2        1.0  0.67700  0.20600  0.03530  1.0000
  F   F3        1.0  0.02720  0.94600  0.14600  1.0000
  F   F4        1.0  0.74100  0.51800  0.14800  1.0000
  F   F5        1.0  0.13500  0.22900  0.25000  1.0000
  F   F6        1.0  0.63500  0.22900  0.25000  1.0000
  F   F7        1.0  0.24100  0.51800  0.35200  1.0000
  F   F8        1.0  0.52700  0.94600  0.35400  1.0000
  F   F9        1.0  0.17700  0.20600  0.46500  1.0000
  F   F10       1.0  0.61700  0.20600  0.46500  1.0000
  F   F11       1.0  0.38300  0.79400  0.53500  1.0000
  F   F12       1.0  0.82300  0.79400  0.53500  1.0000
  F   F13       1.0  0.47300  0.05450  0.64600  1.0000
  F   F14       1.0  0.75900  0.48200  0.64800  1.0000
  F   F15       1.0  0.36500  0.77100  0.75000  1.0000
  F   F16       1.0  0.86500  0.77100  0.75000  1.0000
  F   F17       1.0  0.25900  0.48200  0.85200  1.0000
  F   F18       1.0  0.97300  0.05450  0.85400  1.0000
  F   F19       1.0  0.32300  0.79400  0.96500  1.0000
  F   F20       1.0  0.88300  0.79400  0.96500  1.0000
  Ni  Ni1       1.0  0.00000  0.00000  0.00000  1.0000
  Ni  Ni2       1.0  0.87800  0.24400  0.15100  1.0000
  Ni  Ni3       1.0  0.37800  0.24400  0.34900  1.0000
  Ni  Ni4       1.0  0.50000  0.00000  0.50000  1.0000
  Ni  Ni5       1.0  0.62200  0.75600  0.65100  1.0000
  Ni  Ni6       1.0  0.12200  0.75600  0.84900  1.0000
