data_image0
_chemical_formula_structural       C6I12O2Y14
_chemical_formula_sum              "C6 I12 O2 Y14"
_cell_length_a       22.6055
_cell_length_b       3.85206
_cell_length_c       11.149
_cell_angle_alpha    90
_cell_angle_beta     90
_cell_angle_gamma    90

_space_group_name_H-M_alt    "P 1"
_space_group_IT_number       1

loop_
  _space_group_symop_operation_xyz
  'x, y, z'

loop_
  _atom_site_type_symbol
  _atom_site_label
  _atom_site_symmetry_multiplicity
  _atom_site_fract_x
  _atom_site_fract_y
  _atom_site_fract_z
  _atom_site_occupancy
  C   C1        1.0  0.13700  0.50000  0.42300  1.0000
  C   C2        1.0  0.36300  0.50000  0.42300  1.0000
  C   C3        1.0  0.00000  0.00000  0.50000  1.0000
  C   C4        1.0  0.50000  0.00000  0.50000  1.0000
  C   C5        1.0  0.63700  0.50000  0.57700  1.0000
  C   C6        1.0  0.86300  0.50000  0.57700  1.0000
  I   I1        1.0  0.25000  0.50000  0.11900  1.0000
  I   I2        1.0  0.05820  0.00000  0.13400  1.0000
  I   I3        1.0  0.44200  0.00000  0.13400  1.0000
  I   I4        1.0  0.59200  0.50000  0.21800  1.0000
  I   I5        1.0  0.90800  0.50000  0.21800  1.0000
  I   I6        1.0  0.75000  0.00000  0.29800  1.0000
  I   I7        1.0  0.25000  0.00000  0.70200  1.0000
  I   I8        1.0  0.09210  0.50000  0.78200  1.0000
  I   I9        1.0  0.40800  0.50000  0.78200  1.0000
  I   I10       1.0  0.55800  0.00000  0.86600  1.0000
  I   I11       1.0  0.94200  0.00000  0.86600  1.0000
  I   I12       1.0  0.75000  0.50000  0.88100  1.0000
  O   O1        1.0  0.25000  0.00000  0.38600  1.0000
  O   O2        1.0  0.75000  0.00000  0.61400  1.0000
  Y   Y1        1.0  0.16500  0.00000  0.29300  1.0000
  Y   Y2        1.0  0.33500  0.00000  0.29300  1.0000
  Y   Y3        1.0  0.03050  0.50000  0.35900  1.0000
  Y   Y4        1.0  0.46900  0.50000  0.35900  1.0000
  Y   Y5        1.0  0.60500  0.00000  0.43500  1.0000
  Y   Y6        1.0  0.89500  0.00000  0.43500  1.0000
  Y   Y7        1.0  0.25000  0.50000  0.48600  1.0000
  Y   Y8        1.0  0.75000  0.50000  0.51400  1.0000
  Y   Y9        1.0  0.10500  0.00000  0.56500  1.0000
  Y   Y10       1.0  0.39500  0.00000  0.56500  1.0000
  Y   Y11       1.0  0.53100  0.50000  0.64100  1.0000
  Y   Y12       1.0  0.96900  0.50000  0.64100  1.0000
  Y   Y13       1.0  0.66500  0.00000  0.70700  1.0000
  Y   Y14       1.0  0.83500  0.00000  0.70700  1.0000
