data_image0
_chemical_formula_structural       Li3O6Zr2
_chemical_formula_sum              "Li3 O6 Zr2"
_cell_length_a       5.42975
_cell_length_b       5.42975
_cell_length_c       5.22776
_cell_angle_alpha    100.785
_cell_angle_beta     100.785
_cell_angle_gamma    119.362

_space_group_name_H-M_alt    "P 1"
_space_group_IT_number       1

loop_
  _space_group_symop_operation_xyz
  'x, y, z'

loop_
  _atom_site_type_symbol
  _atom_site_label
  _atom_site_symmetry_multiplicity
  _atom_site_fract_x
  _atom_site_fract_y
  _atom_site_fract_z
  _atom_site_occupancy
  Li  Li1       1.0  0.00000  0.00000  0.50000  1.0000
  Li  Li2       1.0  0.64700  0.35300  0.50000  1.0000
  Li  Li3       1.0  0.35300  0.64700  0.50000  1.0000
  O   O1        1.0  0.96600  0.58800  0.24900  1.0000
  O   O2        1.0  0.58800  0.96600  0.24900  1.0000
  O   O3        1.0  0.21200  0.21200  0.25900  1.0000
  O   O4        1.0  0.78800  0.78800  0.74100  1.0000
  O   O5        1.0  0.41200  0.03420  0.75100  1.0000
  O   O6        1.0  0.03420  0.41200  0.75100  1.0000
  Zr  Zr1       1.0  0.83300  0.16700  0.00000  1.0000
  Zr  Zr2       1.0  0.16700  0.83300  0.00000  1.0000
