data_image0
_chemical_formula_structural       Cu2H12N4O12V4
_chemical_formula_sum              "Cu2 H12 N4 O12 V4"
_cell_length_a       5.53172
_cell_length_b       5.47975
_cell_length_c       10.978
_cell_angle_alpha    90
_cell_angle_beta     89.8394
_cell_angle_gamma    90

_space_group_name_H-M_alt    "P 1"
_space_group_IT_number       1

loop_
  _space_group_symop_operation_xyz
  'x, y, z'

loop_
  _atom_site_type_symbol
  _atom_site_label
  _atom_site_symmetry_multiplicity
  _atom_site_fract_x
  _atom_site_fract_y
  _atom_site_fract_z
  _atom_site_occupancy
  Cu  Cu1       1.0  0.23800  0.49800  0.15900  1.0000
  Cu  Cu2       1.0  0.23800  0.50200  0.65900  1.0000
  H   H1        1.0  0.54600  0.74600  0.04450  1.0000
  H   H2        1.0  0.66000  0.47100  0.06770  1.0000
  H   H3        1.0  0.84300  0.32000  0.24300  1.0000
  H   H4        1.0  0.88800  0.60100  0.29500  1.0000
  H   H5        1.0  0.04180  0.36700  0.35300  1.0000
  H   H6        1.0  0.46000  0.48700  0.45700  1.0000
  H   H7        1.0  0.54600  0.25400  0.54400  1.0000
  H   H8        1.0  0.66000  0.52900  0.56800  1.0000
  H   H9        1.0  0.84300  0.68000  0.74300  1.0000
  H   H10       1.0  0.88800  0.39900  0.79500  1.0000
  H   H11       1.0  0.04180  0.63300  0.85300  1.0000
  H   H12       1.0  0.46000  0.51300  0.95700  1.0000
  N   N1        1.0  0.50500  0.56300  0.04470  1.0000
  N   N2        1.0  0.97100  0.43900  0.27500  1.0000
  N   N3        1.0  0.50500  0.43700  0.54500  1.0000
  N   N4        1.0  0.97100  0.56100  0.77500  1.0000
  O   O1        1.0  0.04540  0.35000  0.03120  1.0000
  O   O2        1.0  0.97800  0.89100  0.13300  1.0000
  O   O3        1.0  0.49100  0.11900  0.19200  1.0000
  O   O4        1.0  0.42200  0.65500  0.29000  1.0000
  O   O5        1.0  0.73600  0.98700  0.41000  1.0000
  O   O6        1.0  0.23700  0.08360  0.41300  1.0000
  O   O7        1.0  0.04540  0.65000  0.53100  1.0000
  O   O8        1.0  0.97800  0.10900  0.63300  1.0000
  O   O9        1.0  0.49100  0.88100  0.69200  1.0000
  O   O10       1.0  0.42200  0.34500  0.79000  1.0000
  O   O11       1.0  0.73600  0.01340  0.91000  1.0000
  O   O12       1.0  0.23700  0.91600  0.91300  1.0000
  V   V1        1.0  0.99900  0.04760  0.00520  1.0000
  V   V2        1.0  0.47100  0.95600  0.31800  1.0000
  V   V3        1.0  0.99900  0.95200  0.50500  1.0000
  V   V4        1.0  0.47100  0.04420  0.81800  1.0000
