data_image0
_chemical_formula_structural       Ge9Pd25
_chemical_formula_sum              "Ge9 Pd25"
_cell_length_a       7.47632
_cell_length_b       7.47632
_cell_length_c       10.7543
_cell_angle_alpha    89.9996
_cell_angle_beta     90.0004
_cell_angle_gamma    120

_space_group_name_H-M_alt    "P 1"
_space_group_IT_number       1

loop_
  _space_group_symop_operation_xyz
  'x, y, z'

loop_
  _atom_site_type_symbol
  _atom_site_label
  _atom_site_symmetry_multiplicity
  _atom_site_fract_x
  _atom_site_fract_y
  _atom_site_fract_z
  _atom_site_occupancy
  Ge  Ge1       1.0  0.00000  0.00000  0.00000  1.0000
  Ge  Ge2       1.0  0.66700  0.33300  0.02330  1.0000
  Ge  Ge3       1.0  0.34200  0.33500  0.32100  1.0000
  Ge  Ge4       1.0  0.99300  0.65800  0.32100  1.0000
  Ge  Ge5       1.0  0.66500  0.00704  0.32100  1.0000
  Ge  Ge6       1.0  0.33500  0.99300  0.67900  1.0000
  Ge  Ge7       1.0  0.00704  0.34200  0.67900  1.0000
  Ge  Ge8       1.0  0.65800  0.66500  0.67900  1.0000
  Ge  Ge9       1.0  0.33300  0.66700  0.97700  1.0000
  Pd  Pd1       1.0  0.06810  0.72300  0.07880  1.0000
  Pd  Pd2       1.0  0.27700  0.34600  0.07880  1.0000
  Pd  Pd3       1.0  0.65400  0.93200  0.07880  1.0000
  Pd  Pd4       1.0  0.67500  0.58500  0.18700  1.0000
  Pd  Pd5       1.0  0.91100  0.32500  0.18700  1.0000
  Pd  Pd6       1.0  0.41500  0.08950  0.18700  1.0000
  Pd  Pd7       1.0  0.33300  0.66700  0.24200  1.0000
  Pd  Pd8       1.0  0.00000  0.00000  0.24900  1.0000
  Pd  Pd9       1.0  0.66700  0.33300  0.39100  1.0000
  Pd  Pd10      1.0  0.30700  0.92600  0.43200  1.0000
  Pd  Pd11      1.0  0.07410  0.38100  0.43200  1.0000
  Pd  Pd12      1.0  0.61900  0.69300  0.43200  1.0000
  Pd  Pd13      1.0  0.00000  0.00000  0.50000  1.0000
  Pd  Pd14      1.0  0.38100  0.30700  0.56800  1.0000
  Pd  Pd15      1.0  0.92600  0.61900  0.56800  1.0000
  Pd  Pd16      1.0  0.69300  0.07410  0.56800  1.0000
  Pd  Pd17      1.0  0.33300  0.66700  0.60900  1.0000
  Pd  Pd18      1.0  0.00000  0.00000  0.75100  1.0000
  Pd  Pd19      1.0  0.66700  0.33300  0.75800  1.0000
  Pd  Pd20      1.0  0.58500  0.91100  0.81300  1.0000
  Pd  Pd21      1.0  0.08950  0.67500  0.81300  1.0000
  Pd  Pd22      1.0  0.32500  0.41500  0.81300  1.0000
  Pd  Pd23      1.0  0.34600  0.06810  0.92100  1.0000
  Pd  Pd24      1.0  0.72300  0.65400  0.92100  1.0000
  Pd  Pd25      1.0  0.93200  0.27700  0.92100  1.0000
