data_image0
_chemical_formula_structural       La4O24W6
_chemical_formula_sum              "La4 O24 W6"
_cell_length_a       7.05812
_cell_length_b       7.05812
_cell_length_c       11.5797
_cell_angle_alpha    100.695
_cell_angle_beta     100.695
_cell_angle_gamma    112.491

_space_group_name_H-M_alt    "P 1"
_space_group_IT_number       1

loop_
  _space_group_symop_operation_xyz
  'x, y, z'

loop_
  _atom_site_type_symbol
  _atom_site_label
  _atom_site_symmetry_multiplicity
  _atom_site_fract_x
  _atom_site_fract_y
  _atom_site_fract_z
  _atom_site_occupancy
  La  La1       1.0  0.30700  0.05480  0.09830  1.0000
  La  La2       1.0  0.94500  0.69300  0.40200  1.0000
  La  La3       1.0  0.05480  0.30700  0.59800  1.0000
  La  La4       1.0  0.69300  0.94500  0.90200  1.0000
  O   O1        1.0  0.62900  0.22800  0.03870  1.0000
  O   O2        1.0  0.33000  0.40500  0.06550  1.0000
  O   O3        1.0  0.09690  0.67100  0.07710  1.0000
  O   O4        1.0  0.94300  0.02230  0.11100  1.0000
  O   O5        1.0  0.78800  0.64800  0.19000  1.0000
  O   O6        1.0  0.60000  0.01100  0.22400  1.0000
  O   O7        1.0  0.98900  0.40000  0.27600  1.0000
  O   O8        1.0  0.35200  0.21200  0.31000  1.0000
  O   O9        1.0  0.97800  0.05700  0.38900  1.0000
  O   O10       1.0  0.32900  0.90300  0.42300  1.0000
  O   O11       1.0  0.59500  0.67000  0.43500  1.0000
  O   O12       1.0  0.77200  0.37100  0.46100  1.0000
  O   O13       1.0  0.22800  0.62900  0.53900  1.0000
  O   O14       1.0  0.40500  0.33000  0.56500  1.0000
  O   O15       1.0  0.67100  0.09690  0.57700  1.0000
  O   O16       1.0  0.02230  0.94300  0.61100  1.0000
  O   O17       1.0  0.64800  0.78800  0.69000  1.0000
  O   O18       1.0  0.01100  0.60000  0.72400  1.0000
  O   O19       1.0  0.40000  0.98900  0.77600  1.0000
  O   O20       1.0  0.21200  0.35200  0.81000  1.0000
  O   O21       1.0  0.05700  0.97800  0.88900  1.0000
  O   O22       1.0  0.90300  0.32900  0.92300  1.0000
  O   O23       1.0  0.67000  0.59500  0.93500  1.0000
  O   O24       1.0  0.37100  0.77200  0.96100  1.0000
  W   W1        1.0  0.79700  0.50800  0.04560  1.0000
  W   W2        1.0  0.88200  0.11800  0.25000  1.0000
  W   W3        1.0  0.49200  0.20300  0.45400  1.0000
  W   W4        1.0  0.50800  0.79700  0.54600  1.0000
  W   W5        1.0  0.11800  0.88200  0.75000  1.0000
  W   W6        1.0  0.20300  0.49200  0.95400  1.0000
