data_image0
_chemical_formula_structural       Ba10Cl2O18Ru4
_chemical_formula_sum              "Ba10 Cl2 O18 Ru4"
_cell_length_a       6.00335
_cell_length_b       6.02419
_cell_length_c       18.2457
_cell_angle_alpha    90
_cell_angle_beta     90
_cell_angle_gamma    60.1143

_space_group_name_H-M_alt    "P 1"
_space_group_IT_number       1

loop_
  _space_group_symop_operation_xyz
  'x, y, z'

loop_
  _atom_site_type_symbol
  _atom_site_label
  _atom_site_symmetry_multiplicity
  _atom_site_fract_x
  _atom_site_fract_y
  _atom_site_fract_z
  _atom_site_occupancy
  Ba  Ba1       1.0  0.15900  0.68100  0.01510  1.0000
  Ba  Ba2       1.0  0.50300  0.99300  0.14800  1.0000
  Ba  Ba3       1.0  0.16600  0.66700  0.24600  1.0000
  Ba  Ba4       1.0  0.49500  0.01050  0.34400  1.0000
  Ba  Ba5       1.0  0.17200  0.65700  0.47700  1.0000
  Ba  Ba6       1.0  0.84100  0.31900  0.51500  1.0000
  Ba  Ba7       1.0  0.49700  0.00652  0.64800  1.0000
  Ba  Ba8       1.0  0.83400  0.33300  0.74600  1.0000
  Ba  Ba9       1.0  0.50500  0.98900  0.84400  1.0000
  Ba  Ba10      1.0  0.82800  0.34300  0.97700  1.0000
  Cl  Cl1       1.0  0.53100  0.93800  0.49600  1.0000
  Cl  Cl2       1.0  0.46900  0.06170  0.99600  1.0000
  O   O1        1.0  0.97900  0.04190  0.11000  1.0000
  O   O2        1.0  0.51300  0.51400  0.11300  1.0000
  O   O3        1.0  0.97300  0.51400  0.11300  1.0000
  O   O4        1.0  0.13500  0.18400  0.24500  1.0000
  O   O5        1.0  0.68100  0.18400  0.24500  1.0000
  O   O6        1.0  0.68100  0.63700  0.24900  1.0000
  O   O7        1.0  0.99700  0.00695  0.37800  1.0000
  O   O8        1.0  0.00473  0.46500  0.38100  1.0000
  O   O9        1.0  0.53000  0.46500  0.38100  1.0000
  O   O10       1.0  0.02100  0.95800  0.61000  1.0000
  O   O11       1.0  0.02660  0.48600  0.61300  1.0000
  O   O12       1.0  0.48700  0.48600  0.61300  1.0000
  O   O13       1.0  0.31900  0.81600  0.74500  1.0000
  O   O14       1.0  0.86500  0.81600  0.74500  1.0000
  O   O15       1.0  0.31900  0.36300  0.74900  1.0000
  O   O16       1.0  0.00348  0.99300  0.87800  1.0000
  O   O17       1.0  0.47000  0.53500  0.88100  1.0000
  O   O18       1.0  0.99500  0.53500  0.88100  1.0000
  Ru  Ru1       1.0  0.82800  0.34400  0.17100  1.0000
  Ru  Ru2       1.0  0.83700  0.32600  0.32200  1.0000
  Ru  Ru3       1.0  0.17200  0.65600  0.67100  1.0000
  Ru  Ru4       1.0  0.16300  0.67400  0.82200  1.0000
