data_image0
_chemical_formula_structural       Cs8Cu2K4O16Si4
_chemical_formula_sum              "Cs8 Cu2 K4 O16 Si4"
_cell_length_a       10.4215
_cell_length_b       10.4215
_cell_length_c       6.06971
_cell_angle_alpha    90
_cell_angle_beta     90
_cell_angle_gamma    90

_space_group_name_H-M_alt    "P 1"
_space_group_IT_number       1

loop_
  _space_group_symop_operation_xyz
  'x, y, z'

loop_
  _atom_site_type_symbol
  _atom_site_label
  _atom_site_symmetry_multiplicity
  _atom_site_fract_x
  _atom_site_fract_y
  _atom_site_fract_z
  _atom_site_occupancy
  Cs  Cs1       1.0  0.61700  0.13700  0.00000  1.0000
  Cs  Cs2       1.0  0.86300  0.38300  0.00000  1.0000
  Cs  Cs3       1.0  0.13700  0.61700  0.00000  1.0000
  Cs  Cs4       1.0  0.38300  0.86300  0.00000  1.0000
  Cs  Cs5       1.0  0.36300  0.11700  0.50000  1.0000
  Cs  Cs6       1.0  0.11700  0.36300  0.50000  1.0000
  Cs  Cs7       1.0  0.88300  0.63700  0.50000  1.0000
  Cs  Cs8       1.0  0.63700  0.88300  0.50000  1.0000
  Cu  Cu1       1.0  0.00000  0.00000  0.00000  1.0000
  Cu  Cu2       1.0  0.50000  0.50000  0.50000  1.0000
  K   K1        1.0  0.39700  0.39700  0.00000  1.0000
  K   K2        1.0  0.60300  0.60300  0.00000  1.0000
  K   K3        1.0  0.89700  0.10300  0.50000  1.0000
  K   K4        1.0  0.10300  0.89700  0.50000  1.0000
  O   O1        1.0  0.33100  0.14800  0.00000  1.0000
  O   O2        1.0  0.14800  0.33100  0.00000  1.0000
  O   O3        1.0  0.85200  0.66900  0.00000  1.0000
  O   O4        1.0  0.66900  0.85200  0.00000  1.0000
  O   O5        1.0  0.10200  0.10200  0.21100  1.0000
  O   O6        1.0  0.89800  0.89800  0.21100  1.0000
  O   O7        1.0  0.60200  0.39800  0.28900  1.0000
  O   O8        1.0  0.39800  0.60200  0.28900  1.0000
  O   O9        1.0  0.64800  0.16900  0.50000  1.0000
  O   O10       1.0  0.83100  0.35200  0.50000  1.0000
  O   O11       1.0  0.16900  0.64800  0.50000  1.0000
  O   O12       1.0  0.35200  0.83100  0.50000  1.0000
  O   O13       1.0  0.60200  0.39800  0.71100  1.0000
  O   O14       1.0  0.39800  0.60200  0.71100  1.0000
  O   O15       1.0  0.10200  0.10200  0.78900  1.0000
  O   O16       1.0  0.89800  0.89800  0.78900  1.0000
  Si  Si1       1.0  0.17700  0.17700  0.00000  1.0000
  Si  Si2       1.0  0.82300  0.82300  0.00000  1.0000
  Si  Si3       1.0  0.67700  0.32300  0.50000  1.0000
  Si  Si4       1.0  0.32300  0.67700  0.50000  1.0000
