data_image0
_chemical_formula_structural       Cs2H12O16Te3
_chemical_formula_sum              "Cs2 H12 O16 Te3"
_cell_length_a       6.59464
_cell_length_b       7.26811
_cell_length_c       9.81913
_cell_angle_alpha    69.7999
_cell_angle_beta     97.3188
_cell_angle_gamma    69.938

_space_group_name_H-M_alt    "P 1"
_space_group_IT_number       1

loop_
  _space_group_symop_operation_xyz
  'x, y, z'

loop_
  _atom_site_type_symbol
  _atom_site_label
  _atom_site_symmetry_multiplicity
  _atom_site_fract_x
  _atom_site_fract_y
  _atom_site_fract_z
  _atom_site_occupancy
  Cs  Cs1       1.0  0.10900  0.27700  0.32400  1.0000
  Cs  Cs2       1.0  0.89100  0.72300  0.67600  1.0000
  H   H1        1.0  0.33800  0.45400  0.05280  1.0000
  H   H2        1.0  0.09350  0.76600  0.08080  1.0000
  H   H3        1.0  0.56300  0.48900  0.23500  1.0000
  H   H4        1.0  0.14900  0.73800  0.26000  1.0000
  H   H5        1.0  0.55500  0.77300  0.29200  1.0000
  H   H6        1.0  0.73500  0.08740  0.36600  1.0000
  H   H7        1.0  0.26500  0.91200  0.63400  1.0000
  H   H8        1.0  0.44500  0.22700  0.70800  1.0000
  H   H9        1.0  0.85100  0.26200  0.74000  1.0000
  H   H10       1.0  0.43700  0.51100  0.76500  1.0000
  H   H11       1.0  0.90600  0.23400  0.91900  1.0000
  H   H12       1.0  0.66200  0.54600  0.94700  1.0000
  O   O1        1.0  0.83200  0.29500  0.04460  1.0000
  O   O2        1.0  0.43900  0.31300  0.14400  1.0000
  O   O3        1.0  0.05330  0.83500  0.15500  1.0000
  O   O4        1.0  0.59700  0.60700  0.16700  1.0000
  O   O5        1.0  0.68800  0.68900  0.26500  1.0000
  O   O6        1.0  0.81600  0.98300  0.32400  1.0000
  O   O7        1.0  0.47000  0.83000  0.44600  1.0000
  O   O8        1.0  0.69900  0.20700  0.47700  1.0000
  O   O9        1.0  0.30100  0.79300  0.52300  1.0000
  O   O10       1.0  0.53000  0.17000  0.55400  1.0000
  O   O11       1.0  0.18400  0.01660  0.67600  1.0000
  O   O12       1.0  0.31200  0.31100  0.73500  1.0000
  O   O13       1.0  0.40300  0.39300  0.83300  1.0000
  O   O14       1.0  0.94700  0.16500  0.84500  1.0000
  O   O15       1.0  0.56100  0.68700  0.85600  1.0000
  O   O16       1.0  0.16800  0.70500  0.95500  1.0000
  Te  Te1       1.0  0.69000  0.10900  0.10700  1.0000
  Te  Te2       1.0  0.50000  0.50000  0.50000  1.0000
  Te  Te3       1.0  0.31000  0.89100  0.89300  1.0000
