data_image0
_chemical_formula_structural       Cs8F20Zn6
_chemical_formula_sum              "Cs8 F20 Zn6"
_cell_length_a       6.05587
_cell_length_b       7.7178
_cell_length_c       13.5392
_cell_angle_alpha    90
_cell_angle_beta     90
_cell_angle_gamma    66.9004

_space_group_name_H-M_alt    "P 1"
_space_group_IT_number       1

loop_
  _space_group_symop_operation_xyz
  'x, y, z'

loop_
  _atom_site_type_symbol
  _atom_site_label
  _atom_site_symmetry_multiplicity
  _atom_site_fract_x
  _atom_site_fract_y
  _atom_site_fract_z
  _atom_site_occupancy
  Cs  Cs1       1.0  0.23900  0.52200  0.11300  1.0000
  Cs  Cs2       1.0  0.54200  0.91600  0.13900  1.0000
  Cs  Cs3       1.0  0.04210  0.91600  0.36100  1.0000
  Cs  Cs4       1.0  0.73900  0.52200  0.38700  1.0000
  Cs  Cs5       1.0  0.26100  0.47800  0.61300  1.0000
  Cs  Cs6       1.0  0.95800  0.08410  0.63900  1.0000
  Cs  Cs7       1.0  0.45800  0.08410  0.86100  1.0000
  Cs  Cs8       1.0  0.76100  0.47800  0.88700  1.0000
  F   F1        1.0  0.11800  0.21000  0.03560  1.0000
  F   F2        1.0  0.67200  0.21000  0.03560  1.0000
  F   F3        1.0  0.02610  0.94800  0.14800  1.0000
  F   F4        1.0  0.73800  0.52400  0.15100  1.0000
  F   F5        1.0  0.13400  0.23100  0.25000  1.0000
  F   F6        1.0  0.63400  0.23100  0.25000  1.0000
  F   F7        1.0  0.23800  0.52400  0.34900  1.0000
  F   F8        1.0  0.52600  0.94800  0.35200  1.0000
  F   F9        1.0  0.17200  0.21000  0.46400  1.0000
  F   F10       1.0  0.61800  0.21000  0.46400  1.0000
  F   F11       1.0  0.38200  0.79000  0.53600  1.0000
  F   F12       1.0  0.82800  0.79000  0.53600  1.0000
  F   F13       1.0  0.47400  0.05210  0.64800  1.0000
  F   F14       1.0  0.76200  0.47600  0.65100  1.0000
  F   F15       1.0  0.36600  0.76900  0.75000  1.0000
  F   F16       1.0  0.86600  0.76900  0.75000  1.0000
  F   F17       1.0  0.26200  0.47600  0.84900  1.0000
  F   F18       1.0  0.97400  0.05210  0.85200  1.0000
  F   F19       1.0  0.32800  0.79000  0.96400  1.0000
  F   F20       1.0  0.88200  0.79000  0.96400  1.0000
  Zn  Zn1       1.0  0.00000  0.00000  0.00000  1.0000
  Zn  Zn2       1.0  0.87500  0.25100  0.15300  1.0000
  Zn  Zn3       1.0  0.37500  0.25100  0.34700  1.0000
  Zn  Zn4       1.0  0.50000  0.00000  0.50000  1.0000
  Zn  Zn5       1.0  0.62500  0.74900  0.65300  1.0000
  Zn  Zn6       1.0  0.12500  0.74900  0.84700  1.0000
