data_image0
_chemical_formula_structural       Eu4O24W6
_chemical_formula_sum              "Eu4 O24 W6"
_cell_length_a       6.83383
_cell_length_b       6.83383
_cell_length_c       11.5906
_cell_angle_alpha    100.434
_cell_angle_beta     100.434
_cell_angle_gamma    111.93

_space_group_name_H-M_alt    "P 1"
_space_group_IT_number       1

loop_
  _space_group_symop_operation_xyz
  'x, y, z'

loop_
  _atom_site_type_symbol
  _atom_site_label
  _atom_site_symmetry_multiplicity
  _atom_site_fract_x
  _atom_site_fract_y
  _atom_site_fract_z
  _atom_site_occupancy
  Eu  Eu1       1.0  0.29500  0.04580  0.09260  1.0000
  Eu  Eu2       1.0  0.95400  0.70500  0.40700  1.0000
  Eu  Eu3       1.0  0.04580  0.29500  0.59300  1.0000
  Eu  Eu4       1.0  0.70500  0.95400  0.90700  1.0000
  O   O1        1.0  0.90300  0.81600  0.04540  1.0000
  O   O2        1.0  0.21400  0.65700  0.06200  1.0000
  O   O3        1.0  0.50100  0.44500  0.08530  1.0000
  O   O4        1.0  0.67400  0.09930  0.11000  1.0000
  O   O5        1.0  0.92800  0.52600  0.20100  1.0000
  O   O6        1.0  0.13700  0.21300  0.22800  1.0000
  O   O7        1.0  0.78700  0.86300  0.27200  1.0000
  O   O8        1.0  0.47400  0.07170  0.29900  1.0000
  O   O9        1.0  0.90100  0.32600  0.39000  1.0000
  O   O10       1.0  0.55500  0.49900  0.41500  1.0000
  O   O11       1.0  0.34300  0.78600  0.43800  1.0000
  O   O12       1.0  0.18400  0.09710  0.45500  1.0000
  O   O13       1.0  0.81600  0.90300  0.54500  1.0000
  O   O14       1.0  0.65700  0.21400  0.56200  1.0000
  O   O15       1.0  0.44500  0.50100  0.58500  1.0000
  O   O16       1.0  0.09930  0.67400  0.61000  1.0000
  O   O17       1.0  0.52600  0.92800  0.70100  1.0000
  O   O18       1.0  0.21300  0.13700  0.72800  1.0000
  O   O19       1.0  0.86300  0.78700  0.77200  1.0000
  O   O20       1.0  0.07170  0.47400  0.79900  1.0000
  O   O21       1.0  0.32600  0.90100  0.89000  1.0000
  O   O22       1.0  0.49900  0.55500  0.91500  1.0000
  O   O23       1.0  0.78600  0.34300  0.93800  1.0000
  O   O24       1.0  0.09710  0.18400  0.95500  1.0000
  W   W1        1.0  0.78200  0.54000  0.05980  1.0000
  W   W2        1.0  0.86900  0.13100  0.25000  1.0000
  W   W3        1.0  0.46000  0.21800  0.44000  1.0000
  W   W4        1.0  0.54000  0.78200  0.56000  1.0000
  W   W5        1.0  0.13100  0.86900  0.75000  1.0000
  W   W6        1.0  0.21800  0.46000  0.94000  1.0000
