data_image0
_chemical_formula_structural       Eu2Ni20P12
_chemical_formula_sum              "Eu2 Ni20 P12"
_cell_length_a       8.58528
_cell_length_b       6.42782
_cell_length_c       8.68535
_cell_angle_alpha    90
_cell_angle_beta     90
_cell_angle_gamma    111.984

_space_group_name_H-M_alt    "P 1"
_space_group_IT_number       1

loop_
  _space_group_symop_operation_xyz
  'x, y, z'

loop_
  _atom_site_type_symbol
  _atom_site_label
  _atom_site_symmetry_multiplicity
  _atom_site_fract_x
  _atom_site_fract_y
  _atom_site_fract_z
  _atom_site_occupancy
  Eu  Eu1       1.0  0.00000  0.50000  0.00000  1.0000
  Eu  Eu2       1.0  0.00000  0.00000  0.50000  1.0000
  Ni  Ni1       1.0  0.65400  0.02720  0.03010  1.0000
  Ni  Ni2       1.0  0.65400  0.62700  0.03010  1.0000
  Ni  Ni3       1.0  0.91400  0.95700  0.12000  1.0000
  Ni  Ni4       1.0  0.58900  0.29500  0.20800  1.0000
  Ni  Ni5       1.0  0.32800  0.41400  0.25000  1.0000
  Ni  Ni6       1.0  0.32800  0.91400  0.25000  1.0000
  Ni  Ni7       1.0  0.58900  0.79500  0.29200  1.0000
  Ni  Ni8       1.0  0.91400  0.45700  0.38000  1.0000
  Ni  Ni9       1.0  0.65400  0.12700  0.47000  1.0000
  Ni  Ni10      1.0  0.65400  0.52700  0.47000  1.0000
  Ni  Ni11      1.0  0.34600  0.47300  0.53000  1.0000
  Ni  Ni12      1.0  0.34600  0.87300  0.53000  1.0000
  Ni  Ni13      1.0  0.08620  0.54300  0.62000  1.0000
  Ni  Ni14      1.0  0.41100  0.20500  0.70800  1.0000
  Ni  Ni15      1.0  0.67200  0.08580  0.75000  1.0000
  Ni  Ni16      1.0  0.67200  0.58600  0.75000  1.0000
  Ni  Ni17      1.0  0.41100  0.70500  0.79200  1.0000
  Ni  Ni18      1.0  0.08620  0.04310  0.88000  1.0000
  Ni  Ni19      1.0  0.34600  0.37300  0.97000  1.0000
  Ni  Ni20      1.0  0.34600  0.97300  0.97000  1.0000
  P   P1        1.0  0.41500  0.70800  0.07220  1.0000
  P   P2        1.0  0.18300  0.09160  0.13000  1.0000
  P   P3        1.0  0.79200  0.14600  0.25000  1.0000
  P   P4        1.0  0.79200  0.64600  0.25000  1.0000
  P   P5        1.0  0.18300  0.59200  0.37000  1.0000
  P   P6        1.0  0.41500  0.20800  0.42800  1.0000
  P   P7        1.0  0.58500  0.79200  0.57200  1.0000
  P   P8        1.0  0.81700  0.40800  0.63000  1.0000
  P   P9        1.0  0.20800  0.35400  0.75000  1.0000
  P   P10       1.0  0.20800  0.85400  0.75000  1.0000
  P   P11       1.0  0.81700  0.90800  0.87000  1.0000
  P   P12       1.0  0.58500  0.29200  0.92800  1.0000
