data_image0
_chemical_formula_structural       C2Cl12H4O8Pb8
_chemical_formula_sum              "C2 Cl12 H4 O8 Pb8"
_cell_length_a       4.20635
_cell_length_b       9.25607
_cell_length_c       16.6369
_cell_angle_alpha    90
_cell_angle_beta     91.8697
_cell_angle_gamma    90

_space_group_name_H-M_alt    "P 1"
_space_group_IT_number       1

loop_
  _space_group_symop_operation_xyz
  'x, y, z'

loop_
  _atom_site_type_symbol
  _atom_site_label
  _atom_site_symmetry_multiplicity
  _atom_site_fract_x
  _atom_site_fract_y
  _atom_site_fract_z
  _atom_site_occupancy
  C   C1        1.0  0.41300  0.25000  0.24400  1.0000
  C   C2        1.0  0.58700  0.75000  0.75600  1.0000
  Cl  Cl1       1.0  0.76900  0.53200  0.08820  1.0000
  Cl  Cl2       1.0  0.76900  0.96800  0.08820  1.0000
  Cl  Cl3       1.0  0.28800  0.75000  0.22000  1.0000
  Cl  Cl4       1.0  0.74300  0.75000  0.39400  1.0000
  Cl  Cl5       1.0  0.23600  0.05030  0.41500  1.0000
  Cl  Cl6       1.0  0.23600  0.45000  0.41500  1.0000
  Cl  Cl7       1.0  0.76400  0.55000  0.58500  1.0000
  Cl  Cl8       1.0  0.76400  0.95000  0.58500  1.0000
  Cl  Cl9       1.0  0.25700  0.25000  0.60600  1.0000
  Cl  Cl10      1.0  0.71200  0.25000  0.78000  1.0000
  Cl  Cl11      1.0  0.23100  0.03210  0.91200  1.0000
  Cl  Cl12      1.0  0.23100  0.46800  0.91200  1.0000
  H   H1        1.0  0.24600  0.16700  0.10100  1.0000
  H   H2        1.0  0.24600  0.33300  0.10100  1.0000
  H   H3        1.0  0.75400  0.66700  0.89900  1.0000
  H   H4        1.0  0.75400  0.83300  0.89900  1.0000
  O   O1        1.0  0.25100  0.25000  0.06350  1.0000
  O   O2        1.0  0.29500  0.12700  0.22000  1.0000
  O   O3        1.0  0.29500  0.37300  0.22000  1.0000
  O   O4        1.0  0.67600  0.25000  0.28900  1.0000
  O   O5        1.0  0.32400  0.75000  0.71100  1.0000
  O   O6        1.0  0.70500  0.62700  0.78000  1.0000
  O   O7        1.0  0.70500  0.87300  0.78000  1.0000
  O   O8        1.0  0.74900  0.75000  0.93700  1.0000
  Pb  Pb1       1.0  0.26000  0.75000  0.04110  1.0000
  Pb  Pb2       1.0  0.81300  0.51100  0.26700  1.0000
  Pb  Pb3       1.0  0.81300  0.98900  0.26700  1.0000
  Pb  Pb4       1.0  0.74800  0.25000  0.48700  1.0000
  Pb  Pb5       1.0  0.25200  0.75000  0.51300  1.0000
  Pb  Pb6       1.0  0.18700  0.01090  0.73300  1.0000
  Pb  Pb7       1.0  0.18700  0.48900  0.73300  1.0000
  Pb  Pb8       1.0  0.74000  0.25000  0.95900  1.0000
