data_image0
_chemical_formula_structural       Ni20P12Sr2
_chemical_formula_sum              "Ni20 P12 Sr2"
_cell_length_a       8.64942
_cell_length_b       6.43086
_cell_length_c       8.72323
_cell_angle_alpha    90
_cell_angle_beta     90
_cell_angle_gamma    111.824

_space_group_name_H-M_alt    "P 1"
_space_group_IT_number       1

loop_
  _space_group_symop_operation_xyz
  'x, y, z'

loop_
  _atom_site_type_symbol
  _atom_site_label
  _atom_site_symmetry_multiplicity
  _atom_site_fract_x
  _atom_site_fract_y
  _atom_site_fract_z
  _atom_site_occupancy
  Ni  Ni1       1.0  0.65300  0.02630  0.02980  1.0000
  Ni  Ni2       1.0  0.65300  0.62700  0.02980  1.0000
  Ni  Ni3       1.0  0.91300  0.95600  0.12000  1.0000
  Ni  Ni4       1.0  0.58600  0.29300  0.20800  1.0000
  Ni  Ni5       1.0  0.32700  0.41400  0.25000  1.0000
  Ni  Ni6       1.0  0.32700  0.91400  0.25000  1.0000
  Ni  Ni7       1.0  0.58600  0.79300  0.29200  1.0000
  Ni  Ni8       1.0  0.91300  0.45600  0.38000  1.0000
  Ni  Ni9       1.0  0.65300  0.12700  0.47000  1.0000
  Ni  Ni10      1.0  0.65300  0.52600  0.47000  1.0000
  Ni  Ni11      1.0  0.34700  0.47400  0.53000  1.0000
  Ni  Ni12      1.0  0.34700  0.87300  0.53000  1.0000
  Ni  Ni13      1.0  0.08740  0.54400  0.62000  1.0000
  Ni  Ni14      1.0  0.41400  0.20700  0.70800  1.0000
  Ni  Ni15      1.0  0.67300  0.08640  0.75000  1.0000
  Ni  Ni16      1.0  0.67300  0.58600  0.75000  1.0000
  Ni  Ni17      1.0  0.41400  0.70700  0.79200  1.0000
  Ni  Ni18      1.0  0.08740  0.04370  0.88000  1.0000
  Ni  Ni19      1.0  0.34700  0.37300  0.97000  1.0000
  Ni  Ni20      1.0  0.34700  0.97400  0.97000  1.0000
  P   P1        1.0  0.41600  0.70800  0.07300  1.0000
  P   P2        1.0  0.18200  0.09120  0.12900  1.0000
  P   P3        1.0  0.78900  0.14400  0.25000  1.0000
  P   P4        1.0  0.78900  0.64400  0.25000  1.0000
  P   P5        1.0  0.18200  0.59100  0.37100  1.0000
  P   P6        1.0  0.41600  0.20800  0.42700  1.0000
  P   P7        1.0  0.58400  0.79200  0.57300  1.0000
  P   P8        1.0  0.81800  0.40900  0.62900  1.0000
  P   P9        1.0  0.21100  0.35600  0.75000  1.0000
  P   P10       1.0  0.21100  0.85600  0.75000  1.0000
  P   P11       1.0  0.81800  0.90900  0.87100  1.0000
  P   P12       1.0  0.58400  0.29200  0.92700  1.0000
  Sr  Sr1       1.0  0.00000  0.50000  0.00000  1.0000
  Sr  Sr2       1.0  0.00000  0.00000  0.50000  1.0000
