data_image0
_chemical_formula_structural       Cs2F6O18PtS6
_chemical_formula_sum              "Cs2 F6 O18 Pt1 S6"
_cell_length_a       8.96704
_cell_length_b       8.96706
_cell_length_c       7.188
_cell_angle_alpha    90
_cell_angle_beta     90
_cell_angle_gamma    120

_space_group_name_H-M_alt    "P 1"
_space_group_IT_number       1

loop_
  _space_group_symop_operation_xyz
  'x, y, z'

loop_
  _atom_site_type_symbol
  _atom_site_label
  _atom_site_symmetry_multiplicity
  _atom_site_fract_x
  _atom_site_fract_y
  _atom_site_fract_z
  _atom_site_occupancy
  Cs  Cs1       1.0  0.33300  0.66700  0.31000  1.0000
  Cs  Cs2       1.0  0.66700  0.33300  0.69000  1.0000
  F   F1        1.0  0.75100  0.54200  0.04880  1.0000
  F   F2        1.0  0.79100  0.24900  0.04880  1.0000
  F   F3        1.0  0.45800  0.20900  0.04880  1.0000
  F   F4        1.0  0.54200  0.75100  0.95100  1.0000
  F   F5        1.0  0.20900  0.45800  0.95100  1.0000
  F   F6        1.0  0.24900  0.79100  0.95100  1.0000
  O   O1        1.0  0.19000  0.14800  0.18600  1.0000
  O   O2        1.0  0.95800  0.81000  0.18600  1.0000
  O   O3        1.0  0.85200  0.04210  0.18600  1.0000
  O   O4        1.0  0.65300  0.66600  0.28200  1.0000
  O   O5        1.0  0.33400  0.98700  0.28200  1.0000
  O   O6        1.0  0.01250  0.34700  0.28200  1.0000
  O   O7        1.0  0.44500  0.29500  0.36400  1.0000
  O   O8        1.0  0.70500  0.15000  0.36400  1.0000
  O   O9        1.0  0.85000  0.55500  0.36400  1.0000
  O   O10       1.0  0.15000  0.70500  0.63600  1.0000
  O   O11       1.0  0.55500  0.85000  0.63600  1.0000
  O   O12       1.0  0.29500  0.44500  0.63600  1.0000
  O   O13       1.0  0.98700  0.33400  0.71800  1.0000
  O   O14       1.0  0.34700  0.01250  0.71800  1.0000
  O   O15       1.0  0.66600  0.65300  0.71800  1.0000
  O   O16       1.0  0.14800  0.19000  0.81400  1.0000
  O   O17       1.0  0.04210  0.85200  0.81400  1.0000
  O   O18       1.0  0.81000  0.95800  0.81400  1.0000
  Pt  Pt1       1.0  0.00000  0.00000  0.00000  1.0000
  S   S1        1.0  0.35400  0.15200  0.24100  1.0000
  S   S2        1.0  0.79800  0.64600  0.24100  1.0000
  S   S3        1.0  0.84800  0.20200  0.24100  1.0000
  S   S4        1.0  0.15200  0.35400  0.75900  1.0000
  S   S5        1.0  0.20200  0.84800  0.75900  1.0000
  S   S6        1.0  0.64600  0.79800  0.75900  1.0000
