data_image0
_chemical_formula_structural       Ba8O20Ru6
_chemical_formula_sum              "Ba8 O20 Ru6"
_cell_length_a       7.19569
_cell_length_b       7.19569
_cell_length_c       12.9769
_cell_angle_alpha    90
_cell_angle_beta     90
_cell_angle_gamma    46.7558

_space_group_name_H-M_alt    "P 1"
_space_group_IT_number       1

loop_
  _space_group_symop_operation_xyz
  'x, y, z'

loop_
  _atom_site_type_symbol
  _atom_site_label
  _atom_site_symmetry_multiplicity
  _atom_site_fract_x
  _atom_site_fract_y
  _atom_site_fract_z
  _atom_site_occupancy
  Ba  Ba1       1.0  0.53400  0.53400  0.13900  1.0000
  Ba  Ba2       1.0  0.96600  0.96600  0.63900  1.0000
  Ba  Ba3       1.0  0.46600  0.46600  0.86100  1.0000
  Ba  Ba4       1.0  0.03360  0.03360  0.36100  1.0000
  Ba  Ba5       1.0  0.23700  0.23700  0.11600  1.0000
  Ba  Ba6       1.0  0.26300  0.26300  0.61600  1.0000
  Ba  Ba7       1.0  0.76300  0.76300  0.88400  1.0000
  Ba  Ba8       1.0  0.73700  0.73700  0.38400  1.0000
  O   O1        1.0  0.72600  0.72600  0.15100  1.0000
  O   O2        1.0  0.77400  0.77400  0.65100  1.0000
  O   O3        1.0  0.27400  0.27400  0.84900  1.0000
  O   O4        1.0  0.22600  0.22600  0.34900  1.0000
  O   O5        1.0  0.65500  0.11900  0.03160  1.0000
  O   O6        1.0  0.84500  0.38100  0.53200  1.0000
  O   O7        1.0  0.88100  0.34500  0.96800  1.0000
  O   O8        1.0  0.61900  0.15500  0.46800  1.0000
  O   O9        1.0  0.34500  0.88100  0.96800  1.0000
  O   O10       1.0  0.15500  0.61900  0.46800  1.0000
  O   O11       1.0  0.11900  0.65500  0.03160  1.0000
  O   O12       1.0  0.38100  0.84500  0.53200  1.0000
  O   O13       1.0  0.03450  0.03450  0.15300  1.0000
  O   O14       1.0  0.46600  0.46600  0.65300  1.0000
  O   O15       1.0  0.96600  0.96600  0.84700  1.0000
  O   O16       1.0  0.53400  0.53400  0.34700  1.0000
  O   O17       1.0  0.62700  0.12700  0.25000  1.0000
  O   O18       1.0  0.87300  0.37300  0.75000  1.0000
  O   O19       1.0  0.37300  0.87300  0.75000  1.0000
  O   O20       1.0  0.12700  0.62700  0.25000  1.0000
  Ru  Ru1       1.0  0.87300  0.87300  0.14900  1.0000
  Ru  Ru2       1.0  0.62700  0.62700  0.64900  1.0000
  Ru  Ru3       1.0  0.12700  0.12700  0.85100  1.0000
  Ru  Ru4       1.0  0.37300  0.37300  0.35100  1.0000
  Ru  Ru5       1.0  0.00000  0.00000  0.00000  1.0000
  Ru  Ru6       1.0  0.50000  0.50000  0.50000  1.0000
