data_image0
_chemical_formula_structural       Ca10P12Pd12
_chemical_formula_sum              "Ca10 P12 Pd12"
_cell_length_a       8.23885
_cell_length_b       4.11649
_cell_length_c       19.1905
_cell_angle_alpha    90
_cell_angle_beta     90
_cell_angle_gamma    90

_space_group_name_H-M_alt    "P 1"
_space_group_IT_number       1

loop_
  _space_group_symop_operation_xyz
  'x, y, z'

loop_
  _atom_site_type_symbol
  _atom_site_label
  _atom_site_symmetry_multiplicity
  _atom_site_fract_x
  _atom_site_fract_y
  _atom_site_fract_z
  _atom_site_occupancy
  Ca  Ca1       1.0  0.00000  0.00000  0.00000  1.0000
  Ca  Ca2       1.0  0.50000  0.00000  0.00000  1.0000
  Ca  Ca3       1.0  0.50800  0.50000  0.18200  1.0000
  Ca  Ca4       1.0  0.99200  0.50000  0.18200  1.0000
  Ca  Ca5       1.0  0.50100  0.00000  0.37000  1.0000
  Ca  Ca6       1.0  0.99900  0.00000  0.37000  1.0000
  Ca  Ca7       1.0  0.00096  0.00000  0.63000  1.0000
  Ca  Ca8       1.0  0.49900  0.00000  0.63000  1.0000
  Ca  Ca9       1.0  0.00789  0.50000  0.81800  1.0000
  Ca  Ca10      1.0  0.49200  0.50000  0.81800  1.0000
  P   P1        1.0  0.75000  0.50000  0.05820  1.0000
  P   P2        1.0  0.25000  0.00000  0.12700  1.0000
  P   P3        1.0  0.25000  0.00000  0.24200  1.0000
  P   P4        1.0  0.75000  0.00000  0.24500  1.0000
  P   P5        1.0  0.25000  0.50000  0.42400  1.0000
  P   P6        1.0  0.75000  0.50000  0.42800  1.0000
  P   P7        1.0  0.25000  0.50000  0.57200  1.0000
  P   P8        1.0  0.75000  0.50000  0.57600  1.0000
  P   P9        1.0  0.25000  0.00000  0.75500  1.0000
  P   P10       1.0  0.75000  0.00000  0.75800  1.0000
  P   P11       1.0  0.75000  0.00000  0.87300  1.0000
  P   P12       1.0  0.25000  0.50000  0.94200  1.0000
  Pd  Pd1       1.0  0.25000  0.50000  0.06710  1.0000
  Pd  Pd2       1.0  0.75000  0.00000  0.12100  1.0000
  Pd  Pd3       1.0  0.25000  0.50000  0.30100  1.0000
  Pd  Pd4       1.0  0.75000  0.50000  0.30600  1.0000
  Pd  Pd5       1.0  0.25000  0.00000  0.49900  1.0000
  Pd  Pd6       1.0  0.00000  0.50000  0.50000  1.0000
  Pd  Pd7       1.0  0.50000  0.50000  0.50000  1.0000
  Pd  Pd8       1.0  0.75000  0.00000  0.50100  1.0000
  Pd  Pd9       1.0  0.25000  0.50000  0.69400  1.0000
  Pd  Pd10      1.0  0.75000  0.50000  0.69900  1.0000
  Pd  Pd11      1.0  0.25000  0.00000  0.87900  1.0000
  Pd  Pd12      1.0  0.75000  0.50000  0.93300  1.0000
