data_image0
_chemical_formula_structural       Nd4O22Te8
_chemical_formula_sum              "Nd4 O22 Te8"
_cell_length_a       5.19627
_cell_length_b       6.8065
_cell_length_c       15.8261
_cell_angle_alpha    92.1579
_cell_angle_beta     99.4489
_cell_angle_gamma    112.44

_space_group_name_H-M_alt    "P 1"
_space_group_IT_number       1

loop_
  _space_group_symop_operation_xyz
  'x, y, z'

loop_
  _atom_site_type_symbol
  _atom_site_label
  _atom_site_symmetry_multiplicity
  _atom_site_fract_x
  _atom_site_fract_y
  _atom_site_fract_z
  _atom_site_occupancy
  Nd  Nd1       1.0  0.66200  0.80000  0.03750  1.0000
  Nd  Nd2       1.0  0.32400  0.70000  0.46200  1.0000
  Nd  Nd3       1.0  0.67600  0.30000  0.53800  1.0000
  Nd  Nd4       1.0  0.33800  0.20000  0.96200  1.0000
  O   O1        1.0  0.99900  0.18900  0.04730  1.0000
  O   O2        1.0  0.72300  0.47200  0.05870  1.0000
  O   O3        1.0  0.48700  0.05030  0.10200  1.0000
  O   O4        1.0  0.31400  0.63100  0.13200  1.0000
  O   O5        1.0  0.96200  0.87100  0.17500  1.0000
  O   O6        1.0  0.38600  0.25000  0.25000  1.0000
  O   O7        1.0  0.41600  0.62900  0.32500  1.0000
  O   O8        1.0  0.05070  0.86900  0.36800  1.0000
  O   O9        1.0  0.83400  0.45000  0.39800  1.0000
  O   O10       1.0  0.69300  0.02830  0.44100  1.0000
  O   O11       1.0  0.26300  0.31100  0.45300  1.0000
  O   O12       1.0  0.73700  0.68900  0.54700  1.0000
  O   O13       1.0  0.30700  0.97200  0.55900  1.0000
  O   O14       1.0  0.16600  0.55000  0.60200  1.0000
  O   O15       1.0  0.94900  0.13100  0.63200  1.0000
  O   O16       1.0  0.58400  0.37100  0.67500  1.0000
  O   O17       1.0  0.61400  0.75000  0.75000  1.0000
  O   O18       1.0  0.03760  0.12900  0.82500  1.0000
  O   O19       1.0  0.68600  0.36900  0.86800  1.0000
  O   O20       1.0  0.51300  0.95000  0.89800  1.0000
  O   O21       1.0  0.27700  0.52800  0.94100  1.0000
  O   O22       1.0  0.00129  0.81100  0.95300  1.0000
  Te  Te1       1.0  0.97500  0.38200  0.13200  1.0000
  Te  Te2       1.0  0.35400  0.95600  0.20500  1.0000
  Te  Te3       1.0  0.69200  0.54400  0.29500  1.0000
  Te  Te4       1.0  0.96100  0.11800  0.36800  1.0000
  Te  Te5       1.0  0.03870  0.88200  0.63200  1.0000
  Te  Te6       1.0  0.30800  0.45600  0.70500  1.0000
  Te  Te7       1.0  0.64600  0.04360  0.79500  1.0000
  Te  Te8       1.0  0.02540  0.61800  0.86800  1.0000
