data_image0
_chemical_formula_structural       Al4H6O18P6
_chemical_formula_sum              "Al4 H6 O18 P6"
_cell_length_a       7.70297
_cell_length_b       7.70301
_cell_length_c       7.1019
_cell_angle_alpha    90
_cell_angle_beta     90
_cell_angle_gamma    120

_space_group_name_H-M_alt    "P 1"
_space_group_IT_number       1

loop_
  _space_group_symop_operation_xyz
  'x, y, z'

loop_
  _atom_site_type_symbol
  _atom_site_label
  _atom_site_symmetry_multiplicity
  _atom_site_fract_x
  _atom_site_fract_y
  _atom_site_fract_z
  _atom_site_occupancy
  Al  Al1       1.0  0.66700  0.33300  0.05570  1.0000
  Al  Al2       1.0  0.66700  0.33300  0.44400  1.0000
  Al  Al3       1.0  0.33300  0.66700  0.55600  1.0000
  Al  Al4       1.0  0.33300  0.66700  0.94400  1.0000
  H   H1        1.0  0.85400  0.02330  0.25000  1.0000
  H   H2        1.0  0.16900  0.14600  0.25000  1.0000
  H   H3        1.0  0.97700  0.83100  0.25000  1.0000
  H   H4        1.0  0.02330  0.16900  0.75000  1.0000
  H   H5        1.0  0.83100  0.85400  0.75000  1.0000
  H   H6        1.0  0.14600  0.97700  0.75000  1.0000
  O   O1        1.0  0.17300  0.74000  0.07010  1.0000
  O   O2        1.0  0.26000  0.43300  0.07010  1.0000
  O   O3        1.0  0.56700  0.82700  0.07010  1.0000
  O   O4        1.0  0.61100  0.13000  0.25000  1.0000
  O   O5        1.0  0.51800  0.38900  0.25000  1.0000
  O   O6        1.0  0.87000  0.48200  0.25000  1.0000
  O   O7        1.0  0.26000  0.43300  0.43000  1.0000
  O   O8        1.0  0.56700  0.82700  0.43000  1.0000
  O   O9        1.0  0.17300  0.74000  0.43000  1.0000
  O   O10       1.0  0.82700  0.26000  0.57000  1.0000
  O   O11       1.0  0.74000  0.56700  0.57000  1.0000
  O   O12       1.0  0.43300  0.17300  0.57000  1.0000
  O   O13       1.0  0.13000  0.51800  0.75000  1.0000
  O   O14       1.0  0.48200  0.61100  0.75000  1.0000
  O   O15       1.0  0.38900  0.87000  0.75000  1.0000
  O   O16       1.0  0.43300  0.17300  0.93000  1.0000
  O   O17       1.0  0.74000  0.56700  0.93000  1.0000
  O   O18       1.0  0.82700  0.26000  0.93000  1.0000
  P   P1        1.0  0.30100  0.35300  0.25000  1.0000
  P   P2        1.0  0.05260  0.69900  0.25000  1.0000
  P   P3        1.0  0.64700  0.94700  0.25000  1.0000
  P   P4        1.0  0.35300  0.05260  0.75000  1.0000
  P   P5        1.0  0.94700  0.30100  0.75000  1.0000
  P   P6        1.0  0.69900  0.64700  0.75000  1.0000
