data_image0
_chemical_formula_structural       Ga4H6O18P6
_chemical_formula_sum              "Ga4 H6 O18 P6"
_cell_length_a       7.78019
_cell_length_b       7.78019
_cell_length_c       7.23632
_cell_angle_alpha    90
_cell_angle_beta     90
_cell_angle_gamma    120

_space_group_name_H-M_alt    "P 1"
_space_group_IT_number       1

loop_
  _space_group_symop_operation_xyz
  'x, y, z'

loop_
  _atom_site_type_symbol
  _atom_site_label
  _atom_site_symmetry_multiplicity
  _atom_site_fract_x
  _atom_site_fract_y
  _atom_site_fract_z
  _atom_site_occupancy
  Ga  Ga1       1.0  0.66700  0.33300  0.04890  1.0000
  Ga  Ga2       1.0  0.66700  0.33300  0.45100  1.0000
  Ga  Ga3       1.0  0.33300  0.66700  0.54900  1.0000
  Ga  Ga4       1.0  0.33300  0.66700  0.95100  1.0000
  H   H1        1.0  0.85900  0.03510  0.25000  1.0000
  H   H2        1.0  0.17600  0.14100  0.25000  1.0000
  H   H3        1.0  0.96500  0.82400  0.25000  1.0000
  H   H4        1.0  0.03510  0.17600  0.75000  1.0000
  H   H5        1.0  0.82400  0.85900  0.75000  1.0000
  H   H6        1.0  0.14100  0.96500  0.75000  1.0000
  O   O1        1.0  0.58000  0.83000  0.07270  1.0000
  O   O2        1.0  0.25000  0.42000  0.07270  1.0000
  O   O3        1.0  0.17000  0.75000  0.07270  1.0000
  O   O4        1.0  0.60500  0.12300  0.25000  1.0000
  O   O5        1.0  0.51800  0.39500  0.25000  1.0000
  O   O6        1.0  0.87700  0.48200  0.25000  1.0000
  O   O7        1.0  0.17000  0.75000  0.42700  1.0000
  O   O8        1.0  0.25000  0.42000  0.42700  1.0000
  O   O9        1.0  0.58000  0.83000  0.42700  1.0000
  O   O10       1.0  0.42000  0.17000  0.57300  1.0000
  O   O11       1.0  0.75000  0.58000  0.57300  1.0000
  O   O12       1.0  0.83000  0.25000  0.57300  1.0000
  O   O13       1.0  0.12300  0.51800  0.75000  1.0000
  O   O14       1.0  0.48200  0.60500  0.75000  1.0000
  O   O15       1.0  0.39500  0.87700  0.75000  1.0000
  O   O16       1.0  0.83000  0.25000  0.92700  1.0000
  O   O17       1.0  0.75000  0.58000  0.92700  1.0000
  O   O18       1.0  0.42000  0.17000  0.92700  1.0000
  P   P1        1.0  0.29800  0.34700  0.25000  1.0000
  P   P2        1.0  0.04920  0.70200  0.25000  1.0000
  P   P3        1.0  0.65300  0.95100  0.25000  1.0000
  P   P4        1.0  0.34700  0.04920  0.75000  1.0000
  P   P5        1.0  0.95100  0.29800  0.75000  1.0000
  P   P6        1.0  0.70200  0.65300  0.75000  1.0000
