data_image0
_chemical_formula_structural       Al2H4Na6O18P4
_chemical_formula_sum              "Al2 H4 Na6 O18 P4"
_cell_length_a       6.97181
_cell_length_b       7.01156
_cell_length_c       8.33767
_cell_angle_alpha    114.865
_cell_angle_beta     95.9908
_cell_angle_gamma    90

_space_group_name_H-M_alt    "P 1"
_space_group_IT_number       1

loop_
  _space_group_symop_operation_xyz
  'x, y, z'

loop_
  _atom_site_type_symbol
  _atom_site_label
  _atom_site_symmetry_multiplicity
  _atom_site_fract_x
  _atom_site_fract_y
  _atom_site_fract_z
  _atom_site_occupancy
  Al  Al1       1.0  0.00000  0.00000  0.50000  1.0000
  Al  Al2       1.0  0.00000  0.50000  0.50000  1.0000
  H   H1        1.0  0.38600  0.05770  0.11500  1.0000
  H   H2        1.0  0.18200  0.19100  0.38100  1.0000
  H   H3        1.0  0.81800  0.80900  0.61900  1.0000
  H   H4        1.0  0.61400  0.94200  0.88500  1.0000
  Na  Na1       1.0  0.00000  0.23300  0.00000  1.0000
  Na  Na2       1.0  0.00000  0.76700  0.00000  1.0000
  Na  Na3       1.0  0.71500  0.61300  0.22700  1.0000
  Na  Na4       1.0  0.50000  0.00000  0.50000  1.0000
  Na  Na5       1.0  0.50000  0.50000  0.50000  1.0000
  Na  Na6       1.0  0.28500  0.38700  0.77300  1.0000
  O   O1        1.0  0.21400  0.52000  0.03990  1.0000
  O   O2        1.0  0.75700  0.02300  0.04600  1.0000
  O   O3        1.0  0.47300  0.11900  0.23700  1.0000
  O   O4        1.0  0.11800  0.46900  0.30100  1.0000
  O   O5        1.0  0.11800  0.83200  0.30100  1.0000
  O   O6        1.0  0.43500  0.66600  0.33100  1.0000
  O   O7        1.0  0.77200  0.35100  0.33900  1.0000
  O   O8        1.0  0.77200  0.98800  0.33900  1.0000
  O   O9        1.0  0.10700  0.24100  0.48200  1.0000
  O   O10       1.0  0.89300  0.75900  0.51800  1.0000
  O   O11       1.0  0.22800  0.01210  0.66100  1.0000
  O   O12       1.0  0.22800  0.64900  0.66100  1.0000
  O   O13       1.0  0.56500  0.33400  0.66900  1.0000
  O   O14       1.0  0.88200  0.16800  0.69900  1.0000
  O   O15       1.0  0.88200  0.53100  0.69900  1.0000
  O   O16       1.0  0.52700  0.88100  0.76300  1.0000
  O   O17       1.0  0.24300  0.97700  0.95400  1.0000
  O   O18       1.0  0.78600  0.48000  0.96000  1.0000
  P   P1        1.0  0.70200  0.11800  0.23600  1.0000
  P   P2        1.0  0.22700  0.62100  0.24200  1.0000
  P   P3        1.0  0.77300  0.37900  0.75800  1.0000
  P   P4        1.0  0.29800  0.88200  0.76400  1.0000
