data_image0
_chemical_formula_structural       Ba10O20Ru4
_chemical_formula_sum              "Ba10 O20 Ru4"
_cell_length_a       5.95597
_cell_length_b       5.95595
_cell_length_c       17.9956
_cell_angle_alpha    90
_cell_angle_beta     90
_cell_angle_gamma    120

_space_group_name_H-M_alt    "P 1"
_space_group_IT_number       1

loop_
  _space_group_symop_operation_xyz
  'x, y, z'

loop_
  _atom_site_type_symbol
  _atom_site_label
  _atom_site_symmetry_multiplicity
  _atom_site_fract_x
  _atom_site_fract_y
  _atom_site_fract_z
  _atom_site_occupancy
  Ba  Ba1       1.0  0.33300  0.66700  0.01390  1.0000
  Ba  Ba2       1.0  0.00000  0.00000  0.13600  1.0000
  Ba  Ba3       1.0  0.33300  0.66700  0.25000  1.0000
  Ba  Ba4       1.0  0.00000  0.00000  0.36400  1.0000
  Ba  Ba5       1.0  0.33300  0.66700  0.48600  1.0000
  Ba  Ba6       1.0  0.66700  0.33300  0.51400  1.0000
  Ba  Ba7       1.0  0.00000  0.00000  0.63600  1.0000
  Ba  Ba8       1.0  0.66700  0.33300  0.75000  1.0000
  Ba  Ba9       1.0  0.00000  0.00000  0.86400  1.0000
  Ba  Ba10      1.0  0.66700  0.33300  0.98600  1.0000
  O   O1        1.0  0.00000  0.00000  0.00000  1.0000
  O   O2        1.0  0.51000  0.01930  0.11600  1.0000
  O   O3        1.0  0.51000  0.49000  0.11600  1.0000
  O   O4        1.0  0.98100  0.49000  0.11600  1.0000
  O   O5        1.0  0.36900  0.18500  0.25000  1.0000
  O   O6        1.0  0.81500  0.18500  0.25000  1.0000
  O   O7        1.0  0.81500  0.63100  0.25000  1.0000
  O   O8        1.0  0.51000  0.49000  0.38400  1.0000
  O   O9        1.0  0.98100  0.49000  0.38400  1.0000
  O   O10       1.0  0.51000  0.01930  0.38400  1.0000
  O   O11       1.0  0.00000  0.00000  0.50000  1.0000
  O   O12       1.0  0.49000  0.98100  0.61600  1.0000
  O   O13       1.0  0.01930  0.51000  0.61600  1.0000
  O   O14       1.0  0.49000  0.51000  0.61600  1.0000
  O   O15       1.0  0.18500  0.36900  0.75000  1.0000
  O   O16       1.0  0.18500  0.81500  0.75000  1.0000
  O   O17       1.0  0.63100  0.81500  0.75000  1.0000
  O   O18       1.0  0.01930  0.51000  0.88400  1.0000
  O   O19       1.0  0.49000  0.51000  0.88400  1.0000
  O   O20       1.0  0.49000  0.98100  0.88400  1.0000
  Ru  Ru1       1.0  0.66700  0.33300  0.17300  1.0000
  Ru  Ru2       1.0  0.66700  0.33300  0.32700  1.0000
  Ru  Ru3       1.0  0.33300  0.66700  0.67300  1.0000
  Ru  Ru4       1.0  0.33300  0.66700  0.82700  1.0000
