data_image0
_chemical_formula_structural       B6O18Rb2Zn8
_chemical_formula_sum              "B6 O18 Rb2 Zn8"
_cell_length_a       6.79881
_cell_length_b       5.00975
_cell_length_c       12.6296
_cell_angle_alpha    90
_cell_angle_beta     91.6956
_cell_angle_gamma    90

_space_group_name_H-M_alt    "P 1"
_space_group_IT_number       1

loop_
  _space_group_symop_operation_xyz
  'x, y, z'

loop_
  _atom_site_type_symbol
  _atom_site_label
  _atom_site_symmetry_multiplicity
  _atom_site_fract_x
  _atom_site_fract_y
  _atom_site_fract_z
  _atom_site_occupancy
  B   B1        1.0  0.81000  0.34400  0.05010  1.0000
  B   B2        1.0  0.50000  0.15700  0.25000  1.0000
  B   B3        1.0  0.19000  0.34400  0.45000  1.0000
  B   B4        1.0  0.81000  0.65600  0.55000  1.0000
  B   B5        1.0  0.50000  0.84300  0.75000  1.0000
  B   B6        1.0  0.19000  0.65600  0.95000  1.0000
  O   O1        1.0  0.27200  0.79500  0.03600  1.0000
  O   O2        1.0  0.74500  0.60900  0.06400  1.0000
  O   O3        1.0  0.94900  0.23700  0.11600  1.0000
  O   O4        1.0  0.40400  0.29400  0.16900  1.0000
  O   O5        1.0  0.50000  0.88100  0.25000  1.0000
  O   O6        1.0  0.59600  0.29400  0.33100  1.0000
  O   O7        1.0  0.05130  0.23700  0.38400  1.0000
  O   O8        1.0  0.25500  0.60900  0.43600  1.0000
  O   O9        1.0  0.72800  0.79500  0.46400  1.0000
  O   O10       1.0  0.27200  0.20500  0.53600  1.0000
  O   O11       1.0  0.74500  0.39100  0.56400  1.0000
  O   O12       1.0  0.94900  0.76300  0.61600  1.0000
  O   O13       1.0  0.40400  0.70600  0.66900  1.0000
  O   O14       1.0  0.50000  0.11900  0.75000  1.0000
  O   O15       1.0  0.59600  0.70600  0.83100  1.0000
  O   O16       1.0  0.05130  0.76300  0.88400  1.0000
  O   O17       1.0  0.25500  0.39100  0.93600  1.0000
  O   O18       1.0  0.72800  0.20500  0.96400  1.0000
  Rb  Rb1       1.0  0.00000  0.72800  0.25000  1.0000
  Rb  Rb2       1.0  0.00000  0.27200  0.75000  1.0000
  Zn  Zn1       1.0  0.20500  0.16500  0.06230  1.0000
  Zn  Zn2       1.0  0.48700  0.65300  0.12400  1.0000
  Zn  Zn3       1.0  0.51300  0.65300  0.37600  1.0000
  Zn  Zn4       1.0  0.79500  0.16500  0.43800  1.0000
  Zn  Zn5       1.0  0.20500  0.83500  0.56200  1.0000
  Zn  Zn6       1.0  0.48700  0.34700  0.62400  1.0000
  Zn  Zn7       1.0  0.51300  0.34700  0.87600  1.0000
  Zn  Zn8       1.0  0.79500  0.83500  0.93800  1.0000
