data_image0
_chemical_formula_structural       F24Fe4Pb6
_chemical_formula_sum              "F24 Fe4 Pb6"
_cell_length_a       7.18741
_cell_length_b       7.35246
_cell_length_c       9.60196
_cell_angle_alpha    110.341
_cell_angle_beta     108.214
_cell_angle_gamma    94.9295

_space_group_name_H-M_alt    "P 1"
_space_group_IT_number       1

loop_
  _space_group_symop_operation_xyz
  'x, y, z'

loop_
  _atom_site_type_symbol
  _atom_site_label
  _atom_site_symmetry_multiplicity
  _atom_site_fract_x
  _atom_site_fract_y
  _atom_site_fract_z
  _atom_site_occupancy
  F   F1        1.0  0.82600  0.56500  0.02250  1.0000
  F   F2        1.0  0.11800  0.86600  0.06860  1.0000
  F   F3        1.0  0.79600  0.93200  0.14000  1.0000
  F   F4        1.0  0.48400  0.11500  0.14700  1.0000
  F   F5        1.0  0.86300  0.33900  0.21400  1.0000
  F   F6        1.0  0.52100  0.51200  0.22600  1.0000
  F   F7        1.0  0.19000  0.65300  0.28600  1.0000
  F   F8        1.0  0.53700  0.91000  0.34600  1.0000
  F   F9        1.0  0.88400  0.78700  0.36200  1.0000
  F   F10       1.0  0.16400  0.05260  0.36600  1.0000
  F   F11       1.0  0.49500  0.30800  0.45100  1.0000
  F   F12       1.0  0.17300  0.42700  0.48300  1.0000
  F   F13       1.0  0.82700  0.57300  0.51700  1.0000
  F   F14       1.0  0.50500  0.69200  0.54900  1.0000
  F   F15       1.0  0.83600  0.94700  0.63400  1.0000
  F   F16       1.0  0.11600  0.21300  0.63800  1.0000
  F   F17       1.0  0.46300  0.09010  0.65400  1.0000
  F   F18       1.0  0.81000  0.34700  0.71400  1.0000
  F   F19       1.0  0.47900  0.48800  0.77400  1.0000
  F   F20       1.0  0.13700  0.66100  0.78600  1.0000
  F   F21       1.0  0.51600  0.88500  0.85300  1.0000
  F   F22       1.0  0.20400  0.06750  0.86000  1.0000
  F   F23       1.0  0.88200  0.13400  0.93100  1.0000
  F   F24       1.0  0.17400  0.43500  0.97700  1.0000
  Fe  Fe1       1.0  0.00051  0.78800  0.20200  1.0000
  Fe  Fe2       1.0  0.65200  0.72900  0.42500  1.0000
  Fe  Fe3       1.0  0.34800  0.27100  0.57500  1.0000
  Fe  Fe4       1.0  0.99900  0.21200  0.79800  1.0000
  Pb  Pb1       1.0  0.41600  0.75300  0.02500  1.0000
  Pb  Pb2       1.0  0.19300  0.29300  0.20000  1.0000
  Pb  Pb3       1.0  0.79200  0.21400  0.39300  1.0000
  Pb  Pb4       1.0  0.20800  0.78600  0.60700  1.0000
  Pb  Pb5       1.0  0.80700  0.70700  0.80000  1.0000
  Pb  Pb6       1.0  0.58400  0.24700  0.97500  1.0000
