data_image0
_chemical_formula_structural       H18Na2O12Zn2
_chemical_formula_sum              "H18 Na2 O12 Zn2"
_cell_length_a       3.27862
_cell_length_b       7.97894
_cell_length_c       10.5807
_cell_angle_alpha    95.3229
_cell_angle_beta     95.6839
_cell_angle_gamma    93.0671

_space_group_name_H-M_alt    "P 1"
_space_group_IT_number       1

loop_
  _space_group_symop_operation_xyz
  'x, y, z'

loop_
  _atom_site_type_symbol
  _atom_site_label
  _atom_site_symmetry_multiplicity
  _atom_site_fract_x
  _atom_site_fract_y
  _atom_site_fract_z
  _atom_site_occupancy
  H   H1        1.0  0.56300  0.81000  0.05920  1.0000
  H   H2        1.0  0.97300  0.14000  0.06490  1.0000
  H   H3        1.0  0.71400  0.38100  0.07020  1.0000
  H   H4        1.0  0.17600  0.97800  0.11900  1.0000
  H   H5        1.0  0.96400  0.95100  0.33600  1.0000
  H   H6        1.0  0.55600  0.86500  0.37200  1.0000
  H   H7        1.0  0.04830  0.69400  0.39200  1.0000
  H   H8        1.0  0.27100  0.46800  0.40100  1.0000
  H   H9        1.0  0.41300  0.33200  0.49400  1.0000
  H   H10       1.0  0.58700  0.66800  0.50600  1.0000
  H   H11       1.0  0.72900  0.53200  0.59900  1.0000
  H   H12       1.0  0.95200  0.30600  0.60800  1.0000
  H   H13       1.0  0.44400  0.13500  0.62800  1.0000
  H   H14       1.0  0.03560  0.04920  0.66400  1.0000
  H   H15       1.0  0.82400  0.02180  0.88100  1.0000
  H   H16       1.0  0.28600  0.61900  0.93000  1.0000
  H   H17       1.0  0.02710  0.86000  0.93500  1.0000
  H   H18       1.0  0.43700  0.19000  0.94100  1.0000
  Na  Na1       1.0  0.68200  0.22400  0.27900  1.0000
  Na  Na2       1.0  0.31800  0.77600  0.72100  1.0000
  O   O1        1.0  0.27500  0.77300  0.06210  1.0000
  O   O2        1.0  0.13200  0.09970  0.14000  1.0000
  O   O3        1.0  0.73600  0.45600  0.15100  1.0000
  O   O4        1.0  0.31200  0.67200  0.36100  1.0000
  O   O5        1.0  0.70200  0.97600  0.36600  1.0000
  O   O6        1.0  0.23900  0.34600  0.41400  1.0000
  O   O7        1.0  0.76100  0.65400  0.58600  1.0000
  O   O8        1.0  0.29800  0.02370  0.63400  1.0000
  O   O9        1.0  0.68800  0.32800  0.63900  1.0000
  O   O10       1.0  0.26400  0.54400  0.84900  1.0000
  O   O11       1.0  0.86800  0.90000  0.86000  1.0000
  O   O12       1.0  0.72500  0.22700  0.93800  1.0000
  Zn  Zn1       1.0  0.25900  0.59100  0.17700  1.0000
  Zn  Zn2       1.0  0.74100  0.40900  0.82300  1.0000
