data_image0
_chemical_formula_structural       Bi2O22Sr4V6
_chemical_formula_sum              "Bi2 O22 Sr4 V6"
_cell_length_a       6.98865
_cell_length_b       10.1603
_cell_length_c       6.95983
_cell_angle_alpha    96.0211
_cell_angle_beta     92.7717
_cell_angle_gamma    98.9017

_space_group_name_H-M_alt    "P 1"
_space_group_IT_number       1

loop_
  _space_group_symop_operation_xyz
  'x, y, z'

loop_
  _atom_site_type_symbol
  _atom_site_label
  _atom_site_symmetry_multiplicity
  _atom_site_fract_x
  _atom_site_fract_y
  _atom_site_fract_z
  _atom_site_occupancy
  Bi  Bi1       1.0  0.92300  0.36300  0.15900  1.0000
  Bi  Bi2       1.0  0.07710  0.63700  0.84100  1.0000
  O   O1        1.0  0.60400  0.35000  0.01010  1.0000
  O   O2        1.0  0.34100  0.09390  0.01980  1.0000
  O   O3        1.0  0.88400  0.15000  0.03080  1.0000
  O   O4        1.0  0.02920  0.60600  0.16800  1.0000
  O   O5        1.0  0.25700  0.37000  0.17900  1.0000
  O   O6        1.0  0.73400  0.76900  0.29400  1.0000
  O   O7        1.0  0.39500  0.89800  0.30300  1.0000
  O   O8        1.0  0.08740  0.01680  0.32000  1.0000
  O   O9        1.0  0.53700  0.23400  0.33800  1.0000
  O   O10       1.0  0.74300  0.52300  0.41400  1.0000
  O   O11       1.0  0.94000  0.26400  0.45600  1.0000
  O   O12       1.0  0.06030  0.73600  0.54400  1.0000
  O   O13       1.0  0.25700  0.47700  0.58600  1.0000
  O   O14       1.0  0.46300  0.76600  0.66200  1.0000
  O   O15       1.0  0.91300  0.98300  0.68000  1.0000
  O   O16       1.0  0.60500  0.10200  0.69700  1.0000
  O   O17       1.0  0.26600  0.23100  0.70600  1.0000
  O   O18       1.0  0.74300  0.63000  0.82100  1.0000
  O   O19       1.0  0.97100  0.39400  0.83200  1.0000
  O   O20       1.0  0.11600  0.85000  0.96900  1.0000
  O   O21       1.0  0.65900  0.90600  0.98000  1.0000
  O   O22       1.0  0.39600  0.65000  0.99000  1.0000
  Sr  Sr1       1.0  0.39000  0.63400  0.34000  1.0000
  Sr  Sr2       1.0  0.74300  0.02310  0.35200  1.0000
  Sr  Sr3       1.0  0.25700  0.97700  0.64800  1.0000
  Sr  Sr4       1.0  0.61000  0.36600  0.66000  1.0000
  V   V1        1.0  0.42400  0.26500  0.13100  1.0000
  V   V2        1.0  0.23500  0.96100  0.15900  1.0000
  V   V3        1.0  0.88800  0.66600  0.35800  1.0000
  V   V4        1.0  0.11200  0.33400  0.64200  1.0000
  V   V5        1.0  0.76500  0.03850  0.84100  1.0000
  V   V6        1.0  0.57600  0.73500  0.86900  1.0000
