data_image0
_chemical_formula_structural       Li4O6Pb2
_chemical_formula_sum              "Li4 O6 Pb2"
_cell_length_a       5.36294
_cell_length_b       5.36294
_cell_length_c       5.46041
_cell_angle_alpha    100.028
_cell_angle_beta     100.028
_cell_angle_gamma    119.903

_space_group_name_H-M_alt    "P 1"
_space_group_IT_number       1

loop_
  _space_group_symop_operation_xyz
  'x, y, z'

loop_
  _atom_site_type_symbol
  _atom_site_label
  _atom_site_symmetry_multiplicity
  _atom_site_fract_x
  _atom_site_fract_y
  _atom_site_fract_z
  _atom_site_occupancy
  Li  Li1       1.0  0.58100  0.41900  0.25000  1.0000
  Li  Li2       1.0  0.25400  0.74600  0.25000  1.0000
  Li  Li3       1.0  0.74600  0.25400  0.75000  1.0000
  Li  Li4       1.0  0.41900  0.58100  0.75000  1.0000
  O   O1        1.0  0.50000  0.00000  0.00000  1.0000
  O   O2        1.0  0.16500  0.32800  0.00572  1.0000
  O   O3        1.0  0.67200  0.83500  0.49400  1.0000
  O   O4        1.0  0.00000  0.50000  0.50000  1.0000
  O   O5        1.0  0.32800  0.16500  0.50600  1.0000
  O   O6        1.0  0.83500  0.67200  0.99400  1.0000
  Pb  Pb1       1.0  0.91100  0.08920  0.25000  1.0000
  Pb  Pb2       1.0  0.08920  0.91100  0.75000  1.0000
