data_image0
_chemical_formula_structural       C6Cl2H18N4S2Se2
_chemical_formula_sum              "C6 Cl2 H18 N4 S2 Se2"
_cell_length_a       5.49206
_cell_length_b       8.08335
_cell_length_c       9.02885
_cell_angle_alpha    70.4979
_cell_angle_beta     81.7587
_cell_angle_gamma    76.6058

_space_group_name_H-M_alt    "P 1"
_space_group_IT_number       1

loop_
  _space_group_symop_operation_xyz
  'x, y, z'

loop_
  _atom_site_type_symbol
  _atom_site_label
  _atom_site_symmetry_multiplicity
  _atom_site_fract_x
  _atom_site_fract_y
  _atom_site_fract_z
  _atom_site_occupancy
  C   C1        1.0  0.74900  0.62700  0.08980  1.0000
  C   C2        1.0  0.33500  0.86300  0.17400  1.0000
  C   C3        1.0  0.16800  0.21000  0.42000  1.0000
  C   C4        1.0  0.83200  0.79000  0.58000  1.0000
  C   C5        1.0  0.66500  0.13700  0.82600  1.0000
  C   C6        1.0  0.25100  0.37300  0.91000  1.0000
  Cl  Cl1       1.0  0.73000  0.15300  0.20100  1.0000
  Cl  Cl2       1.0  0.27000  0.84700  0.79900  1.0000
  H   H1        1.0  0.36600  0.35300  0.00740  1.0000
  H   H2        1.0  0.87100  0.72600  0.05960  1.0000
  H   H3        1.0  0.27400  0.86700  0.06180  1.0000
  H   H4        1.0  0.85600  0.48900  0.12800  1.0000
  H   H5        1.0  0.44700  0.96400  0.16000  1.0000
  H   H6        1.0  0.17300  0.87300  0.25900  1.0000
  H   H7        1.0  0.19100  0.19200  0.30400  1.0000
  H   H8        1.0  0.00300  0.31100  0.43300  1.0000
  H   H9        1.0  0.82500  0.91600  0.48300  1.0000
  H   H10       1.0  0.17500  0.08380  0.51700  1.0000
  H   H11       1.0  0.99700  0.68900  0.56700  1.0000
  H   H12       1.0  0.80900  0.80800  0.69600  1.0000
  H   H13       1.0  0.82700  0.12700  0.74100  1.0000
  H   H14       1.0  0.55300  0.03570  0.84000  1.0000
  H   H15       1.0  0.14400  0.51100  0.87200  1.0000
  H   H16       1.0  0.72600  0.13300  0.93800  1.0000
  H   H17       1.0  0.12900  0.27400  0.94000  1.0000
  H   H18       1.0  0.63400  0.64700  0.99300  1.0000
  N   N1        1.0  0.34000  0.52300  0.29400  1.0000
  N   N2        1.0  0.71400  0.64300  0.37600  1.0000
  N   N3        1.0  0.28600  0.35700  0.62400  1.0000
  N   N4        1.0  0.66000  0.47700  0.70600  1.0000
  S   S1        1.0  0.53500  0.65200  0.25200  1.0000
  S   S2        1.0  0.46500  0.34800  0.74800  1.0000
  Se  Se1       1.0  0.44900  0.30600  0.44100  1.0000
  Se  Se2       1.0  0.55100  0.69400  0.55900  1.0000
