data_image0
_chemical_formula_structural       B12H20N2
_chemical_formula_sum              "B12 H20 N2"
_cell_length_a       7.59402
_cell_length_b       7.59402
_cell_length_c       7.59402
_cell_angle_alpha    120
_cell_angle_beta     90
_cell_angle_gamma    120

_space_group_name_H-M_alt    "P 1"
_space_group_IT_number       1

loop_
  _space_group_symop_operation_xyz
  'x, y, z'

loop_
  _atom_site_type_symbol
  _atom_site_label
  _atom_site_symmetry_multiplicity
  _atom_site_fract_x
  _atom_site_fract_y
  _atom_site_fract_z
  _atom_site_occupancy
  B   B1        1.0  0.78400  0.83500  0.05170  1.0000
  B   B2        1.0  0.21600  0.00000  0.05170  1.0000
  B   B3        1.0  0.05170  0.26800  0.05170  1.0000
  B   B4        1.0  0.05170  0.00000  0.21600  1.0000
  B   B5        1.0  0.94800  0.16500  0.21600  1.0000
  B   B6        1.0  0.21600  0.26800  0.21600  1.0000
  B   B7        1.0  0.78400  0.73200  0.78400  1.0000
  B   B8        1.0  0.05170  0.83500  0.78400  1.0000
  B   B9        1.0  0.94800  1.00000  0.78400  1.0000
  B   B10       1.0  0.21600  0.16500  0.94800  1.0000
  B   B11       1.0  0.78400  0.00000  0.94800  1.0000
  B   B12       1.0  0.94800  0.73200  0.94800  1.0000
  H   H1        1.0  0.63000  0.72000  0.09000  1.0000
  H   H2        1.0  0.37000  0.00000  0.09000  1.0000
  H   H3        1.0  0.09000  0.46000  0.09000  1.0000
  H   H4        1.0  0.58300  0.38900  0.19400  1.0000
  H   H5        1.0  0.80600  0.38900  0.19400  1.0000
  H   H6        1.0  0.80600  0.61100  0.19400  1.0000
  H   H7        1.0  0.91000  0.28000  0.37000  1.0000
  H   H8        1.0  0.09000  0.00000  0.37000  1.0000
  H   H9        1.0  0.37000  0.46000  0.37000  1.0000
  H   H10       1.0  0.80600  0.61100  0.41700  1.0000
  H   H11       1.0  0.19400  0.38900  0.58300  1.0000
  H   H12       1.0  0.91000  0.00000  0.63000  1.0000
  H   H13       1.0  0.63000  0.54000  0.63000  1.0000
  H   H14       1.0  0.09000  0.72000  0.63000  1.0000
  H   H15       1.0  0.19400  0.38900  0.80600  1.0000
  H   H16       1.0  0.19400  0.61100  0.80600  1.0000
  H   H17       1.0  0.41700  0.61100  0.80600  1.0000
  H   H18       1.0  0.63000  0.00000  0.91000  1.0000
  H   H19       1.0  0.37000  0.28000  0.91000  1.0000
  H   H20       1.0  0.91000  0.54000  0.91000  1.0000
  N   N1        1.0  0.75000  0.50000  0.25000  1.0000
  N   N2        1.0  0.25000  0.50000  0.75000  1.0000
