data_image0
_chemical_formula_structural       Be4Fe2O20Si4Y4
_chemical_formula_sum              "Be4 Fe2 O20 Si4 Y4"
_cell_length_a       4.72356
_cell_length_b       7.44132
_cell_length_c       9.93199
_cell_angle_alpha    90
_cell_angle_beta     89.7547
_cell_angle_gamma    90

_space_group_name_H-M_alt    "P 1"
_space_group_IT_number       1

loop_
  _space_group_symop_operation_xyz
  'x, y, z'

loop_
  _atom_site_type_symbol
  _atom_site_label
  _atom_site_symmetry_multiplicity
  _atom_site_fract_x
  _atom_site_fract_y
  _atom_site_fract_z
  _atom_site_occupancy
  Be  Be1       1.0  0.46200  0.91300  0.16500  1.0000
  Be  Be2       1.0  0.53800  0.41300  0.33500  1.0000
  Be  Be3       1.0  0.46200  0.58700  0.66500  1.0000
  Be  Be4       1.0  0.53800  0.08680  0.83500  1.0000
  Fe  Fe1       1.0  0.00000  0.00000  0.00000  1.0000
  Fe  Fe2       1.0  0.00000  0.50000  0.50000  1.0000
  O   O1        1.0  0.24100  0.41900  0.02790  1.0000
  O   O2        1.0  0.31900  0.78800  0.04820  1.0000
  O   O3        1.0  0.31200  0.10800  0.14200  1.0000
  O   O4        1.0  0.79700  0.91100  0.16800  1.0000
  O   O5        1.0  0.69900  0.34600  0.19700  1.0000
  O   O6        1.0  0.30100  0.84600  0.30300  1.0000
  O   O7        1.0  0.20300  0.41100  0.33200  1.0000
  O   O8        1.0  0.68800  0.60800  0.35800  1.0000
  O   O9        1.0  0.68100  0.28800  0.45200  1.0000
  O   O10       1.0  0.75900  0.91900  0.47200  1.0000
  O   O11       1.0  0.24100  0.08100  0.52800  1.0000
  O   O12       1.0  0.31900  0.71200  0.54800  1.0000
  O   O13       1.0  0.31200  0.39200  0.64200  1.0000
  O   O14       1.0  0.79700  0.58900  0.66800  1.0000
  O   O15       1.0  0.69900  0.15400  0.69700  1.0000
  O   O16       1.0  0.30100  0.65400  0.80300  1.0000
  O   O17       1.0  0.20300  0.08870  0.83200  1.0000
  O   O18       1.0  0.68800  0.89200  0.85800  1.0000
  O   O19       1.0  0.68100  0.21200  0.95200  1.0000
  O   O20       1.0  0.75900  0.58100  0.97200  1.0000
  Si  Si1       1.0  0.48400  0.28200  0.07780  1.0000
  Si  Si2       1.0  0.51600  0.78200  0.42200  1.0000
  Si  Si3       1.0  0.48400  0.21800  0.57800  1.0000
  Si  Si4       1.0  0.51600  0.71800  0.92200  1.0000
  Y   Y1        1.0  0.00000  0.60900  0.17300  1.0000
  Y   Y2        1.0  0.00024  0.10900  0.32700  1.0000
  Y   Y3        1.0  0.00000  0.89100  0.67300  1.0000
  Y   Y4        1.0  0.00024  0.39100  0.82700  1.0000
