data_image0
_chemical_formula_structural       Co2H12O16Se4
_chemical_formula_sum              "Co2 H12 O16 Se4"
_cell_length_a       6.96879
_cell_length_b       6.73885
_cell_length_c       7.63359
_cell_angle_alpha    90
_cell_angle_beta     111.563
_cell_angle_gamma    90

_space_group_name_H-M_alt    "P 1"
_space_group_IT_number       1

loop_
  _space_group_symop_operation_xyz
  'x, y, z'

loop_
  _atom_site_type_symbol
  _atom_site_label
  _atom_site_symmetry_multiplicity
  _atom_site_fract_x
  _atom_site_fract_y
  _atom_site_fract_z
  _atom_site_occupancy
  Co  Co1       1.0  0.50000  0.00000  0.00000  1.0000
  Co  Co2       1.0  0.00000  0.50000  0.50000  1.0000
  H   H1        1.0  0.37400  0.34400  0.08600  1.0000
  H   H2        1.0  0.74400  0.71400  0.13100  1.0000
  H   H3        1.0  0.24700  0.01830  0.24700  1.0000
  H   H4        1.0  0.25300  0.51800  0.25300  1.0000
  H   H5        1.0  0.75600  0.21400  0.36900  1.0000
  H   H6        1.0  0.12600  0.84400  0.41400  1.0000
  H   H7        1.0  0.87400  0.15600  0.58600  1.0000
  H   H8        1.0  0.24400  0.78600  0.63100  1.0000
  H   H9        1.0  0.74700  0.48200  0.74700  1.0000
  H   H10       1.0  0.75300  0.98200  0.75300  1.0000
  H   H11       1.0  0.25600  0.28600  0.86900  1.0000
  H   H12       1.0  0.62600  0.65600  0.91400  1.0000
  O   O1        1.0  0.29900  0.23400  0.00218  1.0000
  O   O2        1.0  0.73300  0.18000  0.15500  1.0000
  O   O3        1.0  0.39100  0.54300  0.23600  1.0000
  O   O4        1.0  0.03860  0.43800  0.24100  1.0000
  O   O5        1.0  0.46100  0.93800  0.25900  1.0000
  O   O6        1.0  0.10900  0.04310  0.26400  1.0000
  O   O7        1.0  0.76700  0.68000  0.34500  1.0000
  O   O8        1.0  0.20100  0.73400  0.49800  1.0000
  O   O9        1.0  0.79900  0.26600  0.50200  1.0000
  O   O10       1.0  0.23300  0.32000  0.65500  1.0000
  O   O11       1.0  0.89100  0.95700  0.73600  1.0000
  O   O12       1.0  0.53900  0.06160  0.74100  1.0000
  O   O13       1.0  0.96100  0.56200  0.75900  1.0000
  O   O14       1.0  0.60900  0.45700  0.76400  1.0000
  O   O15       1.0  0.26700  0.82000  0.84500  1.0000
  O   O16       1.0  0.70100  0.76600  0.99800  1.0000
  Se  Se1       1.0  0.94800  0.23100  0.10700  1.0000
  Se  Se2       1.0  0.55200  0.73100  0.39300  1.0000
  Se  Se3       1.0  0.44800  0.26900  0.60700  1.0000
  Se  Se4       1.0  0.05160  0.76900  0.89300  1.0000
