data_image0
_chemical_formula_structural       Fe4O14Rb16
_chemical_formula_sum              "Fe4 O14 Rb16"
_cell_length_a       6.9634
_cell_length_b       17.3308
_cell_length_c       6.88597
_cell_angle_alpha    90
_cell_angle_beta     119.145
_cell_angle_gamma    90

_space_group_name_H-M_alt    "P 1"
_space_group_IT_number       1

loop_
  _space_group_symop_operation_xyz
  'x, y, z'

loop_
  _atom_site_type_symbol
  _atom_site_label
  _atom_site_symmetry_multiplicity
  _atom_site_fract_x
  _atom_site_fract_y
  _atom_site_fract_z
  _atom_site_occupancy
  Fe  Fe1       1.0  0.85700  0.59800  0.00040  1.0000
  Fe  Fe2       1.0  0.14300  0.09770  0.50000  1.0000
  Fe  Fe3       1.0  0.85700  0.90200  0.50000  1.0000
  Fe  Fe4       1.0  0.14300  0.40200  0.00000  1.0000
  O   O1        1.0  0.00000  0.50000  0.00000  1.0000
  O   O2        1.0  0.95600  0.32300  0.00296  1.0000
  O   O3        1.0  0.16700  0.10600  0.23700  1.0000
  O   O4        1.0  0.57800  0.89900  0.24000  1.0000
  O   O5        1.0  0.42200  0.39900  0.26000  1.0000
  O   O6        1.0  0.83300  0.60600  0.26300  1.0000
  O   O7        1.0  0.04400  0.82300  0.49700  1.0000
  O   O8        1.0  0.00000  0.00000  0.50000  1.0000
  O   O9        1.0  0.95600  0.17700  0.50300  1.0000
  O   O10       1.0  0.16700  0.39400  0.73700  1.0000
  O   O11       1.0  0.57800  0.60100  0.74000  1.0000
  O   O12       1.0  0.42200  0.10100  0.76000  1.0000
  O   O13       1.0  0.83300  0.89400  0.76300  1.0000
  O   O14       1.0  0.04400  0.67700  0.99700  1.0000
  Rb  Rb1       1.0  0.36100  0.58200  0.00406  1.0000
  Rb  Rb2       1.0  0.77000  0.99500  0.03980  1.0000
  Rb  Rb3       1.0  0.77800  0.19200  0.04430  1.0000
  Rb  Rb4       1.0  0.76200  0.78900  0.04570  1.0000
  Rb  Rb5       1.0  0.23800  0.28900  0.45400  1.0000
  Rb  Rb6       1.0  0.22200  0.69200  0.45600  1.0000
  Rb  Rb7       1.0  0.23000  0.49500  0.46000  1.0000
  Rb  Rb8       1.0  0.63900  0.08210  0.49600  1.0000
  Rb  Rb9       1.0  0.36100  0.91800  0.50400  1.0000
  Rb  Rb10      1.0  0.77000  0.50500  0.54000  1.0000
  Rb  Rb11      1.0  0.77800  0.30800  0.54400  1.0000
  Rb  Rb12      1.0  0.76200  0.71100  0.54600  1.0000
  Rb  Rb13      1.0  0.23800  0.21100  0.95400  1.0000
  Rb  Rb14      1.0  0.22200  0.80800  0.95600  1.0000
  Rb  Rb15      1.0  0.23000  0.00489  0.96000  1.0000
  Rb  Rb16      1.0  0.63900  0.41800  0.99600  1.0000
