data_image0
_chemical_formula_structural       Eu4Mo6O24
_chemical_formula_sum              "Eu4 Mo6 O24"
_cell_length_a       6.83478
_cell_length_b       6.83478
_cell_length_c       11.5643
_cell_angle_alpha    100.392
_cell_angle_beta     100.392
_cell_angle_gamma    112.832

_space_group_name_H-M_alt    "P 1"
_space_group_IT_number       1

loop_
  _space_group_symop_operation_xyz
  'x, y, z'

loop_
  _atom_site_type_symbol
  _atom_site_label
  _atom_site_symmetry_multiplicity
  _atom_site_fract_x
  _atom_site_fract_y
  _atom_site_fract_z
  _atom_site_occupancy
  Eu  Eu1       1.0  0.79500  0.04280  0.09080  1.0000
  Eu  Eu2       1.0  0.45700  0.70500  0.40900  1.0000
  Eu  Eu3       1.0  0.54300  0.29500  0.59100  1.0000
  Eu  Eu4       1.0  0.20500  0.95700  0.90900  1.0000
  Mo  Mo1       1.0  0.27600  0.52300  0.06470  1.0000
  Mo  Mo2       1.0  0.37800  0.12200  0.25000  1.0000
  Mo  Mo3       1.0  0.97700  0.22400  0.43500  1.0000
  Mo  Mo4       1.0  0.02300  0.77600  0.56500  1.0000
  Mo  Mo5       1.0  0.62200  0.87800  0.75000  1.0000
  Mo  Mo6       1.0  0.72400  0.47700  0.93500  1.0000
  O   O1        1.0  0.14400  0.23100  0.04640  1.0000
  O   O2        1.0  0.84200  0.40100  0.05810  1.0000
  O   O3        1.0  0.58000  0.64000  0.08880  1.0000
  O   O4        1.0  0.43600  0.01220  0.11200  1.0000
  O   O5        1.0  0.26000  0.66600  0.20400  1.0000
  O   O6        1.0  0.08870  0.01260  0.22700  1.0000
  O   O7        1.0  0.48700  0.41100  0.27300  1.0000
  O   O8        1.0  0.83400  0.24000  0.29600  1.0000
  O   O9        1.0  0.48800  0.06390  0.38800  1.0000
  O   O10       1.0  0.86000  0.92000  0.41100  1.0000
  O   O11       1.0  0.09950  0.65800  0.44200  1.0000
  O   O12       1.0  0.26900  0.35600  0.45400  1.0000
  O   O13       1.0  0.73100  0.64400  0.54600  1.0000
  O   O14       1.0  0.90100  0.34200  0.55800  1.0000
  O   O15       1.0  0.14000  0.07980  0.58900  1.0000
  O   O16       1.0  0.51200  0.93600  0.61200  1.0000
  O   O17       1.0  0.16600  0.76000  0.70400  1.0000
  O   O18       1.0  0.51300  0.58900  0.72700  1.0000
  O   O19       1.0  0.91100  0.98700  0.77300  1.0000
  O   O20       1.0  0.74000  0.33400  0.79600  1.0000
  O   O21       1.0  0.56400  0.98800  0.88800  1.0000
  O   O22       1.0  0.42000  0.36000  0.91100  1.0000
  O   O23       1.0  0.15800  0.59900  0.94200  1.0000
  O   O24       1.0  0.85600  0.76900  0.95400  1.0000
