data_image0
_chemical_formula_structural       Ti2Zn32
_chemical_formula_sum              "Ti2 Zn32"
_cell_length_a       6.84942
_cell_length_b       6.84942
_cell_length_c       11.7065
_cell_angle_alpha    90
_cell_angle_beta     90
_cell_angle_gamma    111.971

_space_group_name_H-M_alt    "P 1"
_space_group_IT_number       1

loop_
  _space_group_symop_operation_xyz
  'x, y, z'

loop_
  _atom_site_type_symbol
  _atom_site_label
  _atom_site_symmetry_multiplicity
  _atom_site_fract_x
  _atom_site_fract_y
  _atom_site_fract_z
  _atom_site_occupancy
  Ti  Ti1       1.0  0.04730  0.95300  0.25000  1.0000
  Ti  Ti2       1.0  0.95300  0.04730  0.75000  1.0000
  Zn  Zn1       1.0  0.00000  0.00000  0.00000  1.0000
  Zn  Zn2       1.0  0.61900  0.38100  0.03070  1.0000
  Zn  Zn3       1.0  0.01810  0.64500  0.07020  1.0000
  Zn  Zn4       1.0  0.35500  0.98200  0.07020  1.0000
  Zn  Zn5       1.0  0.24100  0.34700  0.13500  1.0000
  Zn  Zn6       1.0  0.65300  0.75900  0.13500  1.0000
  Zn  Zn7       1.0  0.82400  0.17600  0.14000  1.0000
  Zn  Zn8       1.0  0.47800  0.19000  0.25000  1.0000
  Zn  Zn9       1.0  0.81000  0.52200  0.25000  1.0000
  Zn  Zn10      1.0  0.28900  0.71100  0.25000  1.0000
  Zn  Zn11      1.0  0.82400  0.17600  0.36000  1.0000
  Zn  Zn12      1.0  0.24100  0.34700  0.36500  1.0000
  Zn  Zn13      1.0  0.65300  0.75900  0.36500  1.0000
  Zn  Zn14      1.0  0.01810  0.64500  0.43000  1.0000
  Zn  Zn15      1.0  0.35500  0.98200  0.43000  1.0000
  Zn  Zn16      1.0  0.61900  0.38100  0.46900  1.0000
  Zn  Zn17      1.0  0.00000  0.00000  0.50000  1.0000
  Zn  Zn18      1.0  0.38100  0.61900  0.53100  1.0000
  Zn  Zn19      1.0  0.64500  0.01810  0.57000  1.0000
  Zn  Zn20      1.0  0.98200  0.35500  0.57000  1.0000
  Zn  Zn21      1.0  0.34700  0.24100  0.63500  1.0000
  Zn  Zn22      1.0  0.75900  0.65300  0.63500  1.0000
  Zn  Zn23      1.0  0.17600  0.82400  0.64000  1.0000
  Zn  Zn24      1.0  0.71100  0.28900  0.75000  1.0000
  Zn  Zn25      1.0  0.19000  0.47800  0.75000  1.0000
  Zn  Zn26      1.0  0.52200  0.81000  0.75000  1.0000
  Zn  Zn27      1.0  0.17600  0.82400  0.86000  1.0000
  Zn  Zn28      1.0  0.34700  0.24100  0.86500  1.0000
  Zn  Zn29      1.0  0.75900  0.65300  0.86500  1.0000
  Zn  Zn30      1.0  0.64500  0.01810  0.93000  1.0000
  Zn  Zn31      1.0  0.98200  0.35500  0.93000  1.0000
  Zn  Zn32      1.0  0.38100  0.61900  0.96900  1.0000
