data_image0
_chemical_formula_structural       Bi18Ti16
_chemical_formula_sum              "Bi18 Ti16"
_cell_length_a       10.2645
_cell_length_b       10.2645
_cell_length_c       7.40995
_cell_angle_alpha    90
_cell_angle_beta     90
_cell_angle_gamma    90

_space_group_name_H-M_alt    "P 1"
_space_group_IT_number       1

loop_
  _space_group_symop_operation_xyz
  'x, y, z'

loop_
  _atom_site_type_symbol
  _atom_site_label
  _atom_site_symmetry_multiplicity
  _atom_site_fract_x
  _atom_site_fract_y
  _atom_site_fract_z
  _atom_site_occupancy
  Bi  Bi1       1.0  0.75000  0.51300  0.19300  1.0000
  Bi  Bi2       1.0  0.51300  0.75000  0.19300  1.0000
  Bi  Bi3       1.0  0.98700  0.75000  0.19300  1.0000
  Bi  Bi4       1.0  0.75000  0.98700  0.19300  1.0000
  Bi  Bi5       1.0  0.08500  0.08500  0.34700  1.0000
  Bi  Bi6       1.0  0.41500  0.08500  0.34700  1.0000
  Bi  Bi7       1.0  0.08500  0.41500  0.34700  1.0000
  Bi  Bi8       1.0  0.41500  0.41500  0.34700  1.0000
  Bi  Bi9       1.0  0.75000  0.25000  0.50000  1.0000
  Bi  Bi10      1.0  0.25000  0.75000  0.50000  1.0000
  Bi  Bi11      1.0  0.58500  0.58500  0.65300  1.0000
  Bi  Bi12      1.0  0.91500  0.58500  0.65300  1.0000
  Bi  Bi13      1.0  0.58500  0.91500  0.65300  1.0000
  Bi  Bi14      1.0  0.91500  0.91500  0.65300  1.0000
  Bi  Bi15      1.0  0.25000  0.01300  0.80700  1.0000
  Bi  Bi16      1.0  0.01300  0.25000  0.80700  1.0000
  Bi  Bi17      1.0  0.48700  0.25000  0.80700  1.0000
  Bi  Bi18      1.0  0.25000  0.48700  0.80700  1.0000
  Ti  Ti1       1.0  0.00000  0.00000  0.00000  1.0000
  Ti  Ti2       1.0  0.50000  0.00000  0.00000  1.0000
  Ti  Ti3       1.0  0.00000  0.50000  0.00000  1.0000
  Ti  Ti4       1.0  0.50000  0.50000  0.00000  1.0000
  Ti  Ti5       1.0  0.25000  0.25000  0.08010  1.0000
  Ti  Ti6       1.0  0.60900  0.25000  0.14800  1.0000
  Ti  Ti7       1.0  0.89100  0.25000  0.14800  1.0000
  Ti  Ti8       1.0  0.25000  0.60900  0.14800  1.0000
  Ti  Ti9       1.0  0.25000  0.89100  0.14800  1.0000
  Ti  Ti10      1.0  0.75000  0.75000  0.42300  1.0000
  Ti  Ti11      1.0  0.25000  0.25000  0.57700  1.0000
  Ti  Ti12      1.0  0.75000  0.10900  0.85200  1.0000
  Ti  Ti13      1.0  0.75000  0.39100  0.85200  1.0000
  Ti  Ti14      1.0  0.10900  0.75000  0.85200  1.0000
  Ti  Ti15      1.0  0.39100  0.75000  0.85200  1.0000
  Ti  Ti16      1.0  0.75000  0.75000  0.92000  1.0000
