data_image0
_chemical_formula_structural       H16O16U2
_chemical_formula_sum              "H16 O16 U2"
_cell_length_a       6.37831
_cell_length_b       7.5686
_cell_length_c       7.98782
_cell_angle_alpha    66.1011
_cell_angle_beta     113.531
_cell_angle_gamma    114.921

_space_group_name_H-M_alt    "P 1"
_space_group_IT_number       1

loop_
  _space_group_symop_operation_xyz
  'x, y, z'

loop_
  _atom_site_type_symbol
  _atom_site_label
  _atom_site_symmetry_multiplicity
  _atom_site_fract_x
  _atom_site_fract_y
  _atom_site_fract_z
  _atom_site_occupancy
  H   H1        1.0  0.30500  0.72300  0.07700  1.0000
  H   H2        1.0  0.52400  0.65100  0.10900  1.0000
  H   H3        1.0  0.23300  0.38900  0.13400  1.0000
  H   H4        1.0  0.71600  0.30600  0.17400  1.0000
  H   H5        1.0  0.23600  0.19400  0.32600  1.0000
  H   H6        1.0  0.71100  0.11100  0.36600  1.0000
  H   H7        1.0  0.76400  0.84900  0.39100  1.0000
  H   H8        1.0  0.50600  0.77700  0.42300  1.0000
  H   H9        1.0  0.49400  0.22300  0.57700  1.0000
  H   H10       1.0  0.23600  0.15100  0.60900  1.0000
  H   H11       1.0  0.28900  0.88900  0.63400  1.0000
  H   H12       1.0  0.76400  0.80600  0.67400  1.0000
  H   H13       1.0  0.28400  0.69400  0.82600  1.0000
  H   H14       1.0  0.76700  0.61100  0.86600  1.0000
  H   H15       1.0  0.47600  0.34900  0.89100  1.0000
  H   H16       1.0  0.69500  0.27700  0.92300  1.0000
  O   O1        1.0  0.34500  0.62500  0.05020  1.0000
  O   O2        1.0  0.27500  0.93600  0.08370  1.0000
  O   O3        1.0  0.17600  0.23600  0.18200  1.0000
  O   O4        1.0  0.80700  0.67900  0.19100  1.0000
  O   O5        1.0  0.93700  0.82100  0.30900  1.0000
  O   O6        1.0  0.75800  0.26400  0.31800  1.0000
  O   O7        1.0  0.25500  0.56400  0.41600  1.0000
  O   O8        1.0  0.67000  0.87500  0.45000  1.0000
  O   O9        1.0  0.33000  0.12500  0.55000  1.0000
  O   O10       1.0  0.74500  0.43600  0.58400  1.0000
  O   O11       1.0  0.24200  0.73600  0.68200  1.0000
  O   O12       1.0  0.06330  0.17900  0.69100  1.0000
  O   O13       1.0  0.19300  0.32100  0.80900  1.0000
  O   O14       1.0  0.82400  0.76400  0.81800  1.0000
  O   O15       1.0  0.72500  0.06430  0.91600  1.0000
  O   O16       1.0  0.65500  0.37500  0.95000  1.0000
  U   U1        1.0  0.00000  0.00000  0.00000  1.0000
  U   U2        1.0  0.00000  0.50000  0.50000  1.0000
