data_image0
_chemical_formula_structural       Dy4O24W6
_chemical_formula_sum              "Dy4 O24 W6"
_cell_length_a       6.77687
_cell_length_b       6.77687
_cell_length_c       11.2178
_cell_angle_alpha    100.704
_cell_angle_beta     100.704
_cell_angle_gamma    112.116

_space_group_name_H-M_alt    "P 1"
_space_group_IT_number       1

loop_
  _space_group_symop_operation_xyz
  'x, y, z'

loop_
  _atom_site_type_symbol
  _atom_site_label
  _atom_site_symmetry_multiplicity
  _atom_site_fract_x
  _atom_site_fract_y
  _atom_site_fract_z
  _atom_site_occupancy
  Dy  Dy1       1.0  0.79200  0.04350  0.09450  1.0000
  Dy  Dy2       1.0  0.45600  0.70800  0.40500  1.0000
  Dy  Dy3       1.0  0.54400  0.29200  0.59500  1.0000
  Dy  Dy4       1.0  0.20800  0.95600  0.90500  1.0000
  O   O1        1.0  0.41800  0.82100  0.04200  1.0000
  O   O2        1.0  0.73100  0.66700  0.06560  1.0000
  O   O3        1.0  0.97600  0.40000  0.07910  1.0000
  O   O4        1.0  0.16400  0.07960  0.10400  1.0000
  O   O5        1.0  0.41100  0.53300  0.20100  1.0000
  O   O6        1.0  0.63900  0.21300  0.22500  1.0000
  O   O7        1.0  0.28700  0.86100  0.27500  1.0000
  O   O8        1.0  0.96700  0.08930  0.29900  1.0000
  O   O9        1.0  0.42000  0.33600  0.39600  1.0000
  O   O10       1.0  0.09980  0.52400  0.42100  1.0000
  O   O11       1.0  0.83300  0.76900  0.43400  1.0000
  O   O12       1.0  0.67900  0.08250  0.45800  1.0000
  O   O13       1.0  0.32100  0.91800  0.54200  1.0000
  O   O14       1.0  0.16700  0.23100  0.56600  1.0000
  O   O15       1.0  0.90000  0.47600  0.57900  1.0000
  O   O16       1.0  0.58000  0.66400  0.60400  1.0000
  O   O17       1.0  0.03260  0.91100  0.70100  1.0000
  O   O18       1.0  0.71300  0.13900  0.72500  1.0000
  O   O19       1.0  0.36100  0.78700  0.77500  1.0000
  O   O20       1.0  0.58900  0.46700  0.79900  1.0000
  O   O21       1.0  0.83600  0.92000  0.89600  1.0000
  O   O22       1.0  0.02430  0.60000  0.92100  1.0000
  O   O23       1.0  0.26900  0.33300  0.93400  1.0000
  O   O24       1.0  0.58200  0.17900  0.95800  1.0000
  W   W1        1.0  0.25700  0.53800  0.05210  1.0000
  W   W2        1.0  0.37000  0.13000  0.25000  1.0000
  W   W3        1.0  0.96200  0.24300  0.44800  1.0000
  W   W4        1.0  0.03760  0.75700  0.55200  1.0000
  W   W5        1.0  0.63000  0.87000  0.75000  1.0000
  W   W6        1.0  0.74300  0.46200  0.94800  1.0000
