data_image0
_chemical_formula_structural       B12Ba4Ni18
_chemical_formula_sum              "B12 Ba4 Ni18"
_cell_length_a       7.55897
_cell_length_b       7.55897
_cell_length_c       7.55897
_cell_angle_alpha    96.6029
_cell_angle_beta     83.3971
_cell_angle_gamma    96.6029

_space_group_name_H-M_alt    "P 1"
_space_group_IT_number       1

loop_
  _space_group_symop_operation_xyz
  'x, y, z'

loop_
  _atom_site_type_symbol
  _atom_site_label
  _atom_site_symmetry_multiplicity
  _atom_site_fract_x
  _atom_site_fract_y
  _atom_site_fract_z
  _atom_site_occupancy
  B   B1        1.0  0.34700  0.31200  0.03470  1.0000
  B   B2        1.0  0.46500  0.18800  0.15300  1.0000
  B   B3        1.0  0.84700  0.46500  0.18800  1.0000
  B   B4        1.0  0.96500  0.34700  0.31200  1.0000
  B   B5        1.0  0.68800  0.96500  0.34700  1.0000
  B   B6        1.0  0.81200  0.84700  0.46500  1.0000
  B   B7        1.0  0.18800  0.15300  0.53500  1.0000
  B   B8        1.0  0.31200  0.03470  0.65300  1.0000
  B   B9        1.0  0.03470  0.65300  0.68800  1.0000
  B   B10       1.0  0.15300  0.53500  0.81200  1.0000
  B   B11       1.0  0.53500  0.81200  0.84700  1.0000
  B   B12       1.0  0.65300  0.68800  0.96500  1.0000
  Ba  Ba1       1.0  0.12300  0.87700  0.12300  1.0000
  Ba  Ba2       1.0  0.37700  0.62300  0.37700  1.0000
  Ba  Ba3       1.0  0.62300  0.37700  0.62300  1.0000
  Ba  Ba4       1.0  0.87700  0.12300  0.87700  1.0000
  Ni  Ni1       1.0  0.60900  0.42400  0.06770  1.0000
  Ni  Ni2       1.0  0.10900  0.43200  0.07570  1.0000
  Ni  Ni3       1.0  0.56800  0.92400  0.10900  1.0000
  Ni  Ni4       1.0  0.75000  0.71600  0.21600  1.0000
  Ni  Ni5       1.0  0.71600  0.21600  0.25000  1.0000
  Ni  Ni6       1.0  0.21600  0.25000  0.28400  1.0000
  Ni  Ni7       1.0  0.42400  0.06770  0.39100  1.0000
  Ni  Ni8       1.0  0.93200  0.60900  0.42400  1.0000
  Ni  Ni9       1.0  0.92400  0.10900  0.43200  1.0000
  Ni  Ni10      1.0  0.07570  0.89100  0.56800  1.0000
  Ni  Ni11      1.0  0.06770  0.39100  0.57600  1.0000
  Ni  Ni12      1.0  0.57600  0.93200  0.60900  1.0000
  Ni  Ni13      1.0  0.78400  0.75000  0.71600  1.0000
  Ni  Ni14      1.0  0.28400  0.78400  0.75000  1.0000
  Ni  Ni15      1.0  0.25000  0.28400  0.78400  1.0000
  Ni  Ni16      1.0  0.43200  0.07570  0.89100  1.0000
  Ni  Ni17      1.0  0.89100  0.56800  0.92400  1.0000
  Ni  Ni18      1.0  0.39100  0.57600  0.93200  1.0000
