data_image0
_chemical_formula_structural       C8Cd2H12O4S8
_chemical_formula_sum              "C8 Cd2 H12 O4 S8"
_cell_length_a       3.96965
_cell_length_b       9.77119
_cell_length_c       12.4943
_cell_angle_alpha    107.981
_cell_angle_beta     90
_cell_angle_gamma    101.72

_space_group_name_H-M_alt    "P 1"
_space_group_IT_number       1

loop_
  _space_group_symop_operation_xyz
  'x, y, z'

loop_
  _atom_site_type_symbol
  _atom_site_label
  _atom_site_symmetry_multiplicity
  _atom_site_fract_x
  _atom_site_fract_y
  _atom_site_fract_z
  _atom_site_occupancy
  C   C1        1.0  0.99000  0.25600  0.04330  1.0000
  C   C2        1.0  0.81100  0.09000  0.14900  1.0000
  C   C3        1.0  0.72100  0.91000  0.35100  1.0000
  C   C4        1.0  0.73400  0.74400  0.45700  1.0000
  C   C5        1.0  0.26600  0.25600  0.54300  1.0000
  C   C6        1.0  0.27900  0.09000  0.64900  1.0000
  C   C7        1.0  0.18900  0.91000  0.85100  1.0000
  C   C8        1.0  0.01000  0.74400  0.95700  1.0000
  Cd  Cd1       1.0  0.50000  0.50000  0.00000  1.0000
  Cd  Cd2       1.0  0.00000  0.50000  0.50000  1.0000
  H   H1        1.0  0.63600  0.98200  0.13000  1.0000
  H   H2        1.0  0.07620  0.08390  0.16800  1.0000
  H   H3        1.0  0.72700  0.17200  0.22000  1.0000
  H   H4        1.0  0.55500  0.82800  0.28000  1.0000
  H   H5        1.0  0.99200  0.91600  0.33200  1.0000
  H   H6        1.0  0.65400  0.01800  0.37000  1.0000
  H   H7        1.0  0.34600  0.98200  0.63000  1.0000
  H   H8        1.0  0.00767  0.08390  0.66800  1.0000
  H   H9        1.0  0.44500  0.17200  0.72000  1.0000
  H   H10       1.0  0.27300  0.82800  0.78000  1.0000
  H   H11       1.0  0.92400  0.91600  0.83200  1.0000
  H   H12       1.0  0.36400  0.01800  0.87000  1.0000
  O   O1        1.0  0.79100  0.13000  0.04750  1.0000
  O   O2        1.0  0.66100  0.87000  0.45200  1.0000
  O   O3        1.0  0.33900  0.13000  0.54800  1.0000
  O   O4        1.0  0.20900  0.87000  0.95200  1.0000
  S   S1        1.0  0.06610  0.70900  0.08210  1.0000
  S   S2        1.0  0.27100  0.36800  0.15100  1.0000
  S   S3        1.0  0.90300  0.63200  0.34900  1.0000
  S   S4        1.0  0.35700  0.29100  0.41800  1.0000
  S   S5        1.0  0.64300  0.70900  0.58200  1.0000
  S   S6        1.0  0.09730  0.36800  0.65100  1.0000
  S   S7        1.0  0.72900  0.63200  0.84900  1.0000
  S   S8        1.0  0.93400  0.29100  0.91800  1.0000
