data_image0
_chemical_formula_structural       Fe6H4O20P4
_chemical_formula_sum              "Fe6 H4 O20 P4"
_cell_length_a       7.61835
_cell_length_b       7.01138
_cell_length_c       7.91779
_cell_angle_alpha    90
_cell_angle_beta     121.535
_cell_angle_gamma    90

_space_group_name_H-M_alt    "P 1"
_space_group_IT_number       1

loop_
  _space_group_symop_operation_xyz
  'x, y, z'

loop_
  _atom_site_type_symbol
  _atom_site_label
  _atom_site_symmetry_multiplicity
  _atom_site_fract_x
  _atom_site_fract_y
  _atom_site_fract_z
  _atom_site_occupancy
  Fe  Fe1       1.0  0.00000  0.00000  0.00000  1.0000
  Fe  Fe2       1.0  0.72600  0.26100  0.02600  1.0000
  Fe  Fe3       1.0  0.77400  0.76100  0.47400  1.0000
  Fe  Fe4       1.0  0.50000  0.50000  0.50000  1.0000
  Fe  Fe5       1.0  0.22600  0.23900  0.52600  1.0000
  Fe  Fe6       1.0  0.27400  0.73900  0.97400  1.0000
  H   H1        1.0  0.91300  0.07530  0.23500  1.0000
  H   H2        1.0  0.58700  0.57500  0.26500  1.0000
  H   H3        1.0  0.41300  0.42500  0.73500  1.0000
  H   H4        1.0  0.08680  0.92500  0.76500  1.0000
  O   O1        1.0  0.31900  0.97200  0.08950  1.0000
  O   O2        1.0  0.02500  0.73800  0.10900  1.0000
  O   O3        1.0  0.53800  0.24000  0.11100  1.0000
  O   O4        1.0  0.80200  0.50200  0.12300  1.0000
  O   O5        1.0  0.06100  0.13500  0.22600  1.0000
  O   O6        1.0  0.43900  0.63500  0.27400  1.0000
  O   O7        1.0  0.69800  0.00213  0.37700  1.0000
  O   O8        1.0  0.96200  0.74000  0.38900  1.0000
  O   O9        1.0  0.47500  0.23800  0.39100  1.0000
  O   O10       1.0  0.18100  0.47200  0.41000  1.0000
  O   O11       1.0  0.81900  0.52800  0.59000  1.0000
  O   O12       1.0  0.52500  0.76200  0.60900  1.0000
  O   O13       1.0  0.03810  0.26000  0.61100  1.0000
  O   O14       1.0  0.30200  0.99800  0.62300  1.0000
  O   O15       1.0  0.56100  0.36500  0.72600  1.0000
  O   O16       1.0  0.93900  0.86500  0.77400  1.0000
  O   O17       1.0  0.19800  0.49800  0.87700  1.0000
  O   O18       1.0  0.46200  0.76000  0.88900  1.0000
  O   O19       1.0  0.97500  0.26200  0.89100  1.0000
  O   O20       1.0  0.68100  0.02790  0.91000  1.0000
  P   P1        1.0  0.98800  0.61400  0.24500  1.0000
  P   P2        1.0  0.51200  0.11400  0.25500  1.0000
  P   P3        1.0  0.48800  0.88600  0.74500  1.0000
  P   P4        1.0  0.01240  0.38600  0.75500  1.0000
