data_image0
_chemical_formula_structural       Nb2Zn32
_chemical_formula_sum              "Nb2 Zn32"
_cell_length_a       6.87299
_cell_length_b       6.87299
_cell_length_c       11.6308
_cell_angle_alpha    90
_cell_angle_beta     90
_cell_angle_gamma    112.166

_space_group_name_H-M_alt    "P 1"
_space_group_IT_number       1

loop_
  _space_group_symop_operation_xyz
  'x, y, z'

loop_
  _atom_site_type_symbol
  _atom_site_label
  _atom_site_symmetry_multiplicity
  _atom_site_fract_x
  _atom_site_fract_y
  _atom_site_fract_z
  _atom_site_occupancy
  Nb  Nb1       1.0  0.04830  0.95200  0.25000  1.0000
  Nb  Nb2       1.0  0.95200  0.04830  0.75000  1.0000
  Zn  Zn1       1.0  0.00000  0.00000  0.00000  1.0000
  Zn  Zn2       1.0  0.62000  0.38000  0.03220  1.0000
  Zn  Zn3       1.0  0.01850  0.64500  0.06940  1.0000
  Zn  Zn4       1.0  0.35500  0.98200  0.06940  1.0000
  Zn  Zn5       1.0  0.24500  0.35000  0.13400  1.0000
  Zn  Zn6       1.0  0.65000  0.75500  0.13400  1.0000
  Zn  Zn7       1.0  0.82400  0.17600  0.14000  1.0000
  Zn  Zn8       1.0  0.48000  0.19300  0.25000  1.0000
  Zn  Zn9       1.0  0.80700  0.52000  0.25000  1.0000
  Zn  Zn10      1.0  0.29100  0.70900  0.25000  1.0000
  Zn  Zn11      1.0  0.82400  0.17600  0.36000  1.0000
  Zn  Zn12      1.0  0.24500  0.35000  0.36600  1.0000
  Zn  Zn13      1.0  0.65000  0.75500  0.36600  1.0000
  Zn  Zn14      1.0  0.01850  0.64500  0.43100  1.0000
  Zn  Zn15      1.0  0.35500  0.98200  0.43100  1.0000
  Zn  Zn16      1.0  0.62000  0.38000  0.46800  1.0000
  Zn  Zn17      1.0  0.00000  0.00000  0.50000  1.0000
  Zn  Zn18      1.0  0.38000  0.62000  0.53200  1.0000
  Zn  Zn19      1.0  0.64500  0.01850  0.56900  1.0000
  Zn  Zn20      1.0  0.98200  0.35500  0.56900  1.0000
  Zn  Zn21      1.0  0.35000  0.24500  0.63400  1.0000
  Zn  Zn22      1.0  0.75500  0.65000  0.63400  1.0000
  Zn  Zn23      1.0  0.17600  0.82400  0.64000  1.0000
  Zn  Zn24      1.0  0.70900  0.29100  0.75000  1.0000
  Zn  Zn25      1.0  0.19300  0.48000  0.75000  1.0000
  Zn  Zn26      1.0  0.52000  0.80700  0.75000  1.0000
  Zn  Zn27      1.0  0.17600  0.82400  0.86000  1.0000
  Zn  Zn28      1.0  0.35000  0.24500  0.86600  1.0000
  Zn  Zn29      1.0  0.75500  0.65000  0.86600  1.0000
  Zn  Zn30      1.0  0.64500  0.01850  0.93100  1.0000
  Zn  Zn31      1.0  0.98200  0.35500  0.93100  1.0000
  Zn  Zn32      1.0  0.38000  0.62000  0.96800  1.0000
