data_image0
_chemical_formula_structural       Ba2Ge6K8O18
_chemical_formula_sum              "Ba2 Ge6 K8 O18"
_cell_length_a       7.43697
_cell_length_b       7.43697
_cell_length_c       11.3631
_cell_angle_alpha    90.3462
_cell_angle_beta     90.3462
_cell_angle_gamma    111.778

_space_group_name_H-M_alt    "P 1"
_space_group_IT_number       1

loop_
  _space_group_symop_operation_xyz
  'x, y, z'

loop_
  _atom_site_type_symbol
  _atom_site_label
  _atom_site_symmetry_multiplicity
  _atom_site_fract_x
  _atom_site_fract_y
  _atom_site_fract_z
  _atom_site_occupancy
  Ba  Ba1       1.0  0.80200  0.18600  0.22700  1.0000
  Ba  Ba2       1.0  0.81400  0.19800  0.77300  1.0000
  Ge  Ge1       1.0  0.10100  0.50600  0.03120  1.0000
  Ge  Ge2       1.0  0.88700  0.66800  0.25900  1.0000
  Ge  Ge3       1.0  0.09140  0.51100  0.47600  1.0000
  Ge  Ge4       1.0  0.48900  0.90900  0.52400  1.0000
  Ge  Ge5       1.0  0.33200  0.11300  0.74100  1.0000
  Ge  Ge6       1.0  0.49400  0.89900  0.96900  1.0000
  K   K1        1.0  0.56800  0.43200  0.00000  1.0000
  K   K2        1.0  0.05500  0.94500  0.00000  1.0000
  K   K3        1.0  0.29400  0.15700  0.25200  1.0000
  K   K4        1.0  0.41900  0.68900  0.25400  1.0000
  K   K5        1.0  0.58600  0.41400  0.50000  1.0000
  K   K6        1.0  0.99800  0.00250  0.50000  1.0000
  K   K7        1.0  0.31100  0.58100  0.74600  1.0000
  K   K8        1.0  0.84300  0.70600  0.74800  1.0000
  O   O1        1.0  0.35300  0.64700  0.00000  1.0000
  O   O2        1.0  0.10800  0.28800  0.07730  1.0000
  O   O3        1.0  0.48600  0.05310  0.08150  1.0000
  O   O4        1.0  0.06210  0.63200  0.16100  1.0000
  O   O5        1.0  0.90000  0.90100  0.23800  1.0000
  O   O6        1.0  0.65900  0.48200  0.24900  1.0000
  O   O7        1.0  0.09570  0.32600  0.38400  1.0000
  O   O8        1.0  0.54000  0.02850  0.39000  1.0000
  O   O9        1.0  0.99000  0.67000  0.40400  1.0000
  O   O10       1.0  0.34900  0.65100  0.50000  1.0000
  O   O11       1.0  0.33000  0.00995  0.59600  1.0000
  O   O12       1.0  0.97100  0.46000  0.61000  1.0000
  O   O13       1.0  0.67400  0.90400  0.61600  1.0000
  O   O14       1.0  0.51800  0.34100  0.75100  1.0000
  O   O15       1.0  0.09860  0.09980  0.76200  1.0000
  O   O16       1.0  0.36800  0.93800  0.83900  1.0000
  O   O17       1.0  0.94700  0.51400  0.91800  1.0000
  O   O18       1.0  0.71200  0.89200  0.92300  1.0000
