data_image0
_chemical_formula_structural       Ba8Cu4O18Sm4
_chemical_formula_sum              "Ba8 Cu4 O18 Sm4"
_cell_length_a       11.9461
_cell_length_b       11.9461
_cell_length_c       3.849
_cell_angle_alpha    90
_cell_angle_beta     90
_cell_angle_gamma    90

_space_group_name_H-M_alt    "P 1"
_space_group_IT_number       1

loop_
  _space_group_symop_operation_xyz
  'x, y, z'

loop_
  _atom_site_type_symbol
  _atom_site_label
  _atom_site_symmetry_multiplicity
  _atom_site_fract_x
  _atom_site_fract_y
  _atom_site_fract_z
  _atom_site_occupancy
  Ba  Ba1       1.0  0.61200  0.32800  0.24500  1.0000
  Ba  Ba2       1.0  0.38800  0.67200  0.24500  1.0000
  Ba  Ba3       1.0  0.82800  0.11200  0.25500  1.0000
  Ba  Ba4       1.0  0.17200  0.88800  0.25500  1.0000
  Ba  Ba5       1.0  0.11200  0.17200  0.74500  1.0000
  Ba  Ba6       1.0  0.88800  0.82800  0.74500  1.0000
  Ba  Ba7       1.0  0.32800  0.38800  0.75500  1.0000
  Ba  Ba8       1.0  0.67200  0.61200  0.75500  1.0000
  Cu  Cu1       1.0  0.09810  0.40200  0.25000  1.0000
  Cu  Cu2       1.0  0.90200  0.59800  0.25000  1.0000
  Cu  Cu3       1.0  0.59800  0.09810  0.75000  1.0000
  Cu  Cu4       1.0  0.40200  0.90200  0.75000  1.0000
  O   O1        1.0  0.50000  0.50000  0.00000  1.0000
  O   O2        1.0  0.97400  0.29100  0.25000  1.0000
  O   O3        1.0  0.02560  0.70900  0.25000  1.0000
  O   O4        1.0  0.59100  0.09120  0.25000  1.0000
  O   O5        1.0  0.25600  0.24400  0.25000  1.0000
  O   O6        1.0  0.74400  0.75600  0.25000  1.0000
  O   O7        1.0  0.40900  0.90900  0.25000  1.0000
  O   O8        1.0  0.79100  0.47400  0.25000  1.0000
  O   O9        1.0  0.20900  0.52600  0.25000  1.0000
  O   O10       1.0  0.00000  0.00000  0.50000  1.0000
  O   O11       1.0  0.47400  0.20900  0.75000  1.0000
  O   O12       1.0  0.52600  0.79100  0.75000  1.0000
  O   O13       1.0  0.75600  0.25600  0.75000  1.0000
  O   O14       1.0  0.09120  0.40900  0.75000  1.0000
  O   O15       1.0  0.90900  0.59100  0.75000  1.0000
  O   O16       1.0  0.24400  0.74400  0.75000  1.0000
  O   O17       1.0  0.29100  0.02560  0.75000  1.0000
  O   O18       1.0  0.70900  0.97400  0.75000  1.0000
  Sm  Sm1       1.0  0.38900  0.11100  0.25000  1.0000
  Sm  Sm2       1.0  0.61100  0.88900  0.25000  1.0000
  Sm  Sm3       1.0  0.88900  0.38900  0.75000  1.0000
  Sm  Sm4       1.0  0.11100  0.61100  0.75000  1.0000
