data_image0
_chemical_formula_structural       As4Mo4O24Sr2
_chemical_formula_sum              "As4 Mo4 O24 Sr2"
_cell_length_a       6.58626
_cell_length_b       6.78389
_cell_length_c       10.4325
_cell_angle_alpha    90
_cell_angle_beta     92.1121
_cell_angle_gamma    90

_space_group_name_H-M_alt    "P 1"
_space_group_IT_number       1

loop_
  _space_group_symop_operation_xyz
  'x, y, z'

loop_
  _atom_site_type_symbol
  _atom_site_label
  _atom_site_symmetry_multiplicity
  _atom_site_fract_x
  _atom_site_fract_y
  _atom_site_fract_z
  _atom_site_occupancy
  As  As1       1.0  0.25900  0.03490  0.15700  1.0000
  As  As2       1.0  0.74100  0.53500  0.34300  1.0000
  As  As3       1.0  0.25900  0.46500  0.65700  1.0000
  As  As4       1.0  0.74100  0.96500  0.84300  1.0000
  Mo  Mo1       1.0  0.75600  0.95400  0.16500  1.0000
  Mo  Mo2       1.0  0.24400  0.45400  0.33500  1.0000
  Mo  Mo3       1.0  0.75600  0.54600  0.66500  1.0000
  Mo  Mo4       1.0  0.24400  0.04600  0.83500  1.0000
  O   O1        1.0  0.27900  0.18800  0.02900  1.0000
  O   O2        1.0  0.71500  0.18500  0.09560  1.0000
  O   O3        1.0  0.04020  0.89700  0.13500  1.0000
  O   O4        1.0  0.45800  0.87000  0.16300  1.0000
  O   O5        1.0  0.23000  0.51100  0.17300  1.0000
  O   O6        1.0  0.75000  0.63800  0.19400  1.0000
  O   O7        1.0  0.25000  0.13800  0.30600  1.0000
  O   O8        1.0  0.77000  0.01150  0.32700  1.0000
  O   O9        1.0  0.54200  0.37000  0.33700  1.0000
  O   O10       1.0  0.96000  0.39700  0.36500  1.0000
  O   O11       1.0  0.28500  0.68500  0.40400  1.0000
  O   O12       1.0  0.72100  0.68800  0.47100  1.0000
  O   O13       1.0  0.27900  0.31200  0.52900  1.0000
  O   O14       1.0  0.71500  0.31500  0.59600  1.0000
  O   O15       1.0  0.04020  0.60300  0.63500  1.0000
  O   O16       1.0  0.45800  0.63000  0.66300  1.0000
  O   O17       1.0  0.23000  0.98900  0.67300  1.0000
  O   O18       1.0  0.75000  0.86200  0.69400  1.0000
  O   O19       1.0  0.25000  0.36200  0.80600  1.0000
  O   O20       1.0  0.77000  0.48900  0.82700  1.0000
  O   O21       1.0  0.54200  0.13000  0.83700  1.0000
  O   O22       1.0  0.96000  0.10300  0.86500  1.0000
  O   O23       1.0  0.28500  0.81500  0.90400  1.0000
  O   O24       1.0  0.72100  0.81200  0.97100  1.0000
  Sr  Sr1       1.0  0.50000  0.50000  0.00000  1.0000
  Sr  Sr2       1.0  0.50000  0.00000  0.50000  1.0000
