data_image0
_chemical_formula_structural       C8Cd2Cl4H16N4
_chemical_formula_sum              "C8 Cd2 Cl4 H16 N4"
_cell_length_a       7.05032
_cell_length_b       7.6523
_cell_length_c       7.6523
_cell_angle_alpha    110.171
_cell_angle_beta     90.6266
_cell_angle_gamma    90.6266

_space_group_name_H-M_alt    "P 1"
_space_group_IT_number       1

loop_
  _space_group_symop_operation_xyz
  'x, y, z'

loop_
  _atom_site_type_symbol
  _atom_site_label
  _atom_site_symmetry_multiplicity
  _atom_site_fract_x
  _atom_site_fract_y
  _atom_site_fract_z
  _atom_site_occupancy
  C   C1        1.0  0.83200  0.51600  0.11300  1.0000
  C   C2        1.0  0.06970  0.58200  0.19100  1.0000
  C   C3        1.0  0.43000  0.80900  0.41800  1.0000
  C   C4        1.0  0.66800  0.88700  0.48400  1.0000
  C   C5        1.0  0.33200  0.11300  0.51600  1.0000
  C   C6        1.0  0.57000  0.19100  0.58200  1.0000
  C   C7        1.0  0.93000  0.41800  0.80900  1.0000
  C   C8        1.0  0.16800  0.48400  0.88700  1.0000
  Cd  Cd1       1.0  0.25000  0.93100  0.06850  1.0000
  Cd  Cd2       1.0  0.75000  0.06850  0.93100  1.0000
  Cl  Cl1       1.0  0.44200  0.24200  0.11400  1.0000
  Cl  Cl2       1.0  0.94200  0.11400  0.24200  1.0000
  Cl  Cl3       1.0  0.05810  0.88600  0.75800  1.0000
  Cl  Cl4       1.0  0.55800  0.75800  0.88600  1.0000
  H   H1        1.0  0.77800  0.64700  0.10500  1.0000
  H   H2        1.0  0.11700  0.45300  0.21200  1.0000
  H   H3        1.0  0.77300  0.47500  0.22500  1.0000
  H   H4        1.0  0.44700  0.67900  0.30100  1.0000
  H   H5        1.0  0.05270  0.69900  0.32100  1.0000
  H   H6        1.0  0.72200  0.89500  0.35300  1.0000
  H   H7        1.0  0.61700  0.21200  0.45300  1.0000
  H   H8        1.0  0.27300  0.22500  0.47500  1.0000
  H   H9        1.0  0.72700  0.77500  0.52500  1.0000
  H   H10       1.0  0.38300  0.78800  0.54700  1.0000
  H   H11       1.0  0.27800  0.10500  0.64700  1.0000
  H   H12       1.0  0.94700  0.30100  0.67900  1.0000
  H   H13       1.0  0.55300  0.32100  0.69900  1.0000
  H   H14       1.0  0.22700  0.52500  0.77500  1.0000
  H   H15       1.0  0.88300  0.54700  0.78800  1.0000
  H   H16       1.0  0.22200  0.35300  0.89500  1.0000
  N   N1        1.0  0.14700  0.62700  0.05000  1.0000
  N   N2        1.0  0.35300  0.95000  0.37300  1.0000
  N   N3        1.0  0.64700  0.05000  0.62700  1.0000
  N   N4        1.0  0.85300  0.37300  0.95000  1.0000
