data_image0
_chemical_formula_structural       Ce4Pd28Si2
_chemical_formula_sum              "Ce4 Pd28 Si2"
_cell_length_a       8.96387
_cell_length_b       8.96387
_cell_length_c       7.08971
_cell_angle_alpha    90
_cell_angle_beta     90
_cell_angle_gamma    90

_space_group_name_H-M_alt    "P 1"
_space_group_IT_number       1

loop_
  _space_group_symop_operation_xyz
  'x, y, z'

loop_
  _atom_site_type_symbol
  _atom_site_label
  _atom_site_symmetry_multiplicity
  _atom_site_fract_x
  _atom_site_fract_y
  _atom_site_fract_z
  _atom_site_occupancy
  Ce  Ce1       1.0  0.25000  0.25000  0.06340  1.0000
  Ce  Ce2       1.0  0.75000  0.25000  0.50000  1.0000
  Ce  Ce3       1.0  0.25000  0.75000  0.50000  1.0000
  Ce  Ce4       1.0  0.75000  0.75000  0.93700  1.0000
  Pd  Pd1       1.0  0.00000  0.00000  0.00000  1.0000
  Pd  Pd2       1.0  0.50000  0.00000  0.00000  1.0000
  Pd  Pd3       1.0  0.00000  0.50000  0.00000  1.0000
  Pd  Pd4       1.0  0.50000  0.50000  0.00000  1.0000
  Pd  Pd5       1.0  0.59800  0.25000  0.14200  1.0000
  Pd  Pd6       1.0  0.90200  0.25000  0.14200  1.0000
  Pd  Pd7       1.0  0.25000  0.59800  0.14200  1.0000
  Pd  Pd8       1.0  0.25000  0.90200  0.14200  1.0000
  Pd  Pd9       1.0  0.75000  0.52100  0.25900  1.0000
  Pd  Pd10      1.0  0.52100  0.75000  0.25900  1.0000
  Pd  Pd11      1.0  0.97900  0.75000  0.25900  1.0000
  Pd  Pd12      1.0  0.75000  0.97900  0.25900  1.0000
  Pd  Pd13      1.0  0.08360  0.08360  0.38500  1.0000
  Pd  Pd14      1.0  0.41600  0.08360  0.38500  1.0000
  Pd  Pd15      1.0  0.08360  0.41600  0.38500  1.0000
  Pd  Pd16      1.0  0.41600  0.41600  0.38500  1.0000
  Pd  Pd17      1.0  0.58400  0.58400  0.61500  1.0000
  Pd  Pd18      1.0  0.91600  0.58400  0.61500  1.0000
  Pd  Pd19      1.0  0.58400  0.91600  0.61500  1.0000
  Pd  Pd20      1.0  0.91600  0.91600  0.61500  1.0000
  Pd  Pd21      1.0  0.25000  0.02060  0.74100  1.0000
  Pd  Pd22      1.0  0.02060  0.25000  0.74100  1.0000
  Pd  Pd23      1.0  0.47900  0.25000  0.74100  1.0000
  Pd  Pd24      1.0  0.25000  0.47900  0.74100  1.0000
  Pd  Pd25      1.0  0.75000  0.09800  0.85800  1.0000
  Pd  Pd26      1.0  0.75000  0.40200  0.85800  1.0000
  Pd  Pd27      1.0  0.09800  0.75000  0.85800  1.0000
  Pd  Pd28      1.0  0.40200  0.75000  0.85800  1.0000
  Si  Si1       1.0  0.75000  0.75000  0.45000  1.0000
  Si  Si2       1.0  0.25000  0.25000  0.55000  1.0000
