data_image0
_chemical_formula_structural       Sb24Te9
_chemical_formula_sum              "Sb24 Te9"
_cell_length_a       4.3658
_cell_length_b       4.36581
_cell_length_c       64.6029
_cell_angle_alpha    90
_cell_angle_beta     90
_cell_angle_gamma    120

_space_group_name_H-M_alt    "P 1"
_space_group_IT_number       1

loop_
  _space_group_symop_operation_xyz
  'x, y, z'

loop_
  _atom_site_type_symbol
  _atom_site_label
  _atom_site_symmetry_multiplicity
  _atom_site_fract_x
  _atom_site_fract_y
  _atom_site_fract_z
  _atom_site_occupancy
  Sb  Sb1       1.0  0.33300  0.66700  0.03040  1.0000
  Sb  Sb2       1.0  0.00000  0.00000  0.09520  1.0000
  Sb  Sb3       1.0  0.33300  0.66700  0.11900  1.0000
  Sb  Sb4       1.0  0.66700  0.33300  0.15500  1.0000
  Sb  Sb5       1.0  0.00000  0.00000  0.17900  1.0000
  Sb  Sb6       1.0  0.33300  0.66700  0.21400  1.0000
  Sb  Sb7       1.0  0.66700  0.33300  0.23800  1.0000
  Sb  Sb8       1.0  0.33300  0.66700  0.30300  1.0000
  Sb  Sb9       1.0  0.00000  0.00000  0.36400  1.0000
  Sb  Sb10      1.0  0.66700  0.33300  0.42900  1.0000
  Sb  Sb11      1.0  0.00000  0.00000  0.45200  1.0000
  Sb  Sb12      1.0  0.33300  0.66700  0.48800  1.0000
  Sb  Sb13      1.0  0.66700  0.33300  0.51200  1.0000
  Sb  Sb14      1.0  0.00000  0.00000  0.54800  1.0000
  Sb  Sb15      1.0  0.33300  0.66700  0.57100  1.0000
  Sb  Sb16      1.0  0.00000  0.00000  0.63600  1.0000
  Sb  Sb17      1.0  0.66700  0.33300  0.69700  1.0000
  Sb  Sb18      1.0  0.33300  0.66700  0.76200  1.0000
  Sb  Sb19      1.0  0.66700  0.33300  0.78600  1.0000
  Sb  Sb20      1.0  0.00000  0.00000  0.82100  1.0000
  Sb  Sb21      1.0  0.33300  0.66700  0.84500  1.0000
  Sb  Sb22      1.0  0.66700  0.33300  0.88100  1.0000
  Sb  Sb23      1.0  0.00000  0.00000  0.90500  1.0000
  Sb  Sb24      1.0  0.66700  0.33300  0.97000  1.0000
  Te  Te1       1.0  0.00000  0.00000  0.00000  1.0000
  Te  Te2       1.0  0.66700  0.33300  0.05680  1.0000
  Te  Te3       1.0  0.00000  0.00000  0.27700  1.0000
  Te  Te4       1.0  0.66700  0.33300  0.33300  1.0000
  Te  Te5       1.0  0.33300  0.66700  0.39000  1.0000
  Te  Te6       1.0  0.66700  0.33300  0.61000  1.0000
  Te  Te7       1.0  0.33300  0.66700  0.66700  1.0000
  Te  Te8       1.0  0.00000  0.00000  0.72300  1.0000
  Te  Te9       1.0  0.33300  0.66700  0.94300  1.0000
