data_image0
_chemical_formula_structural       B6K2O18Sr8
_chemical_formula_sum              "B6 K2 O18 Sr8"
_cell_length_a       6.86911
_cell_length_b       6.8734
_cell_length_c       11.0248
_cell_angle_alpha    90
_cell_angle_beta     90
_cell_angle_gamma    119.979

_space_group_name_H-M_alt    "P 1"
_space_group_IT_number       1

loop_
  _space_group_symop_operation_xyz
  'x, y, z'

loop_
  _atom_site_type_symbol
  _atom_site_label
  _atom_site_symmetry_multiplicity
  _atom_site_fract_x
  _atom_site_fract_y
  _atom_site_fract_z
  _atom_site_occupancy
  B   B1        1.0  0.28800  0.00000  0.00000  1.0000
  B   B2        1.0  0.86700  0.25000  0.25000  1.0000
  B   B3        1.0  0.69200  0.66200  0.25000  1.0000
  B   B4        1.0  0.28800  0.00000  0.50000  1.0000
  B   B5        1.0  0.02950  0.33800  0.75000  1.0000
  B   B6        1.0  0.61700  0.75000  0.75000  1.0000
  K   K1        1.0  0.25600  0.16800  0.25000  1.0000
  K   K2        1.0  0.08800  0.83200  0.75000  1.0000
  O   O1        1.0  0.08760  0.00000  0.00000  1.0000
  O   O2        1.0  0.29000  0.80200  0.02470  1.0000
  O   O3        1.0  0.99000  0.33000  0.14100  1.0000
  O   O4        1.0  0.57300  0.62900  0.14200  1.0000
  O   O5        1.0  0.64200  0.09610  0.25000  1.0000
  O   O6        1.0  0.91300  0.71100  0.25000  1.0000
  O   O7        1.0  0.57300  0.62900  0.35800  1.0000
  O   O8        1.0  0.99000  0.33000  0.35900  1.0000
  O   O9        1.0  0.29000  0.80200  0.47500  1.0000
  O   O10       1.0  0.08760  0.00000  0.50000  1.0000
  O   O11       1.0  0.48800  0.19800  0.52500  1.0000
  O   O12       1.0  0.66000  0.67000  0.64100  1.0000
  O   O13       1.0  0.94400  0.37100  0.64200  1.0000
  O   O14       1.0  0.20100  0.28900  0.75000  1.0000
  O   O15       1.0  0.54500  0.90400  0.75000  1.0000
  O   O16       1.0  0.94400  0.37100  0.85800  1.0000
  O   O17       1.0  0.66000  0.67000  0.85900  1.0000
  O   O18       1.0  0.48800  0.19800  0.97500  1.0000
  Sr  Sr1       1.0  0.71800  0.00000  0.00000  1.0000
  Sr  Sr2       1.0  0.85600  0.57000  0.02970  1.0000
  Sr  Sr3       1.0  0.29300  0.71000  0.25000  1.0000
  Sr  Sr4       1.0  0.85600  0.57000  0.47000  1.0000
  Sr  Sr5       1.0  0.71800  0.00000  0.50000  1.0000
  Sr  Sr6       1.0  0.28700  0.43000  0.53000  1.0000
  Sr  Sr7       1.0  0.58300  0.29000  0.75000  1.0000
  Sr  Sr8       1.0  0.28700  0.43000  0.97000  1.0000
