data_image0
_chemical_formula_structural       Co2Na4O20Si8
_chemical_formula_sum              "Co2 Na4 O20 Si8"
_cell_length_a       10.6479
_cell_length_b       7.74811
_cell_length_c       6.92035
_cell_angle_alpha    117.608
_cell_angle_beta     116.562
_cell_angle_gamma    93.3515

_space_group_name_H-M_alt    "P 1"
_space_group_IT_number       1

loop_
  _space_group_symop_operation_xyz
  'x, y, z'

loop_
  _atom_site_type_symbol
  _atom_site_label
  _atom_site_symmetry_multiplicity
  _atom_site_fract_x
  _atom_site_fract_y
  _atom_site_fract_z
  _atom_site_occupancy
  Co  Co1       1.0  0.42200  0.30500  0.48500  1.0000
  Co  Co2       1.0  0.57800  0.69500  0.51500  1.0000
  Na  Na1       1.0  0.57600  0.73000  0.04220  1.0000
  Na  Na2       1.0  0.98300  0.75900  0.08040  1.0000
  Na  Na3       1.0  0.01650  0.24100  0.92000  1.0000
  Na  Na4       1.0  0.42400  0.27000  0.95800  1.0000
  O   O1        1.0  0.19500  0.79800  0.00721  1.0000
  O   O2        1.0  0.27500  0.18400  0.10700  1.0000
  O   O3        1.0  0.41900  0.64700  0.17200  1.0000
  O   O4        1.0  0.86300  0.60900  0.21300  1.0000
  O   O5        1.0  0.18100  0.62700  0.23400  1.0000
  O   O6        1.0  0.72300  0.13600  0.27000  1.0000
  O   O7        1.0  0.97900  0.09200  0.29600  1.0000
  O   O8        1.0  0.58000  0.39200  0.40600  1.0000
  O   O9        1.0  0.13400  0.45400  0.44100  1.0000
  O   O10       1.0  0.72500  0.80100  0.45400  1.0000
  O   O11       1.0  0.27500  0.19900  0.54600  1.0000
  O   O12       1.0  0.86600  0.54600  0.55900  1.0000
  O   O13       1.0  0.42000  0.60800  0.59400  1.0000
  O   O14       1.0  0.02120  0.90800  0.70400  1.0000
  O   O15       1.0  0.27700  0.86400  0.73000  1.0000
  O   O16       1.0  0.81900  0.37300  0.76600  1.0000
  O   O17       1.0  0.13700  0.39100  0.78700  1.0000
  O   O18       1.0  0.58100  0.35300  0.82800  1.0000
  O   O19       1.0  0.72500  0.81600  0.89300  1.0000
  O   O20       1.0  0.80500  0.20200  0.99300  1.0000
  Si  Si1       1.0  0.24700  0.62000  0.05670  1.0000
  Si  Si2       1.0  0.80300  0.05690  0.10400  1.0000
  Si  Si3       1.0  0.86100  0.71800  0.48100  1.0000
  Si  Si4       1.0  0.73900  0.36200  0.49300  1.0000
  Si  Si5       1.0  0.26100  0.63800  0.50700  1.0000
  Si  Si6       1.0  0.13900  0.28200  0.51900  1.0000
  Si  Si7       1.0  0.19700  0.94300  0.89600  1.0000
  Si  Si8       1.0  0.75300  0.38000  0.94300  1.0000
