data_image0
_chemical_formula_structural       Na4Ni2O20Si8
_chemical_formula_sum              "Na4 Ni2 O20 Si8"
_cell_length_a       10.6065
_cell_length_b       7.68208
_cell_length_c       6.92641
_cell_angle_alpha    118.033
_cell_angle_beta     116.524
_cell_angle_gamma    93.1218

_space_group_name_H-M_alt    "P 1"
_space_group_IT_number       1

loop_
  _space_group_symop_operation_xyz
  'x, y, z'

loop_
  _atom_site_type_symbol
  _atom_site_label
  _atom_site_symmetry_multiplicity
  _atom_site_fract_x
  _atom_site_fract_y
  _atom_site_fract_z
  _atom_site_occupancy
  Na  Na1       1.0  0.57800  0.73000  0.04940  1.0000
  Na  Na2       1.0  0.98000  0.75300  0.06850  1.0000
  Na  Na3       1.0  0.01970  0.24700  0.93100  1.0000
  Na  Na4       1.0  0.42200  0.27000  0.95100  1.0000
  Ni  Ni1       1.0  0.42300  0.31400  0.48400  1.0000
  Ni  Ni2       1.0  0.57700  0.68600  0.51600  1.0000
  O   O1        1.0  0.20100  0.80300  0.01070  1.0000
  O   O2        1.0  0.27000  0.19500  0.11300  1.0000
  O   O3        1.0  0.42200  0.64600  0.18000  1.0000
  O   O4        1.0  0.86100  0.60800  0.21100  1.0000
  O   O5        1.0  0.18400  0.63500  0.23900  1.0000
  O   O6        1.0  0.72000  0.12100  0.26400  1.0000
  O   O7        1.0  0.98000  0.09370  0.29500  1.0000
  O   O8        1.0  0.57700  0.38400  0.39800  1.0000
  O   O9        1.0  0.13500  0.46600  0.45000  1.0000
  O   O10       1.0  0.72200  0.79200  0.45700  1.0000
  O   O11       1.0  0.27800  0.20800  0.54300  1.0000
  O   O12       1.0  0.86500  0.53400  0.55000  1.0000
  O   O13       1.0  0.42300  0.61600  0.60200  1.0000
  O   O14       1.0  0.01950  0.90600  0.70500  1.0000
  O   O15       1.0  0.28000  0.87900  0.73600  1.0000
  O   O16       1.0  0.81600  0.36500  0.76100  1.0000
  O   O17       1.0  0.13900  0.39200  0.78900  1.0000
  O   O18       1.0  0.57800  0.35400  0.82000  1.0000
  O   O19       1.0  0.73000  0.80500  0.88700  1.0000
  O   O20       1.0  0.79900  0.19700  0.98900  1.0000
  Si  Si1       1.0  0.25100  0.62300  0.06110  1.0000
  Si  Si2       1.0  0.80200  0.04930  0.09930  1.0000
  Si  Si3       1.0  0.86000  0.71300  0.48000  1.0000
  Si  Si4       1.0  0.73700  0.35200  0.48700  1.0000
  Si  Si5       1.0  0.26300  0.64800  0.51300  1.0000
  Si  Si6       1.0  0.14000  0.28700  0.52000  1.0000
  Si  Si7       1.0  0.19800  0.95100  0.90100  1.0000
  Si  Si8       1.0  0.74900  0.37700  0.93900  1.0000
