data_image0
_chemical_formula_structural       B6Ca8K2O18
_chemical_formula_sum              "B6 Ca8 K2 O18"
_cell_length_a       6.49608
_cell_length_b       6.57803
_cell_length_c       10.5739
_cell_angle_alpha    90
_cell_angle_beta     90
_cell_angle_gamma    119.589

_space_group_name_H-M_alt    "P 1"
_space_group_IT_number       1

loop_
  _space_group_symop_operation_xyz
  'x, y, z'

loop_
  _atom_site_type_symbol
  _atom_site_label
  _atom_site_symmetry_multiplicity
  _atom_site_fract_x
  _atom_site_fract_y
  _atom_site_fract_z
  _atom_site_occupancy
  B   B1        1.0  0.29200  0.00000  0.00000  1.0000
  B   B2        1.0  0.86400  0.24100  0.25000  1.0000
  B   B3        1.0  0.69600  0.65300  0.25000  1.0000
  B   B4        1.0  0.29200  0.00000  0.50000  1.0000
  B   B5        1.0  0.04310  0.34700  0.75000  1.0000
  B   B6        1.0  0.62300  0.75900  0.75000  1.0000
  Ca  Ca1       1.0  0.71900  0.00000  0.00000  1.0000
  Ca  Ca2       1.0  0.86400  0.57200  0.02890  1.0000
  Ca  Ca3       1.0  0.29400  0.69400  0.25000  1.0000
  Ca  Ca4       1.0  0.86400  0.57200  0.47100  1.0000
  Ca  Ca5       1.0  0.71900  0.00000  0.50000  1.0000
  Ca  Ca6       1.0  0.29200  0.42800  0.52900  1.0000
  Ca  Ca7       1.0  0.60000  0.30600  0.75000  1.0000
  Ca  Ca8       1.0  0.29200  0.42800  0.97100  1.0000
  K   K1        1.0  0.26800  0.16200  0.25000  1.0000
  K   K2        1.0  0.10600  0.83800  0.75000  1.0000
  O   O1        1.0  0.08070  0.00000  0.00000  1.0000
  O   O2        1.0  0.29500  0.79500  0.02620  1.0000
  O   O3        1.0  0.99000  0.33100  0.13700  1.0000
  O   O4        1.0  0.57200  0.61700  0.13700  1.0000
  O   O5        1.0  0.63300  0.06710  0.25000  1.0000
  O   O6        1.0  0.92800  0.70400  0.25000  1.0000
  O   O7        1.0  0.57200  0.61700  0.36300  1.0000
  O   O8        1.0  0.99000  0.33100  0.36300  1.0000
  O   O9        1.0  0.29500  0.79500  0.47400  1.0000
  O   O10       1.0  0.08070  0.00000  0.50000  1.0000
  O   O11       1.0  0.50000  0.20500  0.52600  1.0000
  O   O12       1.0  0.65900  0.66900  0.63700  1.0000
  O   O13       1.0  0.95500  0.38300  0.63700  1.0000
  O   O14       1.0  0.22400  0.29600  0.75000  1.0000
  O   O15       1.0  0.56600  0.93300  0.75000  1.0000
  O   O16       1.0  0.95500  0.38300  0.86300  1.0000
  O   O17       1.0  0.65900  0.66900  0.86300  1.0000
  O   O18       1.0  0.50000  0.20500  0.97400  1.0000
