data_image0
_chemical_formula_structural       Na4Nb8O22
_chemical_formula_sum              "Na4 Nb8 O22"
_cell_length_a       6.16248
_cell_length_b       6.16248
_cell_length_c       12.6954
_cell_angle_alpha    75.8988
_cell_angle_beta     104.101
_cell_angle_gamma    120.126

_space_group_name_H-M_alt    "P 1"
_space_group_IT_number       1

loop_
  _space_group_symop_operation_xyz
  'x, y, z'

loop_
  _atom_site_type_symbol
  _atom_site_label
  _atom_site_symmetry_multiplicity
  _atom_site_fract_x
  _atom_site_fract_y
  _atom_site_fract_z
  _atom_site_occupancy
  Na  Na1       1.0  0.33100  0.16900  0.99500  1.0000
  Na  Na2       1.0  0.16900  0.33100  0.50500  1.0000
  Na  Na3       1.0  0.66900  0.83100  0.00481  1.0000
  Na  Na4       1.0  0.83100  0.66900  0.49500  1.0000
  Nb  Nb1       1.0  0.50000  0.00000  0.50000  1.0000
  Nb  Nb2       1.0  0.00000  0.50000  1.00000  1.0000
  Nb  Nb3       1.0  0.12100  0.12100  0.25000  1.0000
  Nb  Nb4       1.0  0.87900  0.87900  0.75000  1.0000
  Nb  Nb5       1.0  0.75000  0.37800  0.25000  1.0000
  Nb  Nb6       1.0  0.37800  0.75000  0.25000  1.0000
  Nb  Nb7       1.0  0.25000  0.62200  0.75000  1.0000
  Nb  Nb8       1.0  0.62200  0.25000  0.75000  1.0000
  O   O1        1.0  0.49100  0.49100  0.25000  1.0000
  O   O2        1.0  0.50900  0.50900  0.75000  1.0000
  O   O3        1.0  0.40200  0.09760  0.20700  1.0000
  O   O4        1.0  0.09760  0.40200  0.29300  1.0000
  O   O5        1.0  0.59800  0.90200  0.79300  1.0000
  O   O6        1.0  0.90200  0.59800  0.70700  1.0000
  O   O7        1.0  0.00790  0.75000  0.25000  1.0000
  O   O8        1.0  0.75000  0.00790  0.25000  1.0000
  O   O9        1.0  0.99200  0.25000  0.75000  1.0000
  O   O10       1.0  0.25000  0.99200  0.75000  1.0000
  O   O11       1.0  0.20600  0.04230  0.41000  1.0000
  O   O12       1.0  0.04230  0.20600  0.08980  1.0000
  O   O13       1.0  0.79400  0.95800  0.59000  1.0000
  O   O14       1.0  0.95800  0.79400  0.91000  1.0000
  O   O15       1.0  0.75400  0.45700  0.08980  1.0000
  O   O16       1.0  0.45700  0.75400  0.41000  1.0000
  O   O17       1.0  0.24600  0.54300  0.91000  1.0000
  O   O18       1.0  0.54300  0.24600  0.59000  1.0000
  O   O19       1.0  0.74700  0.29400  0.41000  1.0000
  O   O20       1.0  0.29400  0.74700  0.08980  1.0000
  O   O21       1.0  0.25300  0.70600  0.59000  1.0000
  O   O22       1.0  0.70600  0.25300  0.91000  1.0000
