data_image0
_chemical_formula_structural       MgO5
_chemical_formula_sum              "Mg1 O5"
_cell_length_a       2.94796
_cell_length_b       2.94796
_cell_length_c       7.77529
_cell_angle_alpha    90
_cell_angle_beta     90
_cell_angle_gamma    120

_space_group_name_H-M_alt    "P 1"
_space_group_IT_number       1

loop_
  _space_group_symop_operation_xyz
  'x, y, z'

loop_
  _atom_site_type_symbol
  _atom_site_label
  _atom_site_symmetry_multiplicity
  _atom_site_fract_x
  _atom_site_fract_y
  _atom_site_fract_z
  _atom_site_occupancy
  Mg  Mg1       1.0  0.66700  0.33300  0.83300  1.0000
  O   O1        1.0  0.66700  0.33300  0.18900  1.0000
  O   O2        1.0  0.00000  0.00000  0.33300  1.0000
  O   O3        1.0  0.66700  0.33300  0.47800  1.0000
  O   O4        1.0  0.00000  0.00000  0.72600  1.0000
  O   O5        1.0  0.00000  0.00000  0.94100  1.0000
