data_image0
_chemical_formula_structural       LiN3
_chemical_formula_sum              "Li1 N3"
_cell_length_a       3.13664
_cell_length_b       3.13664
_cell_length_c       4.86942
_cell_angle_alpha    103.626
_cell_angle_beta     103.626
_cell_angle_gamma    60.8258

_space_group_name_H-M_alt    "P 1"
_space_group_IT_number       1

loop_
  _space_group_symop_operation_xyz
  'x, y, z'

loop_
  _atom_site_type_symbol
  _atom_site_label
  _atom_site_symmetry_multiplicity
  _atom_site_fract_x
  _atom_site_fract_y
  _atom_site_fract_z
  _atom_site_occupancy
  Li  Li1       1.0  0.00000  0.00000  0.00000  1.0000
  N   N1        1.0  0.39200  0.39200  0.25400  1.0000
  N   N2        1.0  0.50000  0.50000  0.50000  1.0000
  N   N3        1.0  0.60800  0.60800  0.74600  1.0000
