data_image0
_chemical_formula_structural       C8F6H18Si2
_chemical_formula_sum              "C8 F6 H18 Si2"
_cell_length_a       5.78158
_cell_length_b       9.01751
_cell_length_c       6.05519
_cell_angle_alpha    90
_cell_angle_beta     105.748
_cell_angle_gamma    90

_space_group_name_H-M_alt    "P 1"
_space_group_IT_number       1

loop_
  _space_group_symop_operation_xyz
  'x, y, z'

loop_
  _atom_site_type_symbol
  _atom_site_label
  _atom_site_symmetry_multiplicity
  _atom_site_fract_x
  _atom_site_fract_y
  _atom_site_fract_z
  _atom_site_occupancy
  C   C1        1.0  0.19000  0.25000  0.08430  1.0000
  C   C2        1.0  0.63900  0.57800  0.27000  1.0000
  C   C3        1.0  0.63900  0.92200  0.27000  1.0000
  C   C4        1.0  0.11900  0.75000  0.40000  1.0000
  C   C5        1.0  0.88100  0.25000  0.60000  1.0000
  C   C6        1.0  0.36100  0.07770  0.73000  1.0000
  C   C7        1.0  0.36100  0.42200  0.73000  1.0000
  C   C8        1.0  0.81000  0.75000  0.91600  1.0000
  F   F1        1.0  0.07210  0.12800  0.14100  1.0000
  F   F2        1.0  0.07210  0.37200  0.14100  1.0000
  F   F3        1.0  0.41400  0.25000  0.23900  1.0000
  F   F4        1.0  0.58600  0.75000  0.76100  1.0000
  F   F5        1.0  0.92800  0.62800  0.85900  1.0000
  F   F6        1.0  0.92800  0.87200  0.85900  1.0000
  H   H1        1.0  0.45200  0.57900  0.16500  1.0000
  H   H2        1.0  0.45200  0.92100  0.16500  1.0000
  H   H3        1.0  0.72800  0.02020  0.22400  1.0000
  H   H4        1.0  0.72800  0.48000  0.22400  1.0000
  H   H5        1.0  0.21300  0.65100  0.36300  1.0000
  H   H6        1.0  0.21300  0.84900  0.36300  1.0000
  H   H7        1.0  0.86800  0.25000  0.41600  1.0000
  H   H8        1.0  0.64000  0.56700  0.45000  1.0000
  H   H9        1.0  0.64000  0.93300  0.45000  1.0000
  H   H10       1.0  0.36000  0.06740  0.55000  1.0000
  H   H11       1.0  0.36000  0.43300  0.55000  1.0000
  H   H12       1.0  0.13200  0.75000  0.58400  1.0000
  H   H13       1.0  0.78700  0.15100  0.63700  1.0000
  H   H14       1.0  0.78700  0.34900  0.63700  1.0000
  H   H15       1.0  0.27200  0.52000  0.77600  1.0000
  H   H16       1.0  0.27200  0.98000  0.77600  1.0000
  H   H17       1.0  0.54800  0.07880  0.83500  1.0000
  H   H18       1.0  0.54800  0.42100  0.83500  1.0000
  Si  Si1       1.0  0.80000  0.75000  0.23300  1.0000
  Si  Si2       1.0  0.20000  0.25000  0.76700  1.0000
