data_image0
_chemical_formula_structural       B6Ca8Na2O18
_chemical_formula_sum              "B6 Ca8 Na2 O18"
_cell_length_a       6.44696
_cell_length_b       6.44492
_cell_length_c       10.6317
_cell_angle_alpha    90
_cell_angle_beta     90
_cell_angle_gamma    120.01

_space_group_name_H-M_alt    "P 1"
_space_group_IT_number       1

loop_
  _space_group_symop_operation_xyz
  'x, y, z'

loop_
  _atom_site_type_symbol
  _atom_site_label
  _atom_site_symmetry_multiplicity
  _atom_site_fract_x
  _atom_site_fract_y
  _atom_site_fract_z
  _atom_site_occupancy
  B   B1        1.0  0.29400  0.00000  0.00000  1.0000
  B   B2        1.0  0.85200  0.24200  0.25000  1.0000
  B   B3        1.0  0.69900  0.65600  0.25000  1.0000
  B   B4        1.0  0.29400  0.00000  0.50000  1.0000
  B   B5        1.0  0.04250  0.34400  0.75000  1.0000
  B   B6        1.0  0.61000  0.75800  0.75000  1.0000
  Ca  Ca1       1.0  0.71800  0.00000  0.00000  1.0000
  Ca  Ca2       1.0  0.86400  0.57200  0.02820  1.0000
  Ca  Ca3       1.0  0.29300  0.69900  0.25000  1.0000
  Ca  Ca4       1.0  0.86400  0.57200  0.47200  1.0000
  Ca  Ca5       1.0  0.71800  0.00000  0.50000  1.0000
  Ca  Ca6       1.0  0.29200  0.42800  0.52800  1.0000
  Ca  Ca7       1.0  0.59400  0.30100  0.75000  1.0000
  Ca  Ca8       1.0  0.29200  0.42800  0.97200  1.0000
  Na  Na1       1.0  0.23000  0.15400  0.25000  1.0000
  Na  Na2       1.0  0.07620  0.84600  0.75000  1.0000
  O   O1        1.0  0.08140  0.00000  0.00000  1.0000
  O   O2        1.0  0.29600  0.79100  0.02760  1.0000
  O   O3        1.0  0.57300  0.61800  0.13800  1.0000
  O   O4        1.0  0.98600  0.32100  0.13800  1.0000
  O   O5        1.0  0.61000  0.09050  0.25000  1.0000
  O   O6        1.0  0.93800  0.72400  0.25000  1.0000
  O   O7        1.0  0.98600  0.32100  0.36200  1.0000
  O   O8        1.0  0.57300  0.61800  0.36200  1.0000
  O   O9        1.0  0.29600  0.79100  0.47200  1.0000
  O   O10       1.0  0.08140  0.00000  0.50000  1.0000
  O   O11       1.0  0.50500  0.20900  0.52800  1.0000
  O   O12       1.0  0.95500  0.38200  0.63800  1.0000
  O   O13       1.0  0.66500  0.67900  0.63800  1.0000
  O   O14       1.0  0.21500  0.27600  0.75000  1.0000
  O   O15       1.0  0.51900  0.91000  0.75000  1.0000
  O   O16       1.0  0.66500  0.67900  0.86200  1.0000
  O   O17       1.0  0.95500  0.38200  0.86200  1.0000
  O   O18       1.0  0.50500  0.20900  0.97200  1.0000
