data_image0
_chemical_formula_structural       Cu2F8H16N4O4
_chemical_formula_sum              "Cu2 F8 H16 N4 O4"
_cell_length_a       7.69334
_cell_length_b       5.61055
_cell_length_c       5.54918
_cell_angle_alpha    90
_cell_angle_beta     94.4207
_cell_angle_gamma    90

_space_group_name_H-M_alt    "P 1"
_space_group_IT_number       1

loop_
  _space_group_symop_operation_xyz
  'x, y, z'

loop_
  _atom_site_type_symbol
  _atom_site_label
  _atom_site_symmetry_multiplicity
  _atom_site_fract_x
  _atom_site_fract_y
  _atom_site_fract_z
  _atom_site_occupancy
  Cu  Cu1       1.0  0.00000  0.00000  0.00000  1.0000
  Cu  Cu2       1.0  0.00000  0.50000  0.50000  1.0000
  F   F1        1.0  0.26200  0.95300  0.03770  1.0000
  F   F2        1.0  0.01440  0.27000  0.22100  1.0000
  F   F3        1.0  0.98600  0.77000  0.27900  1.0000
  F   F4        1.0  0.73800  0.45300  0.46200  1.0000
  F   F5        1.0  0.26200  0.54700  0.53800  1.0000
  F   F6        1.0  0.01440  0.23000  0.72100  1.0000
  F   F7        1.0  0.98600  0.73000  0.77900  1.0000
  F   F8        1.0  0.73800  0.04660  0.96200  1.0000
  H   H1        1.0  0.27600  0.67300  0.03020  1.0000
  H   H2        1.0  0.16700  0.40600  0.04550  1.0000
  H   H3        1.0  0.63100  0.95900  0.15100  1.0000
  H   H4        1.0  0.67400  0.55400  0.15100  1.0000
  H   H5        1.0  0.32600  0.05370  0.34900  1.0000
  H   H6        1.0  0.36900  0.45900  0.34900  1.0000
  H   H7        1.0  0.83300  0.90600  0.45500  1.0000
  H   H8        1.0  0.72400  0.17300  0.47000  1.0000
  H   H9        1.0  0.27600  0.82700  0.53000  1.0000
  H   H10       1.0  0.16700  0.09410  0.54500  1.0000
  H   H11       1.0  0.63100  0.54100  0.65100  1.0000
  H   H12       1.0  0.67400  0.94600  0.65100  1.0000
  H   H13       1.0  0.32600  0.44600  0.84900  1.0000
  H   H14       1.0  0.36900  0.04070  0.84900  1.0000
  H   H15       1.0  0.83300  0.59400  0.95500  1.0000
  H   H16       1.0  0.72400  0.32700  0.97000  1.0000
  N   N1        1.0  0.28600  0.48600  0.01820  1.0000
  N   N2        1.0  0.71400  0.98600  0.48200  1.0000
  N   N3        1.0  0.28600  0.01430  0.51800  1.0000
  N   N4        1.0  0.71400  0.51400  0.98200  1.0000
  O   O1        1.0  0.41500  0.40000  0.19300  1.0000
  O   O2        1.0  0.58500  0.90000  0.30700  1.0000
  O   O3        1.0  0.41500  0.10000  0.69300  1.0000
  O   O4        1.0  0.58500  0.60000  0.80700  1.0000
