data_image0
_chemical_formula_structural       Cu20Zr14
_chemical_formula_sum              "Cu20 Zr14"
_cell_length_a       7.86718
_cell_length_b       7.86718
_cell_length_c       9.35588
_cell_angle_alpha    90
_cell_angle_beta     90
_cell_angle_gamma    72.636

_space_group_name_H-M_alt    "P 1"
_space_group_IT_number       1

loop_
  _space_group_symop_operation_xyz
  'x, y, z'

loop_
  _atom_site_type_symbol
  _atom_site_label
  _atom_site_symmetry_multiplicity
  _atom_site_fract_x
  _atom_site_fract_y
  _atom_site_fract_z
  _atom_site_occupancy
  Cu  Cu1       1.0  0.11200  0.70400  0.00782  1.0000
  Cu  Cu2       1.0  0.40400  0.99600  0.00851  1.0000
  Cu  Cu3       1.0  0.44900  0.65800  0.10100  1.0000
  Cu  Cu4       1.0  0.88900  0.92800  0.20500  1.0000
  Cu  Cu5       1.0  0.17800  0.21900  0.20500  1.0000
  Cu  Cu6       1.0  0.67800  0.71900  0.29500  1.0000
  Cu  Cu7       1.0  0.38900  0.42800  0.29500  1.0000
  Cu  Cu8       1.0  0.94900  0.15800  0.39900  1.0000
  Cu  Cu9       1.0  0.90400  0.49600  0.49100  1.0000
  Cu  Cu10      1.0  0.61200  0.20400  0.49200  1.0000
  Cu  Cu11      1.0  0.20400  0.61200  0.50800  1.0000
  Cu  Cu12      1.0  0.49600  0.90400  0.50900  1.0000
  Cu  Cu13      1.0  0.15800  0.94900  0.60100  1.0000
  Cu  Cu14      1.0  0.42800  0.38900  0.70500  1.0000
  Cu  Cu15      1.0  0.71900  0.67800  0.70500  1.0000
  Cu  Cu16      1.0  0.21900  0.17800  0.79500  1.0000
  Cu  Cu17      1.0  0.92800  0.88900  0.79500  1.0000
  Cu  Cu18      1.0  0.65800  0.44900  0.89900  1.0000
  Cu  Cu19      1.0  0.99600  0.40400  0.99100  1.0000
  Cu  Cu20      1.0  0.70400  0.11200  0.99200  1.0000
  Zr  Zr1       1.0  0.05370  0.05370  0.00000  1.0000
  Zr  Zr2       1.0  0.36400  0.36400  0.00000  1.0000
  Zr  Zr3       1.0  0.74300  0.74300  0.00000  1.0000
  Zr  Zr4       1.0  0.74600  0.36300  0.19500  1.0000
  Zr  Zr5       1.0  0.03810  0.57000  0.25000  1.0000
  Zr  Zr6       1.0  0.53800  0.07030  0.25000  1.0000
  Zr  Zr7       1.0  0.24600  0.86300  0.30500  1.0000
  Zr  Zr8       1.0  0.24300  0.24300  0.50000  1.0000
  Zr  Zr9       1.0  0.55400  0.55400  0.50000  1.0000
  Zr  Zr10      1.0  0.86400  0.86400  0.50000  1.0000
  Zr  Zr11      1.0  0.86300  0.24600  0.69500  1.0000
  Zr  Zr12      1.0  0.07030  0.53800  0.75000  1.0000
  Zr  Zr13      1.0  0.57000  0.03810  0.75000  1.0000
  Zr  Zr14      1.0  0.36300  0.74600  0.80500  1.0000
