data_image0
_chemical_formula_structural       F2Na6O18Si6Sn2
_chemical_formula_sum              "F2 Na6 O18 Si6 Sn2"
_cell_length_a       6.50614
_cell_length_b       8.69324
_cell_length_c       8.69324
_cell_angle_alpha    105.835
_cell_angle_beta     102.849
_cell_angle_gamma    102.849

_space_group_name_H-M_alt    "P 1"
_space_group_IT_number       1

loop_
  _space_group_symop_operation_xyz
  'x, y, z'

loop_
  _atom_site_type_symbol
  _atom_site_label
  _atom_site_symmetry_multiplicity
  _atom_site_fract_x
  _atom_site_fract_y
  _atom_site_fract_z
  _atom_site_occupancy
  F   F1        1.0  0.92200  0.34900  0.34900  1.0000
  F   F2        1.0  0.07790  0.65100  0.65100  1.0000
  Na  Na1       1.0  0.91900  0.39100  0.12100  1.0000
  Na  Na2       1.0  0.91900  0.12100  0.39100  1.0000
  Na  Na3       1.0  0.74100  0.49600  0.49600  1.0000
  Na  Na4       1.0  0.25900  0.50400  0.50400  1.0000
  Na  Na5       1.0  0.08070  0.87900  0.60900  1.0000
  Na  Na6       1.0  0.08070  0.60900  0.87900  1.0000
  O   O1        1.0  0.86000  0.72500  0.01750  1.0000
  O   O2        1.0  0.44000  0.67100  0.02630  1.0000
  O   O3        1.0  0.40800  0.14600  0.14600  1.0000
  O   O4        1.0  0.15900  0.66600  0.22900  1.0000
  O   O5        1.0  0.46300  0.47300  0.25600  1.0000
  O   O6        1.0  0.14000  0.98200  0.27500  1.0000
  O   O7        1.0  0.56000  0.97400  0.32900  1.0000
  O   O8        1.0  0.84100  0.77100  0.33400  1.0000
  O   O9        1.0  0.46300  0.25600  0.47300  1.0000
  O   O10       1.0  0.53700  0.74400  0.52700  1.0000
  O   O11       1.0  0.15900  0.22900  0.66600  1.0000
  O   O12       1.0  0.44000  0.02630  0.67100  1.0000
  O   O13       1.0  0.86000  0.01750  0.72500  1.0000
  O   O14       1.0  0.53700  0.52700  0.74400  1.0000
  O   O15       1.0  0.84100  0.33400  0.77100  1.0000
  O   O16       1.0  0.59200  0.85400  0.85400  1.0000
  O   O17       1.0  0.56000  0.32900  0.97400  1.0000
  O   O18       1.0  0.14000  0.27500  0.98200  1.0000
  Si  Si1       1.0  0.40000  0.31000  0.09030  1.0000
  Si  Si2       1.0  0.00000  0.78300  0.21700  1.0000
  Si  Si3       1.0  0.40000  0.09030  0.31000  1.0000
  Si  Si4       1.0  0.60000  0.91000  0.69000  1.0000
  Si  Si5       1.0  0.00000  0.21700  0.78300  1.0000
  Si  Si6       1.0  0.60000  0.69000  0.91000  1.0000
  Sn  Sn1       1.0  0.50000  0.72000  0.28000  1.0000
  Sn  Sn2       1.0  0.50000  0.28000  0.72000  1.0000
