data_image0
_chemical_formula_structural       Ca2Nb4O22P4
_chemical_formula_sum              "Ca2 Nb4 O22 P4"
_cell_length_a       5.22921
_cell_length_b       9.26176
_cell_length_c       9.26169
_cell_angle_alpha    71.309
_cell_angle_beta     93.012
_cell_angle_gamma    93.0122

_space_group_name_H-M_alt    "P 1"
_space_group_IT_number       1

loop_
  _space_group_symop_operation_xyz
  'x, y, z'

loop_
  _atom_site_type_symbol
  _atom_site_label
  _atom_site_symmetry_multiplicity
  _atom_site_fract_x
  _atom_site_fract_y
  _atom_site_fract_z
  _atom_site_occupancy
  Ca  Ca1       1.0  0.25000  0.60600  0.39400  1.0000
  Ca  Ca2       1.0  0.75000  0.39400  0.60600  1.0000
  Nb  Nb1       1.0  0.73800  0.24500  0.00478  1.0000
  Nb  Nb2       1.0  0.23800  0.00478  0.24500  1.0000
  Nb  Nb3       1.0  0.76200  0.99500  0.75500  1.0000
  Nb  Nb4       1.0  0.26200  0.75500  0.99500  1.0000
  O   O1        1.0  0.94200  0.62500  0.07240  1.0000
  O   O2        1.0  0.41800  0.13900  0.08170  1.0000
  O   O3        1.0  0.91800  0.08170  0.13900  1.0000
  O   O4        1.0  0.71200  0.36800  0.14600  1.0000
  O   O5        1.0  0.25000  0.83000  0.17000  1.0000
  O   O6        1.0  0.48900  0.59100  0.17000  1.0000
  O   O7        1.0  0.87000  0.48500  0.34800  1.0000
  O   O8        1.0  0.21200  0.14600  0.36800  1.0000
  O   O9        1.0  0.55800  0.92800  0.37500  1.0000
  O   O10       1.0  0.01080  0.83000  0.40900  1.0000
  O   O11       1.0  0.37000  0.34800  0.48500  1.0000
  O   O12       1.0  0.63000  0.65200  0.51500  1.0000
  O   O13       1.0  0.98900  0.17000  0.59100  1.0000
  O   O14       1.0  0.44200  0.07240  0.62500  1.0000
  O   O15       1.0  0.78800  0.85400  0.63200  1.0000
  O   O16       1.0  0.13000  0.51500  0.65200  1.0000
  O   O17       1.0  0.51100  0.40900  0.83000  1.0000
  O   O18       1.0  0.75000  0.17000  0.83000  1.0000
  O   O19       1.0  0.28800  0.63200  0.85400  1.0000
  O   O20       1.0  0.08230  0.91800  0.86100  1.0000
  O   O21       1.0  0.58200  0.86100  0.91800  1.0000
  O   O22       1.0  0.05840  0.37500  0.92800  1.0000
  P   P1        1.0  0.75400  0.51700  0.18700  1.0000
  P   P2        1.0  0.74600  0.81300  0.48300  1.0000
  P   P3        1.0  0.25400  0.18700  0.51700  1.0000
  P   P4        1.0  0.24600  0.48300  0.81300  1.0000
