data_image0
_chemical_formula_structural       Nd4O24S6
_chemical_formula_sum              "Nd4 O24 S6"
_cell_length_a       6.64797
_cell_length_b       6.83581
_cell_length_c       11.1522
_cell_angle_alpha    106.631
_cell_angle_beta     107.341
_cell_angle_gamma    90

_space_group_name_H-M_alt    "P 1"
_space_group_IT_number       1

loop_
  _space_group_symop_operation_xyz
  'x, y, z'

loop_
  _atom_site_type_symbol
  _atom_site_label
  _atom_site_symmetry_multiplicity
  _atom_site_fract_x
  _atom_site_fract_y
  _atom_site_fract_z
  _atom_site_occupancy
  Nd  Nd1       1.0  0.77700  0.12900  0.26200  1.0000
  Nd  Nd2       1.0  0.48500  0.62900  0.26200  1.0000
  Nd  Nd3       1.0  0.51500  0.37100  0.73800  1.0000
  Nd  Nd4       1.0  0.22300  0.87100  0.73800  1.0000
  O   O1        1.0  0.22300  0.60200  0.04450  1.0000
  O   O2        1.0  0.82200  0.10200  0.04450  1.0000
  O   O3        1.0  0.60200  0.35500  0.11400  1.0000
  O   O4        1.0  0.51200  0.85500  0.11400  1.0000
  O   O5        1.0  0.15000  0.61500  0.29100  1.0000
  O   O6        1.0  0.14100  0.11500  0.29100  1.0000
  O   O7        1.0  0.45900  0.29900  0.30000  1.0000
  O   O8        1.0  0.84100  0.79900  0.30000  1.0000
  O   O9        1.0  0.48600  0.99400  0.36000  1.0000
  O   O10       1.0  0.87400  0.49400  0.36000  1.0000
  O   O11       1.0  0.88900  0.20100  0.49800  1.0000
  O   O12       1.0  0.60900  0.70100  0.49800  1.0000
  O   O13       1.0  0.39100  0.29900  0.50200  1.0000
  O   O14       1.0  0.11100  0.79900  0.50200  1.0000
  O   O15       1.0  0.12600  0.50600  0.64000  1.0000
  O   O16       1.0  0.51400  0.00558  0.64000  1.0000
  O   O17       1.0  0.15900  0.20100  0.70000  1.0000
  O   O18       1.0  0.54100  0.70100  0.70000  1.0000
  O   O19       1.0  0.85900  0.88500  0.70900  1.0000
  O   O20       1.0  0.85000  0.38500  0.70900  1.0000
  O   O21       1.0  0.48800  0.14500  0.88600  1.0000
  O   O22       1.0  0.39800  0.64500  0.88600  1.0000
  O   O23       1.0  0.17800  0.89800  0.95500  1.0000
  O   O24       1.0  0.77700  0.39800  0.95500  1.0000
  S   S1        1.0  0.68000  0.25000  0.00000  1.0000
  S   S2        1.0  0.32000  0.75000  0.00000  1.0000
  S   S3        1.0  0.00212  0.67700  0.36600  1.0000
  S   S4        1.0  0.36400  0.17700  0.36600  1.0000
  S   S5        1.0  0.99800  0.32300  0.63400  1.0000
  S   S6        1.0  0.63600  0.82300  0.63400  1.0000
