data_image0
_chemical_formula_structural       Cu20In14
_chemical_formula_sum              "Cu20 In14"
_cell_length_a       6.75906
_cell_length_b       9.15511
_cell_length_c       9.15511
_cell_angle_alpha    81.1745
_cell_angle_beta     90.8075
_cell_angle_gamma    90.8075

_space_group_name_H-M_alt    "P 1"
_space_group_IT_number       1

loop_
  _space_group_symop_operation_xyz
  'x, y, z'

loop_
  _atom_site_type_symbol
  _atom_site_label
  _atom_site_symmetry_multiplicity
  _atom_site_fract_x
  _atom_site_fract_y
  _atom_site_fract_z
  _atom_site_occupancy
  Cu  Cu1       1.0  0.00000  0.50000  0.00000  1.0000
  Cu  Cu2       1.0  0.15300  0.78200  0.00386  1.0000
  Cu  Cu3       1.0  0.16600  0.04860  0.04860  1.0000
  Cu  Cu4       1.0  0.50000  0.88900  0.11100  1.0000
  Cu  Cu5       1.0  0.72600  0.40800  0.18200  1.0000
  Cu  Cu6       1.0  0.84700  0.99600  0.21800  1.0000
  Cu  Cu7       1.0  0.06100  0.51900  0.29200  1.0000
  Cu  Cu8       1.0  0.39300  0.35100  0.35100  1.0000
  Cu  Cu9       1.0  0.72600  0.18200  0.40800  1.0000
  Cu  Cu10      1.0  0.93900  0.70800  0.48100  1.0000
  Cu  Cu11      1.0  0.00000  0.00000  0.50000  1.0000
  Cu  Cu12      1.0  0.06100  0.29200  0.51900  1.0000
  Cu  Cu13      1.0  0.27400  0.81800  0.59200  1.0000
  Cu  Cu14      1.0  0.60700  0.64900  0.64900  1.0000
  Cu  Cu15      1.0  0.93900  0.48100  0.70800  1.0000
  Cu  Cu16      1.0  0.15300  0.00386  0.78200  1.0000
  Cu  Cu17      1.0  0.27400  0.59200  0.81800  1.0000
  Cu  Cu18      1.0  0.50000  0.11100  0.88900  1.0000
  Cu  Cu19      1.0  0.83400  0.95100  0.95100  1.0000
  Cu  Cu20      1.0  0.84700  0.21800  0.99600  1.0000
  In  In1       1.0  0.38700  0.56800  0.12000  1.0000
  In  In2       1.0  0.80200  0.70500  0.15700  1.0000
  In  In3       1.0  0.49800  0.16600  0.16600  1.0000
  In  In4       1.0  0.06690  0.23700  0.23700  1.0000
  In  In5       1.0  0.19800  0.84300  0.29500  1.0000
  In  In6       1.0  0.61300  0.88000  0.43200  1.0000
  In  In7       1.0  0.71700  0.46500  0.46500  1.0000
  In  In8       1.0  0.28300  0.53500  0.53500  1.0000
  In  In9       1.0  0.38700  0.12000  0.56800  1.0000
  In  In10      1.0  0.80200  0.15700  0.70500  1.0000
  In  In11      1.0  0.93300  0.76300  0.76300  1.0000
  In  In12      1.0  0.50200  0.83400  0.83400  1.0000
  In  In13      1.0  0.19800  0.29500  0.84300  1.0000
  In  In14      1.0  0.61300  0.43200  0.88000  1.0000
