data_image0
_chemical_formula_structural       B8Bi2H6O18
_chemical_formula_sum              "B8 Bi2 H6 O18"
_cell_length_a       4.23534
_cell_length_b       8.46253
_cell_length_c       10.2839
_cell_angle_alpha    113.248
_cell_angle_beta     101.791
_cell_angle_gamma    91.5008

_space_group_name_H-M_alt    "P 1"
_space_group_IT_number       1

loop_
  _space_group_symop_operation_xyz
  'x, y, z'

loop_
  _atom_site_type_symbol
  _atom_site_label
  _atom_site_symmetry_multiplicity
  _atom_site_fract_x
  _atom_site_fract_y
  _atom_site_fract_z
  _atom_site_occupancy
  B   B1        1.0  0.54500  0.78300  0.07660  1.0000
  B   B2        1.0  0.10600  0.94600  0.18500  1.0000
  B   B3        1.0  0.84500  0.21200  0.28900  1.0000
  B   B4        1.0  0.98400  0.04690  0.43300  1.0000
  B   B5        1.0  0.20800  0.62000  0.44800  1.0000
  B   B6        1.0  0.34600  0.45400  0.59200  1.0000
  B   B7        1.0  0.08160  0.71800  0.69600  1.0000
  B   B8        1.0  0.64100  0.88100  0.80500  1.0000
  Bi  Bi1       1.0  0.90300  0.50000  0.89300  1.0000
  Bi  Bi2       1.0  0.28000  0.16600  0.98800  1.0000
  H   H1        1.0  0.02820  0.47700  0.15700  1.0000
  H   H2        1.0  0.18400  0.75600  0.32600  1.0000
  H   H3        1.0  0.55200  0.39400  0.34300  1.0000
  H   H4        1.0  0.64300  0.27400  0.54000  1.0000
  H   H5        1.0  0.01000  0.91000  0.55600  1.0000
  H   H6        1.0  0.13700  0.18600  0.72200  1.0000
  O   O1        1.0  0.40300  0.61700  0.00487  1.0000
  O   O2        1.0  0.95200  0.38700  0.05600  1.0000
  O   O3        1.0  0.87100  0.80300  0.07300  1.0000
  O   O4        1.0  0.41800  0.93000  0.15000  1.0000
  O   O5        1.0  0.01380  0.11600  0.19200  1.0000
  O   O6        1.0  0.67400  0.33700  0.26600  1.0000
  O   O7        1.0  0.23300  0.63900  0.32600  1.0000
  O   O8        1.0  0.12200  0.93700  0.32900  1.0000
  O   O9        1.0  0.85200  0.18900  0.41700  1.0000
  O   O10       1.0  0.34100  0.47800  0.46500  1.0000
  O   O11       1.0  0.06930  0.72900  0.55300  1.0000
  O   O12       1.0  0.96000  0.02660  0.55600  1.0000
  O   O13       1.0  0.51800  0.32900  0.61500  1.0000
  O   O14       1.0  0.17300  0.54800  0.68800  1.0000
  O   O15       1.0  0.76800  0.73400  0.73000  1.0000
  O   O16       1.0  0.31600  0.86100  0.80900  1.0000
  O   O17       1.0  0.22200  0.27700  0.82300  1.0000
  O   O18       1.0  0.78300  0.04660  0.87600  1.0000
