data_image0
_chemical_formula_structural       Lu4O22Te8
_chemical_formula_sum              "Lu4 O22 Te8"
_cell_length_a       5.03294
_cell_length_b       6.6016
_cell_length_c       15.406
_cell_angle_alpha    91.8799
_cell_angle_beta     99.4011
_cell_angle_gamma    112.407

_space_group_name_H-M_alt    "P 1"
_space_group_IT_number       1

loop_
  _space_group_symop_operation_xyz
  'x, y, z'

loop_
  _atom_site_type_symbol
  _atom_site_label
  _atom_site_symmetry_multiplicity
  _atom_site_fract_x
  _atom_site_fract_y
  _atom_site_fract_z
  _atom_site_occupancy
  Lu  Lu1       1.0  0.66400  0.79700  0.03620  1.0000
  Lu  Lu2       1.0  0.33200  0.70300  0.46400  1.0000
  Lu  Lu3       1.0  0.66800  0.29700  0.53600  1.0000
  Lu  Lu4       1.0  0.33600  0.20300  0.96400  1.0000
  O   O1        1.0  0.00864  0.17900  0.04400  1.0000
  O   O2        1.0  0.71100  0.46800  0.05270  1.0000
  O   O3        1.0  0.49600  0.04690  0.09430  1.0000
  O   O4        1.0  0.32100  0.63300  0.13000  1.0000
  O   O5        1.0  0.94900  0.86500  0.16800  1.0000
  O   O6        1.0  0.38600  0.25000  0.25000  1.0000
  O   O7        1.0  0.41600  0.63500  0.33200  1.0000
  O   O8        1.0  0.05880  0.86700  0.37000  1.0000
  O   O9        1.0  0.85500  0.45300  0.40600  1.0000
  O   O10       1.0  0.69000  0.03170  0.44700  1.0000
  O   O11       1.0  0.28500  0.32100  0.45600  1.0000
  O   O12       1.0  0.71500  0.67900  0.54400  1.0000
  O   O13       1.0  0.31000  0.96800  0.55300  1.0000
  O   O14       1.0  0.14500  0.54700  0.59400  1.0000
  O   O15       1.0  0.94100  0.13300  0.63000  1.0000
  O   O16       1.0  0.58400  0.36500  0.66800  1.0000
  O   O17       1.0  0.61400  0.75000  0.75000  1.0000
  O   O18       1.0  0.05060  0.13500  0.83200  1.0000
  O   O19       1.0  0.67900  0.36700  0.87000  1.0000
  O   O20       1.0  0.50400  0.95300  0.90600  1.0000
  O   O21       1.0  0.28900  0.53200  0.94700  1.0000
  O   O22       1.0  0.99100  0.82100  0.95600  1.0000
  Te  Te1       1.0  0.96700  0.37300  0.12900  1.0000
  Te  Te2       1.0  0.35400  0.94800  0.20100  1.0000
  Te  Te3       1.0  0.70400  0.55200  0.29900  1.0000
  Te  Te4       1.0  0.96600  0.12700  0.37100  1.0000
  Te  Te5       1.0  0.03410  0.87300  0.62900  1.0000
  Te  Te6       1.0  0.29600  0.44800  0.70100  1.0000
  Te  Te7       1.0  0.64600  0.05150  0.79900  1.0000
  Te  Te8       1.0  0.03250  0.62700  0.87100  1.0000
