data_image0
_chemical_formula_structural       H7Na5O18Se4
_chemical_formula_sum              "H7 Na5 O18 Se4"
_cell_length_a       5.87376
_cell_length_b       7.17535
_cell_length_c       9.80288
_cell_angle_alpha    102.402
_cell_angle_beta     98.7501
_cell_angle_gamma    100.5

_space_group_name_H-M_alt    "P 1"
_space_group_IT_number       1

loop_
  _space_group_symop_operation_xyz
  'x, y, z'

loop_
  _atom_site_type_symbol
  _atom_site_label
  _atom_site_symmetry_multiplicity
  _atom_site_fract_x
  _atom_site_fract_y
  _atom_site_fract_z
  _atom_site_occupancy
  H   H1        1.0  0.15800  0.39700  0.05360  1.0000
  H   H2        1.0  0.04060  0.66800  0.08680  1.0000
  H   H3        1.0  0.72000  0.45100  0.38300  1.0000
  H   H4        1.0  0.50000  0.00000  0.50000  1.0000
  H   H5        1.0  0.28000  0.54900  0.61700  1.0000
  H   H6        1.0  0.95900  0.33200  0.91300  1.0000
  H   H7        1.0  0.84200  0.60300  0.94600  1.0000
  Na  Na1       1.0  0.00000  0.00000  0.00000  1.0000
  Na  Na2       1.0  0.65400  0.74300  0.19800  1.0000
  Na  Na3       1.0  0.13500  0.16500  0.39600  1.0000
  Na  Na4       1.0  0.86500  0.83500  0.60400  1.0000
  Na  Na5       1.0  0.34600  0.25700  0.80200  1.0000
  O   O1        1.0  0.59400  0.22700  0.01170  1.0000
  O   O2        1.0  0.89700  0.70000  0.03880  1.0000
  O   O3        1.0  0.24900  0.60200  0.20100  1.0000
  O   O4        1.0  0.32700  0.12300  0.20600  1.0000
  O   O5        1.0  0.78800  0.08390  0.22900  1.0000
  O   O6        1.0  0.69500  0.44800  0.27600  1.0000
  O   O7        1.0  0.04530  0.81800  0.39800  1.0000
  O   O8        1.0  0.51800  0.83900  0.44100  1.0000
  O   O9        1.0  0.22900  0.50500  0.45400  1.0000
  O   O10       1.0  0.77100  0.49500  0.54600  1.0000
  O   O11       1.0  0.48200  0.16100  0.55900  1.0000
  O   O12       1.0  0.95500  0.18200  0.60200  1.0000
  O   O13       1.0  0.30500  0.55200  0.72400  1.0000
  O   O14       1.0  0.21200  0.91600  0.77100  1.0000
  O   O15       1.0  0.67300  0.87700  0.79400  1.0000
  O   O16       1.0  0.75100  0.39800  0.79900  1.0000
  O   O17       1.0  0.10300  0.30000  0.96100  1.0000
  O   O18       1.0  0.40600  0.77300  0.98800  1.0000
  Se  Se1       1.0  0.59000  0.20400  0.17400  1.0000
  Se  Se2       1.0  0.24500  0.68500  0.37100  1.0000
  Se  Se3       1.0  0.75500  0.31500  0.62900  1.0000
  Se  Se4       1.0  0.41000  0.79600  0.82600  1.0000
