data_image0
_chemical_formula_structural       B16Ru14Sr4
_chemical_formula_sum              "B16 Ru14 Sr4"
_cell_length_a       6.47032
_cell_length_b       6.47032
_cell_length_c       10.2196
_cell_angle_alpha    90
_cell_angle_beta     90
_cell_angle_gamma    90

_space_group_name_H-M_alt    "P 1"
_space_group_IT_number       1

loop_
  _space_group_symop_operation_xyz
  'x, y, z'

loop_
  _atom_site_type_symbol
  _atom_site_label
  _atom_site_symmetry_multiplicity
  _atom_site_fract_x
  _atom_site_fract_y
  _atom_site_fract_z
  _atom_site_occupancy
  B   B1        1.0  0.50000  0.00000  0.08820  1.0000
  B   B2        1.0  0.00000  0.00000  0.15900  1.0000
  B   B3        1.0  0.60200  0.22300  0.16900  1.0000
  B   B4        1.0  0.39800  0.77700  0.16900  1.0000
  B   B5        1.0  0.22300  0.39800  0.33100  1.0000
  B   B6        1.0  0.77700  0.60200  0.33100  1.0000
  B   B7        1.0  0.00000  0.00000  0.34100  1.0000
  B   B8        1.0  0.00000  0.50000  0.41200  1.0000
  B   B9        1.0  0.00000  0.50000  0.58800  1.0000
  B   B10       1.0  0.00000  0.00000  0.65900  1.0000
  B   B11       1.0  0.22300  0.39800  0.66900  1.0000
  B   B12       1.0  0.77700  0.60200  0.66900  1.0000
  B   B13       1.0  0.60200  0.22300  0.83100  1.0000
  B   B14       1.0  0.39800  0.77700  0.83100  1.0000
  B   B15       1.0  0.00000  0.00000  0.84100  1.0000
  B   B16       1.0  0.50000  0.00000  0.91200  1.0000
  Ru  Ru1       1.0  0.78800  0.09350  0.00000  1.0000
  Ru  Ru2       1.0  0.21200  0.90700  0.00000  1.0000
  Ru  Ru3       1.0  0.29400  0.10600  0.24400  1.0000
  Ru  Ru4       1.0  0.70600  0.89400  0.24400  1.0000
  Ru  Ru5       1.0  0.50000  0.50000  0.25000  1.0000
  Ru  Ru6       1.0  0.89400  0.29400  0.25600  1.0000
  Ru  Ru7       1.0  0.10600  0.70600  0.25600  1.0000
  Ru  Ru8       1.0  0.09350  0.21200  0.50000  1.0000
  Ru  Ru9       1.0  0.90700  0.78800  0.50000  1.0000
  Ru  Ru10      1.0  0.89400  0.29400  0.74400  1.0000
  Ru  Ru11      1.0  0.10600  0.70600  0.74400  1.0000
  Ru  Ru12      1.0  0.50000  0.50000  0.75000  1.0000
  Ru  Ru13      1.0  0.29400  0.10600  0.75600  1.0000
  Ru  Ru14      1.0  0.70600  0.89400  0.75600  1.0000
  Sr  Sr1       1.0  0.23200  0.39100  0.00000  1.0000
  Sr  Sr2       1.0  0.76800  0.60900  0.00000  1.0000
  Sr  Sr3       1.0  0.60900  0.23200  0.50000  1.0000
  Sr  Sr4       1.0  0.39100  0.76800  0.50000  1.0000
