data_image0
_chemical_formula_structural       O24P8U2
_chemical_formula_sum              "O24 P8 U2"
_cell_length_a       8.22472
_cell_length_b       8.36717
_cell_length_c       8.66884
_cell_angle_alpha    118.726
_cell_angle_beta     117.931
_cell_angle_gamma    90.6111

_space_group_name_H-M_alt    "P 1"
_space_group_IT_number       1

loop_
  _space_group_symop_operation_xyz
  'x, y, z'

loop_
  _atom_site_type_symbol
  _atom_site_label
  _atom_site_symmetry_multiplicity
  _atom_site_fract_x
  _atom_site_fract_y
  _atom_site_fract_z
  _atom_site_occupancy
  O   O1        1.0  0.48800  0.34700  0.02520  1.0000
  O   O2        1.0  0.62800  0.78700  0.02720  1.0000
  O   O3        1.0  0.81600  0.51300  0.04060  1.0000
  O   O4        1.0  0.35100  0.63900  0.04130  1.0000
  O   O5        1.0  0.96200  0.25300  0.26500  1.0000
  O   O6        1.0  0.43200  0.13800  0.26900  1.0000
  O   O7        1.0  0.25400  0.41700  0.28100  1.0000
  O   O8        1.0  0.13600  0.98900  0.29700  1.0000
  O   O9        1.0  0.24400  0.74000  0.35600  1.0000
  O   O10       1.0  0.84600  0.53300  0.42300  1.0000
  O   O11       1.0  0.64900  0.97000  0.42400  1.0000
  O   O12       1.0  0.79400  0.23300  0.43000  1.0000
  O   O13       1.0  0.99300  0.86100  0.43600  1.0000
  O   O14       1.0  0.56000  0.66800  0.43900  1.0000
  O   O15       1.0  0.12100  0.46100  0.65400  1.0000
  O   O16       1.0  0.65900  0.30800  0.65400  1.0000
  O   O17       1.0  0.42100  0.69800  0.65600  1.0000
  O   O18       1.0  0.34100  0.07190  0.65900  1.0000
  O   O19       1.0  0.21100  0.06360  0.86900  1.0000
  O   O20       1.0  0.77900  0.88100  0.87400  1.0000
  O   O21       1.0  0.88000  0.19100  0.87500  1.0000
  O   O22       1.0  0.01790  0.45600  0.87900  1.0000
  O   O23       1.0  0.07610  0.76200  0.88800  1.0000
  O   O24       1.0  0.54900  0.04090  0.95800  1.0000
  P   P1        1.0  0.37700  0.62000  0.42500  1.0000
  P   P2        1.0  0.16200  0.91400  0.42800  1.0000
  P   P3        1.0  0.62000  0.14800  0.42900  1.0000
  P   P4        1.0  0.92400  0.37400  0.42900  1.0000
  P   P5        1.0  0.84500  0.36700  0.87700  1.0000
  P   P6        1.0  0.14800  0.59700  0.87900  1.0000
  P   P7        1.0  0.60900  0.84900  0.88600  1.0000
  P   P8        1.0  0.38900  0.13800  0.88700  1.0000
  U   U1        1.0  0.09310  0.08530  0.07350  1.0000
  U   U2        1.0  0.67400  0.66700  0.23600  1.0000
