data_image0
_chemical_formula_structural       Co4S12Ta18
_chemical_formula_sum              "Co4 S12 Ta18"
_cell_length_a       10.3301
_cell_length_b       10.3301
_cell_length_c       6.59591
_cell_angle_alpha    90
_cell_angle_beta     90
_cell_angle_gamma    119.999

_space_group_name_H-M_alt    "P 1"
_space_group_IT_number       1

loop_
  _space_group_symop_operation_xyz
  'x, y, z'

loop_
  _atom_site_type_symbol
  _atom_site_label
  _atom_site_symmetry_multiplicity
  _atom_site_fract_x
  _atom_site_fract_y
  _atom_site_fract_z
  _atom_site_occupancy
  Co  Co1       1.0  0.66700  0.33300  0.27800  1.0000
  Co  Co2       1.0  0.33300  0.66700  0.27800  1.0000
  Co  Co3       1.0  0.66700  0.33300  0.72200  1.0000
  Co  Co4       1.0  0.33300  0.66700  0.72200  1.0000
  S   S1        1.0  0.27400  0.00000  0.00000  1.0000
  S   S2        1.0  0.00000  0.27400  0.00000  1.0000
  S   S3        1.0  0.72600  0.72600  0.00000  1.0000
  S   S4        1.0  0.29600  0.29600  0.23800  1.0000
  S   S5        1.0  0.70400  0.00000  0.23800  1.0000
  S   S6        1.0  0.00000  0.70400  0.23800  1.0000
  S   S7        1.0  0.27200  0.00000  0.50000  1.0000
  S   S8        1.0  0.00000  0.27200  0.50000  1.0000
  S   S9        1.0  0.72800  0.72800  0.50000  1.0000
  S   S10       1.0  0.70400  0.00000  0.76200  1.0000
  S   S11       1.0  0.00000  0.70400  0.76200  1.0000
  S   S12       1.0  0.29600  0.29600  0.76200  1.0000
  Ta  Ta1       1.0  0.74000  0.21100  0.00000  1.0000
  Ta  Ta2       1.0  0.47100  0.26000  0.00000  1.0000
  Ta  Ta3       1.0  0.26000  0.47100  0.00000  1.0000
  Ta  Ta4       1.0  0.78900  0.52900  0.00000  1.0000
  Ta  Ta5       1.0  0.21100  0.74000  0.00000  1.0000
  Ta  Ta6       1.0  0.52900  0.78900  0.00000  1.0000
  Ta  Ta7       1.0  0.54300  0.54300  0.24900  1.0000
  Ta  Ta8       1.0  0.45700  0.00000  0.24900  1.0000
  Ta  Ta9       1.0  0.00000  0.45700  0.24900  1.0000
  Ta  Ta10      1.0  0.74000  0.19200  0.50000  1.0000
  Ta  Ta11      1.0  0.45200  0.26000  0.50000  1.0000
  Ta  Ta12      1.0  0.26000  0.45200  0.50000  1.0000
  Ta  Ta13      1.0  0.80800  0.54800  0.50000  1.0000
  Ta  Ta14      1.0  0.19200  0.74000  0.50000  1.0000
  Ta  Ta15      1.0  0.54800  0.80800  0.50000  1.0000
  Ta  Ta16      1.0  0.45700  0.00000  0.75100  1.0000
  Ta  Ta17      1.0  0.00000  0.45700  0.75100  1.0000
  Ta  Ta18      1.0  0.54300  0.54300  0.75100  1.0000
