data_image0
_chemical_formula_structural       Ba2C4F12O12S4
_chemical_formula_sum              "Ba2 C4 F12 O12 S4"
_cell_length_a       4.67505
_cell_length_b       9.30082
_cell_length_c       10.7843
_cell_angle_alpha    106.396
_cell_angle_beta     102.518
_cell_angle_gamma    90

_space_group_name_H-M_alt    "P 1"
_space_group_IT_number       1

loop_
  _space_group_symop_operation_xyz
  'x, y, z'

loop_
  _atom_site_type_symbol
  _atom_site_label
  _atom_site_symmetry_multiplicity
  _atom_site_fract_x
  _atom_site_fract_y
  _atom_site_fract_z
  _atom_site_occupancy
  Ba  Ba1       1.0  0.43700  0.75000  0.50000  1.0000
  Ba  Ba2       1.0  0.56300  0.25000  0.50000  1.0000
  C   C1        1.0  0.68600  0.93800  0.14800  1.0000
  C   C2        1.0  0.96200  0.43800  0.14800  1.0000
  C   C3        1.0  0.03760  0.56200  0.85200  1.0000
  C   C4        1.0  0.31400  0.06230  0.85200  1.0000
  F   F1        1.0  0.86600  0.95200  0.07070  1.0000
  F   F2        1.0  0.70500  0.45200  0.07070  1.0000
  F   F3        1.0  0.54100  0.80200  0.09980  1.0000
  F   F4        1.0  0.05900  0.30200  0.09980  1.0000
  F   F5        1.0  0.16200  0.54500  0.15200  1.0000
  F   F6        1.0  0.49100  0.04530  0.15200  1.0000
  F   F7        1.0  0.83800  0.45500  0.84800  1.0000
  F   F8        1.0  0.50900  0.95500  0.84800  1.0000
  F   F9        1.0  0.45900  0.19800  0.90000  1.0000
  F   F10       1.0  0.94100  0.69800  0.90000  1.0000
  F   F11       1.0  0.13400  0.04760  0.92900  1.0000
  F   F12       1.0  0.29500  0.54800  0.92900  1.0000
  O   O1        1.0  0.68700  0.34600  0.30000  1.0000
  O   O2        1.0  0.11300  0.84600  0.30000  1.0000
  O   O3        1.0  0.03900  0.11700  0.35400  1.0000
  O   O4        1.0  0.81500  0.61700  0.35400  1.0000
  O   O5        1.0  0.69900  0.95100  0.39600  1.0000
  O   O6        1.0  0.19700  0.45100  0.39600  1.0000
  O   O7        1.0  0.80300  0.54900  0.60400  1.0000
  O   O8        1.0  0.30100  0.04890  0.60400  1.0000
  O   O9        1.0  0.96100  0.88300  0.64600  1.0000
  O   O10       1.0  0.18500  0.38300  0.64600  1.0000
  O   O11       1.0  0.31300  0.65400  0.70000  1.0000
  O   O12       1.0  0.88700  0.15400  0.70000  1.0000
  S   S1        1.0  0.90600  0.46300  0.31600  1.0000
  S   S2        1.0  0.91100  0.96300  0.31600  1.0000
  S   S3        1.0  0.09440  0.53700  0.68400  1.0000
  S   S4        1.0  0.08950  0.03710  0.68400  1.0000
