data_image0
_chemical_formula_structural       C6Eu8I6Li2N12
_chemical_formula_sum              "C6 Eu8 I6 Li2 N12"
_cell_length_a       10.5402
_cell_length_b       10.54
_cell_length_c       6.6616
_cell_angle_alpha    90
_cell_angle_beta     90
_cell_angle_gamma    120

_space_group_name_H-M_alt    "P 1"
_space_group_IT_number       1

loop_
  _space_group_symop_operation_xyz
  'x, y, z'

loop_
  _atom_site_type_symbol
  _atom_site_label
  _atom_site_symmetry_multiplicity
  _atom_site_fract_x
  _atom_site_fract_y
  _atom_site_fract_z
  _atom_site_occupancy
  C   C1        1.0  0.50000  0.00000  0.00000  1.0000
  C   C2        1.0  0.00000  0.50000  0.00000  1.0000
  C   C3        1.0  0.50000  0.50000  0.00000  1.0000
  C   C4        1.0  0.50000  0.00000  0.50000  1.0000
  C   C5        1.0  0.00000  0.50000  0.50000  1.0000
  C   C6        1.0  0.50000  0.50000  0.50000  1.0000
  Eu  Eu1       1.0  0.42800  0.21400  0.25000  1.0000
  Eu  Eu2       1.0  0.78600  0.21400  0.25000  1.0000
  Eu  Eu3       1.0  0.78600  0.57200  0.25000  1.0000
  Eu  Eu4       1.0  0.33300  0.66700  0.25000  1.0000
  Eu  Eu5       1.0  0.66700  0.33300  0.75000  1.0000
  Eu  Eu6       1.0  0.21400  0.42800  0.75000  1.0000
  Eu  Eu7       1.0  0.21400  0.78600  0.75000  1.0000
  Eu  Eu8       1.0  0.57200  0.78600  0.75000  1.0000
  I   I1        1.0  0.13100  0.26200  0.25000  1.0000
  I   I2        1.0  0.13100  0.86900  0.25000  1.0000
  I   I3        1.0  0.73800  0.86900  0.25000  1.0000
  I   I4        1.0  0.26200  0.13100  0.75000  1.0000
  I   I5        1.0  0.86900  0.13100  0.75000  1.0000
  I   I6        1.0  0.86900  0.73800  0.75000  1.0000
  Li  Li1       1.0  0.00000  0.00000  0.00000  1.0000
  Li  Li2       1.0  0.00000  0.00000  0.50000  1.0000
  N   N1        1.0  0.56700  0.13400  0.02560  1.0000
  N   N2        1.0  0.56700  0.43300  0.02570  1.0000
  N   N3        1.0  0.86600  0.43300  0.02570  1.0000
  N   N4        1.0  0.56700  0.43300  0.47400  1.0000
  N   N5        1.0  0.86600  0.43300  0.47400  1.0000
  N   N6        1.0  0.56700  0.13400  0.47400  1.0000
  N   N7        1.0  0.43300  0.86600  0.52600  1.0000
  N   N8        1.0  0.13400  0.56700  0.52600  1.0000
  N   N9        1.0  0.43300  0.56700  0.52600  1.0000
  N   N10       1.0  0.13400  0.56700  0.97400  1.0000
  N   N11       1.0  0.43300  0.56700  0.97400  1.0000
  N   N12       1.0  0.43300  0.86600  0.97400  1.0000
