data_image0
_chemical_formula_structural       Ag4O22Ta8
_chemical_formula_sum              "Ag4 O22 Ta8"
_cell_length_a       6.21313
_cell_length_b       6.21313
_cell_length_c       12.8501
_cell_angle_alpha    103.99
_cell_angle_beta     90
_cell_angle_gamma    120

_space_group_name_H-M_alt    "P 1"
_space_group_IT_number       1

loop_
  _space_group_symop_operation_xyz
  'x, y, z'

loop_
  _atom_site_type_symbol
  _atom_site_label
  _atom_site_symmetry_multiplicity
  _atom_site_fract_x
  _atom_site_fract_y
  _atom_site_fract_z
  _atom_site_occupancy
  Ag  Ag1       1.0  0.67100  0.34300  0.01420  1.0000
  Ag  Ag2       1.0  0.82900  0.65700  0.48600  1.0000
  Ag  Ag3       1.0  0.17100  0.34300  0.51400  1.0000
  Ag  Ag4       1.0  0.32900  0.65700  0.98600  1.0000
  O   O1        1.0  0.27600  0.02840  0.09230  1.0000
  O   O2        1.0  0.06390  0.34000  0.09230  1.0000
  O   O3        1.0  0.75300  0.81700  0.09230  1.0000
  O   O4        1.0  0.40600  0.81300  0.21900  1.0000
  O   O5        1.0  0.75000  0.25000  0.25000  1.0000
  O   O6        1.0  0.50000  0.50000  0.25000  1.0000
  O   O7        1.0  0.00000  0.75000  0.25000  1.0000
  O   O8        1.0  0.09360  0.18700  0.28100  1.0000
  O   O9        1.0  0.43600  0.18300  0.40800  1.0000
  O   O10       1.0  0.22400  0.66000  0.40800  1.0000
  O   O11       1.0  0.74700  0.97200  0.40800  1.0000
  O   O12       1.0  0.25300  0.02840  0.59200  1.0000
  O   O13       1.0  0.77600  0.34000  0.59200  1.0000
  O   O14       1.0  0.56400  0.81700  0.59200  1.0000
  O   O15       1.0  0.90600  0.81300  0.71900  1.0000
  O   O16       1.0  0.00018  0.25000  0.75000  1.0000
  O   O17       1.0  0.50000  0.50000  0.75000  1.0000
  O   O18       1.0  0.25000  0.75000  0.75000  1.0000
  O   O19       1.0  0.59400  0.18700  0.78100  1.0000
  O   O20       1.0  0.24700  0.18300  0.90800  1.0000
  O   O21       1.0  0.93600  0.66000  0.90800  1.0000
  O   O22       1.0  0.72400  0.97200  0.90800  1.0000
  Ta  Ta1       1.0  0.00000  0.00000  0.00000  1.0000
  Ta  Ta2       1.0  0.38500  0.13500  0.25000  1.0000
  Ta  Ta3       1.0  0.11500  0.50000  0.25000  1.0000
  Ta  Ta4       1.0  0.75000  0.86500  0.25000  1.0000
  Ta  Ta5       1.0  0.50000  0.00000  0.50000  1.0000
  Ta  Ta6       1.0  0.25000  0.13500  0.75000  1.0000
  Ta  Ta7       1.0  0.88500  0.50000  0.75000  1.0000
  Ta  Ta8       1.0  0.61500  0.86500  0.75000  1.0000
