data_image0
_chemical_formula_structural       H12O16Se4Zn2
_chemical_formula_sum              "H12 O16 Se4 Zn2"
_cell_length_a       6.99177
_cell_length_b       8.28345
_cell_length_c       6.75309
_cell_angle_alpha    90
_cell_angle_beta     90
_cell_angle_gamma    59.6011

_space_group_name_H-M_alt    "P 1"
_space_group_IT_number       1

loop_
  _space_group_symop_operation_xyz
  'x, y, z'

loop_
  _atom_site_type_symbol
  _atom_site_label
  _atom_site_symmetry_multiplicity
  _atom_site_fract_x
  _atom_site_fract_y
  _atom_site_fract_z
  _atom_site_occupancy
  H   H1        1.0  0.49900  0.24600  0.01590  1.0000
  H   H2        1.0  0.79000  0.58500  0.15600  1.0000
  H   H3        1.0  0.89000  0.36900  0.21300  1.0000
  H   H4        1.0  0.89000  0.86900  0.28700  1.0000
  H   H5        1.0  0.79000  0.08500  0.34400  1.0000
  H   H6        1.0  0.49900  0.74600  0.48400  1.0000
  H   H7        1.0  0.50100  0.25400  0.51600  1.0000
  H   H8        1.0  0.21000  0.91500  0.65600  1.0000
  H   H9        1.0  0.11000  0.13100  0.71300  1.0000
  H   H10       1.0  0.11000  0.63100  0.78700  1.0000
  H   H11       1.0  0.21000  0.41500  0.84400  1.0000
  H   H12       1.0  0.50100  0.75400  0.98400  1.0000
  O   O1        1.0  0.34500  0.26300  0.04040  1.0000
  O   O2        1.0  0.29800  0.74300  0.06500  1.0000
  O   O3        1.0  0.07730  0.15900  0.17900  1.0000
  O   O4        1.0  0.79800  0.00145  0.23500  1.0000
  O   O5        1.0  0.79800  0.50100  0.26500  1.0000
  O   O6        1.0  0.07730  0.65900  0.32100  1.0000
  O   O7        1.0  0.29800  0.24300  0.43500  1.0000
  O   O8        1.0  0.34500  0.76300  0.46000  1.0000
  O   O9        1.0  0.65500  0.23700  0.54000  1.0000
  O   O10       1.0  0.70200  0.75700  0.56500  1.0000
  O   O11       1.0  0.92300  0.34100  0.67900  1.0000
  O   O12       1.0  0.20200  0.49900  0.73500  1.0000
  O   O13       1.0  0.20200  0.99900  0.76500  1.0000
  O   O14       1.0  0.92300  0.84100  0.82100  1.0000
  O   O15       1.0  0.70200  0.25700  0.93500  1.0000
  O   O16       1.0  0.65500  0.73700  0.96000  1.0000
  Se  Se1       1.0  0.34000  0.10900  0.22900  1.0000
  Se  Se2       1.0  0.34000  0.60900  0.27100  1.0000
  Se  Se3       1.0  0.66000  0.39100  0.72900  1.0000
  Se  Se4       1.0  0.66000  0.89100  0.77100  1.0000
  Zn  Zn1       1.0  0.00000  0.00000  0.00000  1.0000
  Zn  Zn2       1.0  0.00000  0.50000  0.50000  1.0000
