data_image0
_chemical_formula_structural       K8O18Si6Sr2
_chemical_formula_sum              "K8 O18 Si6 Sr2"
_cell_length_a       7.14234
_cell_length_b       7.14234
_cell_length_c       10.9749
_cell_angle_alpha    90
_cell_angle_beta     90
_cell_angle_gamma    67.3291

_space_group_name_H-M_alt    "P 1"
_space_group_IT_number       1

loop_
  _space_group_symop_operation_xyz
  'x, y, z'

loop_
  _atom_site_type_symbol
  _atom_site_label
  _atom_site_symmetry_multiplicity
  _atom_site_fract_x
  _atom_site_fract_y
  _atom_site_fract_z
  _atom_site_occupancy
  K   K1        1.0  0.50000  0.50000  0.00000  1.0000
  K   K2        1.0  0.94500  0.94500  0.00000  1.0000
  K   K3        1.0  0.34200  0.23600  0.25000  1.0000
  K   K4        1.0  0.21900  0.77300  0.25000  1.0000
  K   K5        1.0  0.50000  0.50000  0.50000  1.0000
  K   K6        1.0  0.94500  0.94500  0.50000  1.0000
  K   K7        1.0  0.77300  0.21900  0.75000  1.0000
  K   K8        1.0  0.23600  0.34200  0.75000  1.0000
  O   O1        1.0  0.26300  0.26300  0.00000  1.0000
  O   O2        1.0  0.44900  0.88400  0.09170  1.0000
  O   O3        1.0  0.02720  0.60300  0.10300  1.0000
  O   O4        1.0  0.94700  0.26900  0.12800  1.0000
  O   O5        1.0  0.79700  0.04120  0.25000  1.0000
  O   O6        1.0  0.59500  0.45300  0.25000  1.0000
  O   O7        1.0  0.94700  0.26900  0.37200  1.0000
  O   O8        1.0  0.02720  0.60300  0.39700  1.0000
  O   O9        1.0  0.44900  0.88400  0.40800  1.0000
  O   O10       1.0  0.26300  0.26300  0.50000  1.0000
  O   O11       1.0  0.88400  0.44900  0.59200  1.0000
  O   O12       1.0  0.60300  0.02720  0.60300  1.0000
  O   O13       1.0  0.26900  0.94700  0.62800  1.0000
  O   O14       1.0  0.45300  0.59500  0.75000  1.0000
  O   O15       1.0  0.04120  0.79700  0.75000  1.0000
  O   O16       1.0  0.26900  0.94700  0.87200  1.0000
  O   O17       1.0  0.60300  0.02720  0.89700  1.0000
  O   O18       1.0  0.88400  0.44900  0.90800  1.0000
  Si  Si1       1.0  0.01920  0.41100  0.03030  1.0000
  Si  Si2       1.0  0.80900  0.26000  0.25000  1.0000
  Si  Si3       1.0  0.01920  0.41100  0.47000  1.0000
  Si  Si4       1.0  0.41100  0.01920  0.53000  1.0000
  Si  Si5       1.0  0.26000  0.80900  0.75000  1.0000
  Si  Si6       1.0  0.41100  0.01920  0.97000  1.0000
  Sr  Sr1       1.0  0.72500  0.74400  0.25000  1.0000
  Sr  Sr2       1.0  0.74400  0.72500  0.75000  1.0000
