data_image0
_chemical_formula_structural       Cu6Mn4O8S8Sr8
_chemical_formula_sum              "Cu6 Mn4 O8 S8 Sr8"
_cell_length_a       5.70019
_cell_length_b       10.6537
_cell_length_c       10.6537
_cell_angle_alpha    106.521
_cell_angle_beta     105.517
_cell_angle_gamma    105.517

_space_group_name_H-M_alt    "P 1"
_space_group_IT_number       1

loop_
  _space_group_symop_operation_xyz
  'x, y, z'

loop_
  _atom_site_type_symbol
  _atom_site_label
  _atom_site_symmetry_multiplicity
  _atom_site_fract_x
  _atom_site_fract_y
  _atom_site_fract_z
  _atom_site_occupancy
  Cu  Cu1       1.0  0.25500  0.50500  0.00481  1.0000
  Cu  Cu2       1.0  0.00000  0.75000  0.25000  1.0000
  Cu  Cu3       1.0  0.74500  0.99500  0.49500  1.0000
  Cu  Cu4       1.0  0.25500  0.00481  0.50500  1.0000
  Cu  Cu5       1.0  0.00000  0.25000  0.75000  1.0000
  Cu  Cu6       1.0  0.74500  0.49500  0.99500  1.0000
  Mn  Mn1       1.0  0.88000  0.12600  0.12600  1.0000
  Mn  Mn2       1.0  0.62900  0.37400  0.37400  1.0000
  Mn  Mn3       1.0  0.37100  0.62600  0.62600  1.0000
  Mn  Mn4       1.0  0.12000  0.87400  0.87400  1.0000
  O   O1        1.0  0.00000  0.00000  0.00000  1.0000
  O   O2        1.0  0.50000  0.00000  0.00000  1.0000
  O   O3        1.0  0.25600  0.25000  0.25000  1.0000
  O   O4        1.0  0.75700  0.25000  0.25000  1.0000
  O   O5        1.0  0.00000  0.50000  0.50000  1.0000
  O   O6        1.0  0.50000  0.50000  0.50000  1.0000
  O   O7        1.0  0.24300  0.75000  0.75000  1.0000
  O   O8        1.0  0.74400  0.75000  0.75000  1.0000
  S   S1        1.0  0.11500  0.70100  0.04450  1.0000
  S   S2        1.0  0.63100  0.54500  0.20100  1.0000
  S   S3        1.0  0.88500  0.95500  0.29900  1.0000
  S   S4        1.0  0.36900  0.79900  0.45500  1.0000
  S   S5        1.0  0.63100  0.20100  0.54500  1.0000
  S   S6        1.0  0.11500  0.04450  0.70100  1.0000
  S   S7        1.0  0.36900  0.45500  0.79900  1.0000
  S   S8        1.0  0.88500  0.29900  0.95500  1.0000
  Sr  Sr1       1.0  0.38000  0.22500  0.02270  1.0000
  Sr  Sr2       1.0  0.38000  0.02270  0.22500  1.0000
  Sr  Sr3       1.0  0.13300  0.47700  0.27500  1.0000
  Sr  Sr4       1.0  0.13300  0.27500  0.47700  1.0000
  Sr  Sr5       1.0  0.86700  0.72500  0.52300  1.0000
  Sr  Sr6       1.0  0.86700  0.52300  0.72500  1.0000
  Sr  Sr7       1.0  0.62000  0.97700  0.77500  1.0000
  Sr  Sr8       1.0  0.62000  0.77500  0.97700  1.0000
