data_image0
_chemical_formula_structural       Cd2Mo6O24Th2
_chemical_formula_sum              "Cd2 Mo6 O24 Th2"
_cell_length_a       9.6822
_cell_length_b       9.68224
_cell_length_c       6.36211
_cell_angle_alpha    90
_cell_angle_beta     90
_cell_angle_gamma    120

_space_group_name_H-M_alt    "P 1"
_space_group_IT_number       1

loop_
  _space_group_symop_operation_xyz
  'x, y, z'

loop_
  _atom_site_type_symbol
  _atom_site_label
  _atom_site_symmetry_multiplicity
  _atom_site_fract_x
  _atom_site_fract_y
  _atom_site_fract_z
  _atom_site_occupancy
  Cd  Cd1       1.0  0.00000  0.00000  0.00000  1.0000
  Cd  Cd2       1.0  0.00000  0.00000  0.50000  1.0000
  Mo  Mo1       1.0  0.70900  0.09760  0.25000  1.0000
  Mo  Mo2       1.0  0.38900  0.29100  0.25000  1.0000
  Mo  Mo3       1.0  0.90200  0.61100  0.25000  1.0000
  Mo  Mo4       1.0  0.09760  0.38900  0.75000  1.0000
  Mo  Mo5       1.0  0.61100  0.70900  0.75000  1.0000
  Mo  Mo6       1.0  0.29100  0.90200  0.75000  1.0000
  O   O1        1.0  0.77900  0.53700  0.02420  1.0000
  O   O2        1.0  0.75800  0.22100  0.02420  1.0000
  O   O3        1.0  0.46300  0.24200  0.02420  1.0000
  O   O4        1.0  0.82900  0.00215  0.25000  1.0000
  O   O5        1.0  0.17300  0.17100  0.25000  1.0000
  O   O6        1.0  0.45900  0.49900  0.25000  1.0000
  O   O7        1.0  0.04020  0.54100  0.25000  1.0000
  O   O8        1.0  0.99800  0.82700  0.25000  1.0000
  O   O9        1.0  0.50100  0.96000  0.25000  1.0000
  O   O10       1.0  0.46300  0.24200  0.47600  1.0000
  O   O11       1.0  0.75800  0.22100  0.47600  1.0000
  O   O12       1.0  0.77900  0.53700  0.47600  1.0000
  O   O13       1.0  0.22100  0.46300  0.52400  1.0000
  O   O14       1.0  0.24200  0.77900  0.52400  1.0000
  O   O15       1.0  0.53700  0.75800  0.52400  1.0000
  O   O16       1.0  0.49900  0.04020  0.75000  1.0000
  O   O17       1.0  0.00215  0.17300  0.75000  1.0000
  O   O18       1.0  0.96000  0.45900  0.75000  1.0000
  O   O19       1.0  0.54100  0.50100  0.75000  1.0000
  O   O20       1.0  0.82700  0.82900  0.75000  1.0000
  O   O21       1.0  0.17100  0.99800  0.75000  1.0000
  O   O22       1.0  0.53700  0.75800  0.97600  1.0000
  O   O23       1.0  0.24200  0.77900  0.97600  1.0000
  O   O24       1.0  0.22100  0.46300  0.97600  1.0000
  Th  Th1       1.0  0.33300  0.66700  0.25000  1.0000
  Th  Th2       1.0  0.66700  0.33300  0.75000  1.0000
