data_image0
_chemical_formula_structural       Al4Cs4O20Si6
_chemical_formula_sum              "Al4 Cs4 O20 Si6"
_cell_length_a       6.56731
_cell_length_b       9.40871
_cell_length_c       9.95027
_cell_angle_alpha    96.6136
_cell_angle_beta     70.7308
_cell_angle_gamma    110.426

_space_group_name_H-M_alt    "P 1"
_space_group_IT_number       1

loop_
  _space_group_symop_operation_xyz
  'x, y, z'

loop_
  _atom_site_type_symbol
  _atom_site_label
  _atom_site_symmetry_multiplicity
  _atom_site_fract_x
  _atom_site_fract_y
  _atom_site_fract_z
  _atom_site_occupancy
  Al  Al1       1.0  0.25100  0.91800  0.18400  1.0000
  Al  Al2       1.0  0.68500  0.41800  0.31600  1.0000
  Al  Al3       1.0  0.58300  0.58200  0.68400  1.0000
  Al  Al4       1.0  0.51800  0.08240  0.81600  1.0000
  Cs  Cs1       1.0  0.27400  0.40800  0.11600  1.0000
  Cs  Cs2       1.0  0.64000  0.90800  0.38400  1.0000
  Cs  Cs3       1.0  0.11600  0.09150  0.61600  1.0000
  Cs  Cs4       1.0  0.98100  0.59200  0.88400  1.0000
  O   O1        1.0  0.87800  0.12600  0.08100  1.0000
  O   O2        1.0  0.39800  0.79200  0.09360  1.0000
  O   O3        1.0  0.03080  0.91100  0.11800  1.0000
  O   O4        1.0  0.76000  0.37300  0.13300  1.0000
  O   O5        1.0  0.43700  0.10400  0.17200  1.0000
  O   O6        1.0  0.85900  0.60400  0.32800  1.0000
  O   O7        1.0  0.14300  0.87300  0.36700  1.0000
  O   O8        1.0  0.39900  0.41100  0.38200  1.0000
  O   O9        1.0  0.74100  0.29200  0.40600  1.0000
  O   O10       1.0  0.20900  0.62600  0.41900  1.0000
  O   O11       1.0  0.00220  0.37400  0.58100  1.0000
  O   O12       1.0  0.85600  0.70800  0.59400  1.0000
  O   O13       1.0  0.36900  0.58900  0.61800  1.0000
  O   O14       1.0  0.63700  0.12700  0.63300  1.0000
  O   O15       1.0  0.58300  0.39600  0.67200  1.0000
  O   O16       1.0  0.50500  0.89600  0.82800  1.0000
  O   O17       1.0  0.52000  0.62700  0.86700  1.0000
  O   O18       1.0  0.23800  0.08850  0.88200  1.0000
  O   O19       1.0  0.69900  0.20800  0.90600  1.0000
  O   O20       1.0  0.83300  0.87400  0.91900  1.0000
  Si  Si1       1.0  0.00049  0.00000  0.00000  1.0000
  Si  Si2       1.0  0.68800  0.20000  0.07130  1.0000
  Si  Si3       1.0  0.00968  0.70000  0.42900  1.0000
  Si  Si4       1.0  0.25000  0.50000  0.50000  1.0000
  Si  Si5       1.0  0.73800  0.30000  0.57100  1.0000
  Si  Si6       1.0  0.55900  0.80000  0.92900  1.0000
