data_image0
_chemical_formula_structural       Ge12Li22
_chemical_formula_sum              "Ge12 Li22"
_cell_length_a       4.3008
_cell_length_b       10.5481
_cell_length_c       12.4423
_cell_angle_alpha    90
_cell_angle_beta     80.0476
_cell_angle_gamma    90

_space_group_name_H-M_alt    "P 1"
_space_group_IT_number       1

loop_
  _space_group_symop_operation_xyz
  'x, y, z'

loop_
  _atom_site_type_symbol
  _atom_site_label
  _atom_site_symmetry_multiplicity
  _atom_site_fract_x
  _atom_site_fract_y
  _atom_site_fract_z
  _atom_site_occupancy
  Ge  Ge1       1.0  0.42500  0.63400  0.14900  1.0000
  Ge  Ge2       1.0  0.42500  0.86600  0.14900  1.0000
  Ge  Ge3       1.0  0.91800  0.25000  0.16400  1.0000
  Ge  Ge4       1.0  0.32900  0.55100  0.34200  1.0000
  Ge  Ge5       1.0  0.32900  0.94900  0.34200  1.0000
  Ge  Ge6       1.0  0.27100  0.75000  0.45700  1.0000
  Ge  Ge7       1.0  0.72900  0.25000  0.54300  1.0000
  Ge  Ge8       1.0  0.67100  0.05110  0.65800  1.0000
  Ge  Ge9       1.0  0.67100  0.44900  0.65800  1.0000
  Ge  Ge10      1.0  0.08180  0.75000  0.83600  1.0000
  Ge  Ge11      1.0  0.57500  0.13400  0.85100  1.0000
  Ge  Ge12      1.0  0.57500  0.36600  0.85100  1.0000
  Li  Li1       1.0  0.97500  0.75000  0.04940  1.0000
  Li  Li2       1.0  0.46400  0.11400  0.07110  1.0000
  Li  Li3       1.0  0.46400  0.38600  0.07110  1.0000
  Li  Li4       1.0  0.91200  0.00107  0.17600  1.0000
  Li  Li5       1.0  0.91200  0.49900  0.17600  1.0000
  Li  Li6       1.0  0.35800  0.25000  0.28400  1.0000
  Li  Li7       1.0  0.85800  0.75000  0.28500  1.0000
  Li  Li8       1.0  0.82000  0.11800  0.36000  1.0000
  Li  Li9       1.0  0.82000  0.38200  0.36000  1.0000
  Li  Li10      1.0  0.75800  0.60600  0.48300  1.0000
  Li  Li11      1.0  0.75800  0.89400  0.48300  1.0000
  Li  Li12      1.0  0.24200  0.10600  0.51700  1.0000
  Li  Li13      1.0  0.24200  0.39400  0.51700  1.0000
  Li  Li14      1.0  0.18000  0.61800  0.64000  1.0000
  Li  Li15      1.0  0.18000  0.88200  0.64000  1.0000
  Li  Li16      1.0  0.14200  0.25000  0.71500  1.0000
  Li  Li17      1.0  0.64200  0.75000  0.71600  1.0000
  Li  Li18      1.0  0.08790  0.50100  0.82400  1.0000
  Li  Li19      1.0  0.08790  0.99900  0.82400  1.0000
  Li  Li20      1.0  0.53600  0.61400  0.92900  1.0000
  Li  Li21      1.0  0.53600  0.88600  0.92900  1.0000
  Li  Li22      1.0  0.02470  0.25000  0.95100  1.0000
