data_image0
_chemical_formula_structural       Cd14P20
_chemical_formula_sum              "Cd14 P20"
_cell_length_a       4.64804
_cell_length_b       11.7955
_cell_length_c       14.0299
_cell_angle_alpha    91.8703
_cell_angle_beta     80.4652
_cell_angle_gamma    101.363

_space_group_name_H-M_alt    "P 1"
_space_group_IT_number       1

loop_
  _space_group_symop_operation_xyz
  'x, y, z'

loop_
  _atom_site_type_symbol
  _atom_site_label
  _atom_site_symmetry_multiplicity
  _atom_site_fract_x
  _atom_site_fract_y
  _atom_site_fract_z
  _atom_site_occupancy
  Cd  Cd1       1.0  0.00525  0.00000  0.00000  1.0000
  Cd  Cd2       1.0  0.42600  0.73400  0.07560  1.0000
  Cd  Cd3       1.0  0.97800  0.49400  0.09670  1.0000
  Cd  Cd4       1.0  0.26000  0.23800  0.16500  1.0000
  Cd  Cd5       1.0  0.67500  0.73800  0.33500  1.0000
  Cd  Cd6       1.0  0.32500  0.99400  0.40300  1.0000
  Cd  Cd7       1.0  0.75200  0.23400  0.42400  1.0000
  Cd  Cd8       1.0  0.25500  0.50000  0.50000  1.0000
  Cd  Cd9       1.0  0.94200  0.76600  0.57600  1.0000
  Cd  Cd10      1.0  0.73500  0.00628  0.59700  1.0000
  Cd  Cd11      1.0  0.27300  0.26200  0.66500  1.0000
  Cd  Cd12      1.0  0.18800  0.76200  0.83500  1.0000
  Cd  Cd13      1.0  0.58100  0.50600  0.90300  1.0000
  Cd  Cd14      1.0  0.76700  0.26600  0.92400  1.0000
  P   P1        1.0  0.22400  0.33300  0.00328  1.0000
  P   P2        1.0  0.62000  0.08430  0.12700  1.0000
  P   P3        1.0  0.27400  0.92700  0.12900  1.0000
  P   P4        1.0  0.52000  0.43200  0.23200  1.0000
  P   P5        1.0  0.32000  0.58800  0.23900  1.0000
  P   P6        1.0  0.80900  0.08820  0.26100  1.0000
  P   P7        1.0  0.00168  0.93200  0.26800  1.0000
  P   P8        1.0  0.65200  0.42700  0.37100  1.0000
  P   P9        1.0  0.99800  0.58400  0.37300  1.0000
  P   P10       1.0  0.47700  0.83300  0.49700  1.0000
  P   P11       1.0  0.14000  0.16700  0.50300  1.0000
  P   P12       1.0  0.78600  0.41600  0.62700  1.0000
  P   P13       1.0  0.59700  0.57300  0.62900  1.0000
  P   P14       1.0  0.33800  0.06800  0.73200  1.0000
  P   P15       1.0  0.98200  0.91200  0.73900  1.0000
  P   P16       1.0  0.97100  0.41200  0.76100  1.0000
  P   P17       1.0  0.32000  0.56800  0.76800  1.0000
  P   P18       1.0  0.47500  0.07280  0.87100  1.0000
  P   P19       1.0  0.66300  0.91600  0.87300  1.0000
  P   P20       1.0  0.89400  0.66700  0.99700  1.0000
