data_image0
_chemical_formula_structural       H4I4K4O20Se2
_chemical_formula_sum              "H4 I4 K4 O20 Se2"
_cell_length_a       4.83363
_cell_length_b       10.3304
_cell_length_c       10.498
_cell_angle_alpha    89.914
_cell_angle_beta     103.31
_cell_angle_gamma    103.53

_space_group_name_H-M_alt    "P 1"
_space_group_IT_number       1

loop_
  _space_group_symop_operation_xyz
  'x, y, z'

loop_
  _atom_site_type_symbol
  _atom_site_label
  _atom_site_symmetry_multiplicity
  _atom_site_fract_x
  _atom_site_fract_y
  _atom_site_fract_z
  _atom_site_occupancy
  H   H1        1.0  0.14500  0.64300  0.12600  1.0000
  H   H2        1.0  0.87700  0.85700  0.37400  1.0000
  H   H3        1.0  0.12300  0.14300  0.62600  1.0000
  H   H4        1.0  0.85500  0.35700  0.87400  1.0000
  I   I1        1.0  0.65900  0.67800  0.00656  1.0000
  I   I2        1.0  0.47400  0.82200  0.49300  1.0000
  I   I3        1.0  0.52600  0.17800  0.50700  1.0000
  I   I4        1.0  0.34100  0.32200  0.99300  1.0000
  K   K1        1.0  0.28100  0.95500  0.14500  1.0000
  K   K2        1.0  0.68000  0.54500  0.35500  1.0000
  K   K3        1.0  0.32000  0.45500  0.64500  1.0000
  K   K4        1.0  0.71900  0.04470  0.85500  1.0000
  O   O1        1.0  0.63100  0.84400  0.04110  1.0000
  O   O2        1.0  0.39700  0.58100  0.09400  1.0000
  O   O3        1.0  0.02440  0.17000  0.13500  1.0000
  O   O4        1.0  0.99700  0.68700  0.15300  1.0000
  O   O5        1.0  0.75700  0.36600  0.18200  1.0000
  O   O6        1.0  0.70900  0.13400  0.31800  1.0000
  O   O7        1.0  0.65700  0.81300  0.34700  1.0000
  O   O8        1.0  0.21900  0.33000  0.36500  1.0000
  O   O9        1.0  0.22300  0.91900  0.40600  1.0000
  O   O10       1.0  0.24500  0.65600  0.45900  1.0000
  O   O11       1.0  0.75500  0.34400  0.54100  1.0000
  O   O12       1.0  0.77700  0.08050  0.59400  1.0000
  O   O13       1.0  0.78100  0.67000  0.63500  1.0000
  O   O14       1.0  0.34300  0.18700  0.65300  1.0000
  O   O15       1.0  0.29100  0.86600  0.68200  1.0000
  O   O16       1.0  0.24300  0.63400  0.81800  1.0000
  O   O17       1.0  0.00342  0.31300  0.84700  1.0000
  O   O18       1.0  0.97600  0.83000  0.86500  1.0000
  O   O19       1.0  0.60300  0.41900  0.90600  1.0000
  O   O20       1.0  0.36900  0.15600  0.95900  1.0000
  Se  Se1       1.0  0.92900  0.25000  0.25000  1.0000
  Se  Se2       1.0  0.07060  0.75000  0.75000  1.0000
