data_image0
_chemical_formula_structural       O18Rb12Te4
_chemical_formula_sum              "O18 Rb12 Te4"
_cell_length_a       8.69927
_cell_length_b       8.69927
_cell_length_c       10.9862
_cell_angle_alpha    112.061
_cell_angle_beta     112.061
_cell_angle_gamma    92.9554

_space_group_name_H-M_alt    "P 1"
_space_group_IT_number       1

loop_
  _space_group_symop_operation_xyz
  'x, y, z'

loop_
  _atom_site_type_symbol
  _atom_site_label
  _atom_site_symmetry_multiplicity
  _atom_site_fract_x
  _atom_site_fract_y
  _atom_site_fract_z
  _atom_site_occupancy
  O   O1        1.0  0.26100  0.52000  0.03870  1.0000
  O   O2        1.0  0.88500  0.00946  0.08930  1.0000
  O   O3        1.0  0.62900  0.09120  0.21300  1.0000
  O   O4        1.0  0.58800  0.66800  0.24500  1.0000
  O   O5        1.0  0.22300  0.77700  0.25000  1.0000
  O   O6        1.0  0.33200  0.41200  0.25500  1.0000
  O   O7        1.0  0.90900  0.37100  0.28700  1.0000
  O   O8        1.0  0.99100  0.11500  0.41100  1.0000
  O   O9        1.0  0.48000  0.73900  0.46100  1.0000
  O   O10       1.0  0.52000  0.26100  0.53900  1.0000
  O   O11       1.0  0.00946  0.88500  0.58900  1.0000
  O   O12       1.0  0.09120  0.62900  0.71300  1.0000
  O   O13       1.0  0.66800  0.58800  0.74500  1.0000
  O   O14       1.0  0.77700  0.22300  0.75000  1.0000
  O   O15       1.0  0.41200  0.33200  0.75500  1.0000
  O   O16       1.0  0.37100  0.90900  0.78700  1.0000
  O   O17       1.0  0.11500  0.99100  0.91100  1.0000
  O   O18       1.0  0.73900  0.48000  0.96100  1.0000
  Rb  Rb1       1.0  0.50100  0.29800  0.02360  1.0000
  Rb  Rb2       1.0  0.00000  0.29300  0.02940  1.0000
  Rb  Rb3       1.0  0.31900  0.09430  0.23700  1.0000
  Rb  Rb4       1.0  0.90600  0.68100  0.26300  1.0000
  Rb  Rb5       1.0  0.70700  0.00000  0.47100  1.0000
  Rb  Rb6       1.0  0.70200  0.49900  0.47600  1.0000
  Rb  Rb7       1.0  0.29800  0.50100  0.52400  1.0000
  Rb  Rb8       1.0  0.29300  0.00000  0.52900  1.0000
  Rb  Rb9       1.0  0.09430  0.31900  0.73700  1.0000
  Rb  Rb10      1.0  0.68100  0.90600  0.76300  1.0000
  Rb  Rb11      1.0  0.00000  0.70700  0.97100  1.0000
  Rb  Rb12      1.0  0.49900  0.70200  0.97600  1.0000
  Te  Te1       1.0  0.37400  0.62600  0.25000  1.0000
  Te  Te2       1.0  0.85400  0.14600  0.25000  1.0000
  Te  Te3       1.0  0.14600  0.85400  0.75000  1.0000
  Te  Te4       1.0  0.62600  0.37400  0.75000  1.0000
