data_image0
_chemical_formula_structural       Co2F8H16N4O4
_chemical_formula_sum              "Co2 F8 H16 N4 O4"
_cell_length_a       7.83845
_cell_length_b       5.63039
_cell_length_c       5.51542
_cell_angle_alpha    90
_cell_angle_beta     94.6199
_cell_angle_gamma    90

_space_group_name_H-M_alt    "P 1"
_space_group_IT_number       1

loop_
  _space_group_symop_operation_xyz
  'x, y, z'

loop_
  _atom_site_type_symbol
  _atom_site_label
  _atom_site_symmetry_multiplicity
  _atom_site_fract_x
  _atom_site_fract_y
  _atom_site_fract_z
  _atom_site_occupancy
  Co  Co1       1.0  0.00000  0.00000  0.00000  1.0000
  Co  Co2       1.0  0.00000  0.50000  0.50000  1.0000
  F   F1        1.0  0.25800  0.95300  0.03840  1.0000
  F   F2        1.0  0.01980  0.30100  0.19800  1.0000
  F   F3        1.0  0.98000  0.80100  0.30200  1.0000
  F   F4        1.0  0.74200  0.45300  0.46200  1.0000
  F   F5        1.0  0.25800  0.54700  0.53800  1.0000
  F   F6        1.0  0.01980  0.19900  0.69800  1.0000
  F   F7        1.0  0.98000  0.69900  0.80200  1.0000
  F   F8        1.0  0.74200  0.04710  0.96200  1.0000
  H   H1        1.0  0.28400  0.67400  0.03070  1.0000
  H   H2        1.0  0.17300  0.41300  0.05130  1.0000
  H   H3        1.0  0.63100  0.95700  0.14500  1.0000
  H   H4        1.0  0.66900  0.55600  0.14900  1.0000
  H   H5        1.0  0.33100  0.05650  0.35100  1.0000
  H   H6        1.0  0.36900  0.45700  0.35500  1.0000
  H   H7        1.0  0.82700  0.91300  0.44900  1.0000
  H   H8        1.0  0.71600  0.17400  0.46900  1.0000
  H   H9        1.0  0.28400  0.82600  0.53100  1.0000
  H   H10       1.0  0.17300  0.08680  0.55100  1.0000
  H   H11       1.0  0.63100  0.54300  0.64500  1.0000
  H   H12       1.0  0.66900  0.94400  0.64900  1.0000
  H   H13       1.0  0.33100  0.44400  0.85100  1.0000
  H   H14       1.0  0.36900  0.04270  0.85500  1.0000
  H   H15       1.0  0.82700  0.58700  0.94900  1.0000
  H   H16       1.0  0.71600  0.32600  0.96900  1.0000
  N   N1        1.0  0.29200  0.48700  0.02090  1.0000
  N   N2        1.0  0.70800  0.98700  0.47900  1.0000
  N   N3        1.0  0.29200  0.01270  0.52100  1.0000
  N   N4        1.0  0.70800  0.51300  0.97900  1.0000
  O   O1        1.0  0.41700  0.40000  0.19900  1.0000
  O   O2        1.0  0.58300  0.90000  0.30100  1.0000
  O   O3        1.0  0.41700  0.10000  0.69900  1.0000
  O   O4        1.0  0.58300  0.60000  0.80100  1.0000
