data_image0
_chemical_formula_structural       Fe4O12Tb4
_chemical_formula_sum              "Fe4 O12 Tb4"
_cell_length_a       5.29857
_cell_length_b       5.60601
_cell_length_c       7.63091
_cell_angle_alpha    90
_cell_angle_beta     90
_cell_angle_gamma    90

_space_group_name_H-M_alt    "P 1"
_space_group_IT_number       1

loop_
  _space_group_symop_operation_xyz
  'x, y, z'

loop_
  _atom_site_type_symbol
  _atom_site_label
  _atom_site_symmetry_multiplicity
  _atom_site_fract_x
  _atom_site_fract_y
  _atom_site_fract_z
  _atom_site_occupancy
  Fe  Fe1       1.0  0.50000  0.00000  0.00000  1.0000
  Fe  Fe2       1.0  0.00000  0.50000  0.00000  1.0000
  Fe  Fe3       1.0  0.50000  0.00000  0.50000  1.0000
  Fe  Fe4       1.0  0.00000  0.50000  0.50000  1.0000
  O   O1        1.0  0.69200  0.30500  0.05700  1.0000
  O   O2        1.0  0.80800  0.80500  0.05700  1.0000
  O   O3        1.0  0.11200  0.46200  0.25000  1.0000
  O   O4        1.0  0.38800  0.96200  0.25000  1.0000
  O   O5        1.0  0.69200  0.30500  0.44300  1.0000
  O   O6        1.0  0.80800  0.80500  0.44300  1.0000
  O   O7        1.0  0.19200  0.19500  0.55700  1.0000
  O   O8        1.0  0.30800  0.69500  0.55700  1.0000
  O   O9        1.0  0.61200  0.03800  0.75000  1.0000
  O   O10       1.0  0.88800  0.53800  0.75000  1.0000
  O   O11       1.0  0.19200  0.19500  0.94300  1.0000
  O   O12       1.0  0.30800  0.69500  0.94300  1.0000
  Tb  Tb1       1.0  0.98200  0.06890  0.25000  1.0000
  Tb  Tb2       1.0  0.51800  0.56900  0.25000  1.0000
  Tb  Tb3       1.0  0.48200  0.43100  0.75000  1.0000
  Tb  Tb4       1.0  0.01850  0.93100  0.75000  1.0000
