data_image0
_chemical_formula_structural       Fe2S6Ta9
_chemical_formula_sum              "Fe2 S6 Ta9"
_cell_length_a       10.3451
_cell_length_b       10.3451
_cell_length_c       3.30303
_cell_angle_alpha    90
_cell_angle_beta     90
_cell_angle_gamma    120.006

_space_group_name_H-M_alt    "P 1"
_space_group_IT_number       1

loop_
  _space_group_symop_operation_xyz
  'x, y, z'

loop_
  _atom_site_type_symbol
  _atom_site_label
  _atom_site_symmetry_multiplicity
  _atom_site_fract_x
  _atom_site_fract_y
  _atom_site_fract_z
  _atom_site_occupancy
  Fe  Fe1       1.0  0.66700  0.33300  0.00000  1.0000
  Fe  Fe2       1.0  0.33300  0.66700  0.00000  1.0000
  S   S1        1.0  0.70600  0.00001  0.00000  1.0000
  S   S2        1.0  0.29400  0.29400  0.00000  1.0000
  S   S3        1.0  0.00001  0.70600  0.00000  1.0000
  S   S4        1.0  0.27500  0.00000  0.50000  1.0000
  S   S5        1.0  0.00000  0.27500  0.50000  1.0000
  S   S6        1.0  0.72500  0.72500  0.50000  1.0000
  Ta  Ta1       1.0  0.45900  0.00001  0.00000  1.0000
  Ta  Ta2       1.0  0.00001  0.45900  0.00000  1.0000
  Ta  Ta3       1.0  0.54100  0.54100  0.00000  1.0000
  Ta  Ta4       1.0  0.73800  0.20100  0.50000  1.0000
  Ta  Ta5       1.0  0.46400  0.26200  0.50000  1.0000
  Ta  Ta6       1.0  0.26200  0.46400  0.50000  1.0000
  Ta  Ta7       1.0  0.79900  0.53600  0.50000  1.0000
  Ta  Ta8       1.0  0.20100  0.73800  0.50000  1.0000
  Ta  Ta9       1.0  0.53600  0.79900  0.50000  1.0000
