data_image0
_chemical_formula_structural       B2Ge6H8N2O16
_chemical_formula_sum              "B2 Ge6 H8 N2 O16"
_cell_length_a       7.01328
_cell_length_b       7.31558
_cell_length_c       7.57051
_cell_angle_alpha    101.415
_cell_angle_beta     103.905
_cell_angle_gamma    105.515

_space_group_name_H-M_alt    "P 1"
_space_group_IT_number       1

loop_
  _space_group_symop_operation_xyz
  'x, y, z'

loop_
  _atom_site_type_symbol
  _atom_site_label
  _atom_site_symmetry_multiplicity
  _atom_site_fract_x
  _atom_site_fract_y
  _atom_site_fract_z
  _atom_site_occupancy
  B   B1        1.0  0.34100  0.89800  0.14400  1.0000
  B   B2        1.0  0.65900  0.10200  0.85600  1.0000
  Ge  Ge1       1.0  0.75500  0.15900  0.23700  1.0000
  Ge  Ge2       1.0  0.22400  0.21400  0.29400  1.0000
  Ge  Ge3       1.0  0.33400  0.66400  0.39400  1.0000
  Ge  Ge4       1.0  0.66600  0.33600  0.60600  1.0000
  Ge  Ge5       1.0  0.77600  0.78600  0.70600  1.0000
  Ge  Ge6       1.0  0.24500  0.84100  0.76300  1.0000
  H   H1        1.0  0.72000  0.73200  0.08720  1.0000
  H   H2        1.0  0.76100  0.51200  0.10000  1.0000
  H   H3        1.0  0.95800  0.73100  0.20200  1.0000
  H   H4        1.0  0.75700  0.67700  0.29300  1.0000
  H   H5        1.0  0.24300  0.32300  0.70700  1.0000
  H   H6        1.0  0.04200  0.26900  0.79800  1.0000
  H   H7        1.0  0.23900  0.48800  0.90000  1.0000
  H   H8        1.0  0.28000  0.26800  0.91300  1.0000
  N   N1        1.0  0.79800  0.66100  0.17000  1.0000
  N   N2        1.0  0.20200  0.33900  0.83000  1.0000
  O   O1        1.0  0.74300  0.25400  0.04130  1.0000
  O   O2        1.0  0.28800  0.07550  0.11700  1.0000
  O   O3        1.0  0.56500  0.94100  0.21900  1.0000
  O   O4        1.0  0.23000  0.43200  0.22200  1.0000
  O   O5        1.0  0.24200  0.82400  0.28100  1.0000
  O   O6        1.0  0.98300  0.10000  0.31900  1.0000
  O   O7        1.0  0.76400  0.36300  0.41600  1.0000
  O   O8        1.0  0.60700  0.71600  0.47100  1.0000
  O   O9        1.0  0.39300  0.28400  0.52900  1.0000
  O   O10       1.0  0.23600  0.63700  0.58400  1.0000
  O   O11       1.0  0.01700  0.90000  0.68100  1.0000
  O   O12       1.0  0.75800  0.17600  0.71900  1.0000
  O   O13       1.0  0.77000  0.56800  0.77800  1.0000
  O   O14       1.0  0.43500  0.05900  0.78100  1.0000
  O   O15       1.0  0.71200  0.92400  0.88300  1.0000
  O   O16       1.0  0.25700  0.74600  0.95900  1.0000
