data_image0
_chemical_formula_structural       Cs16Fe4O14
_chemical_formula_sum              "Cs16 Fe4 O14"
_cell_length_a       7.34215
_cell_length_b       17.9592
_cell_length_c       7.22571
_cell_angle_alpha    90
_cell_angle_beta     118.926
_cell_angle_gamma    90

_space_group_name_H-M_alt    "P 1"
_space_group_IT_number       1

loop_
  _space_group_symop_operation_xyz
  'x, y, z'

loop_
  _atom_site_type_symbol
  _atom_site_label
  _atom_site_symmetry_multiplicity
  _atom_site_fract_x
  _atom_site_fract_y
  _atom_site_fract_z
  _atom_site_occupancy
  Cs  Cs1       1.0  0.63900  0.41700  0.14400  1.0000
  Cs  Cs2       1.0  0.75300  0.78500  0.21400  1.0000
  Cs  Cs3       1.0  0.77000  0.99200  0.23300  1.0000
  Cs  Cs4       1.0  0.77900  0.19200  0.23700  1.0000
  Cs  Cs5       1.0  0.22100  0.69200  0.26300  1.0000
  Cs  Cs6       1.0  0.23000  0.49200  0.26700  1.0000
  Cs  Cs7       1.0  0.24700  0.28500  0.28600  1.0000
  Cs  Cs8       1.0  0.36100  0.91700  0.35600  1.0000
  Cs  Cs9       1.0  0.63900  0.08320  0.64400  1.0000
  Cs  Cs10      1.0  0.75300  0.71500  0.71400  1.0000
  Cs  Cs11      1.0  0.77000  0.50800  0.73300  1.0000
  Cs  Cs12      1.0  0.77900  0.30800  0.73700  1.0000
  Cs  Cs13      1.0  0.22100  0.80800  0.76300  1.0000
  Cs  Cs14      1.0  0.23000  0.00761  0.76700  1.0000
  Cs  Cs15      1.0  0.24700  0.21500  0.78600  1.0000
  Cs  Cs16      1.0  0.36100  0.58300  0.85600  1.0000
  Fe  Fe1       1.0  0.13700  0.09470  0.13700  1.0000
  Fe  Fe2       1.0  0.86300  0.59500  0.36300  1.0000
  Fe  Fe3       1.0  0.13700  0.40500  0.63700  1.0000
  Fe  Fe4       1.0  0.86300  0.90500  0.86300  1.0000
  O   O1        1.0  0.00000  0.00000  0.00000  1.0000
  O   O2        1.0  0.03350  0.82600  0.04260  1.0000
  O   O3        1.0  0.85000  0.60400  0.09480  1.0000
  O   O4        1.0  0.40500  0.09800  0.16000  1.0000
  O   O5        1.0  0.59500  0.59800  0.34000  1.0000
  O   O6        1.0  0.15000  0.10400  0.40500  1.0000
  O   O7        1.0  0.96700  0.32600  0.45700  1.0000
  O   O8        1.0  0.00000  0.50000  0.50000  1.0000
  O   O9        1.0  0.03350  0.67400  0.54300  1.0000
  O   O10       1.0  0.85000  0.89600  0.59500  1.0000
  O   O11       1.0  0.40500  0.40200  0.66000  1.0000
  O   O12       1.0  0.59500  0.90200  0.84000  1.0000
  O   O13       1.0  0.15000  0.39600  0.90500  1.0000
  O   O14       1.0  0.96700  0.17400  0.95700  1.0000
