data_image0
_chemical_formula_structural       K8O20P4U2
_chemical_formula_sum              "K8 O20 P4 U2"
_cell_length_a       6.92506
_cell_length_b       6.92506
_cell_length_c       11.6665
_cell_angle_alpha    90
_cell_angle_beta     90
_cell_angle_gamma    90

_space_group_name_H-M_alt    "P 1"
_space_group_IT_number       1

loop_
  _space_group_symop_operation_xyz
  'x, y, z'

loop_
  _atom_site_type_symbol
  _atom_site_label
  _atom_site_symmetry_multiplicity
  _atom_site_fract_x
  _atom_site_fract_y
  _atom_site_fract_z
  _atom_site_occupancy
  K   K1        1.0  0.25000  0.00156  0.08210  1.0000
  K   K2        1.0  0.25000  0.49800  0.08210  1.0000
  K   K3        1.0  0.50200  0.75000  0.41800  1.0000
  K   K4        1.0  0.99800  0.75000  0.41800  1.0000
  K   K5        1.0  0.00156  0.25000  0.58200  1.0000
  K   K6        1.0  0.49800  0.25000  0.58200  1.0000
  K   K7        1.0  0.75000  0.50200  0.91800  1.0000
  K   K8        1.0  0.75000  0.99800  0.91800  1.0000
  O   O1        1.0  0.75000  0.25000  0.09380  1.0000
  O   O2        1.0  0.56600  0.75000  0.09410  1.0000
  O   O3        1.0  0.93400  0.75000  0.09410  1.0000
  O   O4        1.0  0.07600  0.25000  0.24500  1.0000
  O   O5        1.0  0.42400  0.25000  0.24500  1.0000
  O   O6        1.0  0.75000  0.57600  0.25500  1.0000
  O   O7        1.0  0.75000  0.92400  0.25500  1.0000
  O   O8        1.0  0.25000  0.06570  0.40600  1.0000
  O   O9        1.0  0.25000  0.43400  0.40600  1.0000
  O   O10       1.0  0.75000  0.25000  0.40600  1.0000
  O   O11       1.0  0.25000  0.75000  0.59400  1.0000
  O   O12       1.0  0.75000  0.56600  0.59400  1.0000
  O   O13       1.0  0.75000  0.93400  0.59400  1.0000
  O   O14       1.0  0.25000  0.07600  0.74500  1.0000
  O   O15       1.0  0.25000  0.42400  0.74500  1.0000
  O   O16       1.0  0.57600  0.75000  0.75500  1.0000
  O   O17       1.0  0.92400  0.75000  0.75500  1.0000
  O   O18       1.0  0.06570  0.25000  0.90600  1.0000
  O   O19       1.0  0.43400  0.25000  0.90600  1.0000
  O   O20       1.0  0.25000  0.75000  0.90600  1.0000
  P   P1        1.0  0.75000  0.75000  0.16700  1.0000
  P   P2        1.0  0.25000  0.25000  0.33300  1.0000
  P   P3        1.0  0.75000  0.75000  0.66700  1.0000
  P   P4        1.0  0.25000  0.25000  0.83300  1.0000
  U   U1        1.0  0.75000  0.25000  0.25000  1.0000
  U   U2        1.0  0.25000  0.75000  0.75000  1.0000
