data_image0
_chemical_formula_structural       Cu8O20Se6
_chemical_formula_sum              "Cu8 O20 Se6"
_cell_length_a       7.93789
_cell_length_b       8.03322
_cell_length_c       8.28419
_cell_angle_alpha    77.2824
_cell_angle_beta     65.5183
_cell_angle_gamma    81.9294

_space_group_name_H-M_alt    "P 1"
_space_group_IT_number       1

loop_
  _space_group_symop_operation_xyz
  'x, y, z'

loop_
  _atom_site_type_symbol
  _atom_site_label
  _atom_site_symmetry_multiplicity
  _atom_site_fract_x
  _atom_site_fract_y
  _atom_site_fract_z
  _atom_site_occupancy
  Cu  Cu1       1.0  0.51300  0.36800  0.17600  1.0000
  Cu  Cu2       1.0  0.09390  0.56400  0.25900  1.0000
  Cu  Cu3       1.0  0.68200  0.55400  0.38500  1.0000
  Cu  Cu4       1.0  0.60600  0.16100  0.48700  1.0000
  Cu  Cu5       1.0  0.39400  0.83900  0.51300  1.0000
  Cu  Cu6       1.0  0.31800  0.44600  0.61500  1.0000
  Cu  Cu7       1.0  0.90600  0.43600  0.74100  1.0000
  Cu  Cu8       1.0  0.48700  0.63200  0.82400  1.0000
  O   O1        1.0  0.78200  0.31300  0.03090  1.0000
  O   O2        1.0  0.52600  0.64500  0.04060  1.0000
  O   O3        1.0  0.91200  0.46300  0.21000  1.0000
  O   O4        1.0  0.55100  0.80400  0.26700  1.0000
  O   O5        1.0  0.23200  0.34900  0.28900  1.0000
  O   O6        1.0  0.85400  0.12500  0.30600  1.0000
  O   O7        1.0  0.22100  0.69900  0.33800  1.0000
  O   O8        1.0  0.85800  0.71500  0.35500  1.0000
  O   O9        1.0  0.52700  0.38800  0.39700  1.0000
  O   O10       1.0  0.37600  0.07820  0.41100  1.0000
  O   O11       1.0  0.62400  0.92200  0.58900  1.0000
  O   O12       1.0  0.47300  0.61200  0.60300  1.0000
  O   O13       1.0  0.14200  0.28500  0.64500  1.0000
  O   O14       1.0  0.77900  0.30100  0.66200  1.0000
  O   O15       1.0  0.14600  0.87500  0.69400  1.0000
  O   O16       1.0  0.76800  0.65100  0.71100  1.0000
  O   O17       1.0  0.44900  0.19600  0.73300  1.0000
  O   O18       1.0  0.08760  0.53700  0.79000  1.0000
  O   O19       1.0  0.47400  0.35500  0.95900  1.0000
  O   O20       1.0  0.21800  0.68700  0.96900  1.0000
  Se  Se1       1.0  0.95200  0.27500  0.11600  1.0000
  Se  Se2       1.0  0.40400  0.80500  0.16000  1.0000
  Se  Se3       1.0  0.15600  0.18100  0.47500  1.0000
  Se  Se4       1.0  0.84400  0.81900  0.52500  1.0000
  Se  Se5       1.0  0.59600  0.19500  0.84000  1.0000
  Se  Se6       1.0  0.04850  0.72500  0.88400  1.0000
