data_image0
_chemical_formula_structural       Al4K4O20Si6
_chemical_formula_sum              "Al4 K4 O20 Si6"
_cell_length_a       6.45177
_cell_length_b       8.91927
_cell_length_c       9.5452
_cell_angle_alpha    97.0209
_cell_angle_beta     70.2474
_cell_angle_gamma    111.203

_space_group_name_H-M_alt    "P 1"
_space_group_IT_number       1

loop_
  _space_group_symop_operation_xyz
  'x, y, z'

loop_
  _atom_site_type_symbol
  _atom_site_label
  _atom_site_symmetry_multiplicity
  _atom_site_fract_x
  _atom_site_fract_y
  _atom_site_fract_z
  _atom_site_occupancy
  Al  Al1       1.0  0.25400  0.93500  0.20000  1.0000
  Al  Al2       1.0  0.70400  0.43500  0.30000  1.0000
  Al  Al3       1.0  0.57000  0.56500  0.70000  1.0000
  Al  Al4       1.0  0.51900  0.06530  0.80000  1.0000
  K   K1        1.0  0.25700  0.39200  0.13100  1.0000
  K   K2        1.0  0.63800  0.89200  0.36900  1.0000
  K   K3        1.0  0.11500  0.10800  0.63100  1.0000
  K   K4        1.0  0.99600  0.60800  0.86900  1.0000
  O   O1        1.0  0.88700  0.13700  0.08080  1.0000
  O   O2        1.0  0.79600  0.40600  0.10500  1.0000
  O   O3        1.0  0.40500  0.79800  0.12200  1.0000
  O   O4        1.0  0.02660  0.91200  0.12900  1.0000
  O   O5        1.0  0.44500  0.13200  0.16000  1.0000
  O   O6        1.0  0.85400  0.63200  0.34000  1.0000
  O   O7        1.0  0.40600  0.41200  0.37100  1.0000
  O   O8        1.0  0.77800  0.29800  0.37800  1.0000
  O   O9        1.0  0.15100  0.90600  0.39500  1.0000
  O   O10       1.0  0.21700  0.63700  0.41900  1.0000
  O   O11       1.0  0.00000  0.36300  0.58100  1.0000
  O   O12       1.0  0.64000  0.09400  0.60500  1.0000
  O   O13       1.0  0.85700  0.70200  0.62200  1.0000
  O   O14       1.0  0.36500  0.58800  0.62900  1.0000
  O   O15       1.0  0.56200  0.36800  0.66000  1.0000
  O   O16       1.0  0.47200  0.86800  0.84000  1.0000
  O   O17       1.0  0.24400  0.08830  0.87100  1.0000
  O   O18       1.0  0.72900  0.20200  0.87800  1.0000
  O   O19       1.0  0.49500  0.59400  0.89500  1.0000
  O   O20       1.0  0.83100  0.86300  0.91900  1.0000
  Si  Si1       1.0  0.00387  0.00000  0.00000  1.0000
  Si  Si2       1.0  0.71000  0.21800  0.05240  1.0000
  Si  Si3       1.0  0.01260  0.71800  0.44800  1.0000
  Si  Si4       1.0  0.25400  0.50000  0.50000  1.0000
  Si  Si5       1.0  0.74300  0.28200  0.55200  1.0000
  Si  Si6       1.0  0.54500  0.78200  0.94800  1.0000
