data_image0
_chemical_formula_structural       Ba2K8O18Si6
_chemical_formula_sum              "Ba2 K8 O18 Si6"
_cell_length_a       7.19879
_cell_length_b       7.19879
_cell_length_c       11.1117
_cell_angle_alpha    90
_cell_angle_beta     90
_cell_angle_gamma    111.668

_space_group_name_H-M_alt    "P 1"
_space_group_IT_number       1

loop_
  _space_group_symop_operation_xyz
  'x, y, z'

loop_
  _atom_site_type_symbol
  _atom_site_label
  _atom_site_symmetry_multiplicity
  _atom_site_fract_x
  _atom_site_fract_y
  _atom_site_fract_z
  _atom_site_occupancy
  Ba  Ba1       1.0  0.72900  0.25900  0.25000  1.0000
  Ba  Ba2       1.0  0.74100  0.27100  0.75000  1.0000
  K   K1        1.0  0.96200  0.03770  0.00000  1.0000
  K   K2        1.0  0.49000  0.51000  0.00000  1.0000
  K   K3        1.0  0.22600  0.67400  0.25000  1.0000
  K   K4        1.0  0.75400  0.76600  0.25000  1.0000
  K   K5        1.0  0.96200  0.03770  0.50000  1.0000
  K   K6        1.0  0.49000  0.51000  0.50000  1.0000
  K   K7        1.0  0.23400  0.24600  0.75000  1.0000
  K   K8        1.0  0.32600  0.77400  0.75000  1.0000
  O   O1        1.0  0.24900  0.75100  0.00000  1.0000
  O   O2        1.0  0.60500  0.94900  0.08560  1.0000
  O   O3        1.0  0.88500  0.55500  0.09340  1.0000
  O   O4        1.0  0.31000  0.07660  0.13100  1.0000
  O   O5        1.0  0.02820  0.15600  0.25000  1.0000
  O   O6        1.0  0.42100  0.42400  0.25000  1.0000
  O   O7        1.0  0.31000  0.07660  0.36900  1.0000
  O   O8        1.0  0.88500  0.55500  0.40700  1.0000
  O   O9        1.0  0.60500  0.94900  0.41400  1.0000
  O   O10       1.0  0.24900  0.75100  0.50000  1.0000
  O   O11       1.0  0.05120  0.39500  0.58600  1.0000
  O   O12       1.0  0.44500  0.11500  0.59300  1.0000
  O   O13       1.0  0.92300  0.69000  0.63100  1.0000
  O   O14       1.0  0.57600  0.57900  0.75000  1.0000
  O   O15       1.0  0.84400  0.97200  0.75000  1.0000
  O   O16       1.0  0.92300  0.69000  0.86900  1.0000
  O   O17       1.0  0.44500  0.11500  0.90700  1.0000
  O   O18       1.0  0.05120  0.39500  0.91400  1.0000
  Si  Si1       1.0  0.41500  0.98100  0.02630  1.0000
  Si  Si2       1.0  0.26200  0.19600  0.25000  1.0000
  Si  Si3       1.0  0.41500  0.98100  0.47400  1.0000
  Si  Si4       1.0  0.01890  0.58500  0.52600  1.0000
  Si  Si5       1.0  0.80400  0.73800  0.75000  1.0000
  Si  Si6       1.0  0.01890  0.58500  0.97400  1.0000
