data_image0
_chemical_formula_structural       Bi8Li8O24
_chemical_formula_sum              "Bi8 Li8 O24"
_cell_length_a       8.86624
_cell_length_b       4.897
_cell_length_c       10.7467
_cell_angle_alpha    90
_cell_angle_beta     90
_cell_angle_gamma    90

_space_group_name_H-M_alt    "P 1"
_space_group_IT_number       1

loop_
  _space_group_symop_operation_xyz
  'x, y, z'

loop_
  _atom_site_type_symbol
  _atom_site_label
  _atom_site_symmetry_multiplicity
  _atom_site_fract_x
  _atom_site_fract_y
  _atom_site_fract_z
  _atom_site_occupancy
  Bi  Bi1       1.0  0.58600  0.50300  0.13600  1.0000
  Bi  Bi2       1.0  0.91400  0.99700  0.13600  1.0000
  Bi  Bi3       1.0  0.41400  0.00294  0.36400  1.0000
  Bi  Bi4       1.0  0.08630  0.49700  0.36400  1.0000
  Bi  Bi5       1.0  0.91400  0.50300  0.63600  1.0000
  Bi  Bi6       1.0  0.58600  0.99700  0.63600  1.0000
  Bi  Bi7       1.0  0.08630  0.00294  0.86400  1.0000
  Bi  Bi8       1.0  0.41400  0.49700  0.86400  1.0000
  Li  Li1       1.0  0.28200  0.00031  0.10000  1.0000
  Li  Li2       1.0  0.21800  0.50000  0.10000  1.0000
  Li  Li3       1.0  0.71800  0.50000  0.40000  1.0000
  Li  Li4       1.0  0.78200  0.00000  0.40000  1.0000
  Li  Li5       1.0  0.21800  0.00031  0.60000  1.0000
  Li  Li6       1.0  0.28200  0.50000  0.60000  1.0000
  Li  Li7       1.0  0.78200  0.50000  0.90000  1.0000
  Li  Li8       1.0  0.71800  0.00000  0.90000  1.0000
  O   O1        1.0  0.09310  0.20200  0.04150  1.0000
  O   O2        1.0  0.40700  0.29800  0.04150  1.0000
  O   O3        1.0  0.75000  0.25000  0.04820  1.0000
  O   O4        1.0  0.08770  0.73200  0.20000  1.0000
  O   O5        1.0  0.41200  0.76800  0.20000  1.0000
  O   O6        1.0  0.75000  0.75000  0.22500  1.0000
  O   O7        1.0  0.25000  0.25000  0.27500  1.0000
  O   O8        1.0  0.91200  0.23200  0.30000  1.0000
  O   O9        1.0  0.58800  0.26800  0.30000  1.0000
  O   O10       1.0  0.25000  0.75000  0.45200  1.0000
  O   O11       1.0  0.90700  0.70200  0.45900  1.0000
  O   O12       1.0  0.59300  0.79800  0.45900  1.0000
  O   O13       1.0  0.40700  0.20200  0.54100  1.0000
  O   O14       1.0  0.09310  0.29800  0.54100  1.0000
  O   O15       1.0  0.75000  0.25000  0.54800  1.0000
  O   O16       1.0  0.41200  0.73200  0.70000  1.0000
  O   O17       1.0  0.08770  0.76800  0.70000  1.0000
  O   O18       1.0  0.75000  0.75000  0.72500  1.0000
  O   O19       1.0  0.25000  0.25000  0.77500  1.0000
  O   O20       1.0  0.58800  0.23200  0.80000  1.0000
  O   O21       1.0  0.91200  0.26800  0.80000  1.0000
  O   O22       1.0  0.25000  0.75000  0.95200  1.0000
  O   O23       1.0  0.59300  0.70200  0.95900  1.0000
  O   O24       1.0  0.90700  0.79800  0.95900  1.0000
