data_image0
_chemical_formula_structural       Mg2O6Ti2
_chemical_formula_sum              "Mg2 O6 Ti2"
_cell_length_a       5.05406
_cell_length_b       5.05406
_cell_length_c       5.45507
_cell_angle_alpha    117.597
_cell_angle_beta     117.597
_cell_angle_gamma    60

_space_group_name_H-M_alt    "P 1"
_space_group_IT_number       1

loop_
  _space_group_symop_operation_xyz
  'x, y, z'

loop_
  _atom_site_type_symbol
  _atom_site_label
  _atom_site_symmetry_multiplicity
  _atom_site_fract_x
  _atom_site_fract_y
  _atom_site_fract_z
  _atom_site_occupancy
  Mg  Mg1       1.0  0.35500  0.35500  0.06550  1.0000
  Mg  Mg2       1.0  0.64500  0.64500  0.93500  1.0000
  O   O1        1.0  0.04800  0.43900  0.25800  1.0000
  O   O2        1.0  0.77100  0.04800  0.25800  1.0000
  O   O3        1.0  0.43900  0.77100  0.25800  1.0000
  O   O4        1.0  0.56100  0.22900  0.74200  1.0000
  O   O5        1.0  0.22900  0.95200  0.74200  1.0000
  O   O6        1.0  0.95200  0.56100  0.74200  1.0000
  Ti  Ti1       1.0  0.14500  0.14500  0.43500  1.0000
  Ti  Ti2       1.0  0.85500  0.85500  0.56500  1.0000
