data_image0
_chemical_formula_structural       Cr2F6
_chemical_formula_sum              "Cr2 F6"
_cell_length_a       5.13435
_cell_length_b       5.13435
_cell_length_c       5.13435
_cell_angle_alpha    54.7416
_cell_angle_beta     54.7416
_cell_angle_gamma    54.7416

_space_group_name_H-M_alt    "P 1"
_space_group_IT_number       1

loop_
  _space_group_symop_operation_xyz
  'x, y, z'

loop_
  _atom_site_type_symbol
  _atom_site_label
  _atom_site_symmetry_multiplicity
  _atom_site_fract_x
  _atom_site_fract_y
  _atom_site_fract_z
  _atom_site_occupancy
  Cr  Cr1       1.0  0.00000  0.00000  0.00000  1.0000
  Cr  Cr2       1.0  0.50000  0.50000  0.50000  1.0000
  F   F1        1.0  0.41200  0.75000  0.08760  1.0000
  F   F2        1.0  0.91200  0.58800  0.25000  1.0000
  F   F3        1.0  0.75000  0.08760  0.41200  1.0000
  F   F4        1.0  0.25000  0.91200  0.58800  1.0000
  F   F5        1.0  0.08760  0.41200  0.75000  1.0000
  F   F6        1.0  0.58800  0.25000  0.91200  1.0000
