data_image0
_chemical_formula_structural       B8Cu2Ho4O20
_chemical_formula_sum              "B8 Cu2 Ho4 O20"
_cell_length_a       4.53414
_cell_length_b       7.21805
_cell_length_c       9.29758
_cell_angle_alpha    90
_cell_angle_beta     90.6707
_cell_angle_gamma    90

_space_group_name_H-M_alt    "P 1"
_space_group_IT_number       1

loop_
  _space_group_symop_operation_xyz
  'x, y, z'

loop_
  _atom_site_type_symbol
  _atom_site_label
  _atom_site_symmetry_multiplicity
  _atom_site_fract_x
  _atom_site_fract_y
  _atom_site_fract_z
  _atom_site_occupancy
  B   B1        1.0  0.46500  0.73300  0.08220  1.0000
  B   B2        1.0  0.46800  0.09790  0.16100  1.0000
  B   B3        1.0  0.53200  0.59800  0.33900  1.0000
  B   B4        1.0  0.53500  0.23300  0.41800  1.0000
  B   B5        1.0  0.46500  0.76700  0.58200  1.0000
  B   B6        1.0  0.46800  0.40200  0.66100  1.0000
  B   B7        1.0  0.53200  0.90200  0.83900  1.0000
  B   B8        1.0  0.53500  0.26700  0.91800  1.0000
  Cu  Cu1       1.0  0.00000  0.00000  0.00000  1.0000
  Cu  Cu2       1.0  0.00000  0.50000  0.50000  1.0000
  Ho  Ho1       1.0  0.00308  0.39600  0.16500  1.0000
  Ho  Ho2       1.0  0.99700  0.89600  0.33500  1.0000
  Ho  Ho3       1.0  0.00308  0.10400  0.66500  1.0000
  Ho  Ho4       1.0  0.99700  0.60400  0.83500  1.0000
  O   O1        1.0  0.23600  0.60900  0.04150  1.0000
  O   O2        1.0  0.34900  0.21800  0.04360  1.0000
  O   O3        1.0  0.32100  0.91100  0.13900  1.0000
  O   O4        1.0  0.78400  0.09110  0.16500  1.0000
  O   O5        1.0  0.66500  0.66700  0.20200  1.0000
  O   O6        1.0  0.33500  0.16700  0.29800  1.0000
  O   O7        1.0  0.21600  0.59100  0.33500  1.0000
  O   O8        1.0  0.67900  0.41100  0.36100  1.0000
  O   O9        1.0  0.65100  0.71800  0.45600  1.0000
  O   O10       1.0  0.76400  0.10900  0.45900  1.0000
  O   O11       1.0  0.23600  0.89100  0.54100  1.0000
  O   O12       1.0  0.34900  0.28200  0.54400  1.0000
  O   O13       1.0  0.32100  0.58900  0.63900  1.0000
  O   O14       1.0  0.78400  0.40900  0.66500  1.0000
  O   O15       1.0  0.66500  0.83300  0.70200  1.0000
  O   O16       1.0  0.33500  0.33300  0.79800  1.0000
  O   O17       1.0  0.21600  0.90900  0.83500  1.0000
  O   O18       1.0  0.67900  0.08930  0.86100  1.0000
  O   O19       1.0  0.65100  0.78200  0.95600  1.0000
  O   O20       1.0  0.76400  0.39100  0.95900  1.0000
