data_image0
_chemical_formula_structural       B8Bi4O20Sr2
_chemical_formula_sum              "B8 Bi4 O20 Sr2"
_cell_length_a       6.76474
_cell_length_b       6.86313
_cell_length_c       9.77566
_cell_angle_alpha    95.381
_cell_angle_beta     109.001
_cell_angle_gamma    102.037

_space_group_name_H-M_alt    "P 1"
_space_group_IT_number       1

loop_
  _space_group_symop_operation_xyz
  'x, y, z'

loop_
  _atom_site_type_symbol
  _atom_site_label
  _atom_site_symmetry_multiplicity
  _atom_site_fract_x
  _atom_site_fract_y
  _atom_site_fract_z
  _atom_site_occupancy
  B   B1        1.0  0.39500  0.20700  0.06930  1.0000
  B   B2        1.0  0.41000  0.74200  0.09860  1.0000
  B   B3        1.0  0.80100  0.30100  0.17400  1.0000
  B   B4        1.0  0.84800  0.60300  0.37100  1.0000
  B   B5        1.0  0.15200  0.39700  0.62900  1.0000
  B   B6        1.0  0.19900  0.69900  0.82600  1.0000
  B   B7        1.0  0.59000  0.25800  0.90100  1.0000
  B   B8        1.0  0.60500  0.79300  0.93100  1.0000
  Bi  Bi1       1.0  0.27200  0.36700  0.33200  1.0000
  Bi  Bi2       1.0  0.69900  0.02730  0.40200  1.0000
  Bi  Bi3       1.0  0.30100  0.97300  0.59800  1.0000
  Bi  Bi4       1.0  0.72800  0.63300  0.66800  1.0000
  O   O1        1.0  0.78400  0.29900  0.01650  1.0000
  O   O2        1.0  0.60400  0.77000  0.07150  1.0000
  O   O3        1.0  0.20700  0.17300  0.09160  1.0000
  O   O4        1.0  0.58600  0.22000  0.18000  1.0000
  O   O5        1.0  0.41700  0.76500  0.24000  1.0000
  O   O6        1.0  0.88900  0.51600  0.25000  1.0000
  O   O7        1.0  0.94000  0.18100  0.25000  1.0000
  O   O8        1.0  0.92600  0.81200  0.40200  1.0000
  O   O9        1.0  0.36000  0.10600  0.41100  1.0000
  O   O10       1.0  0.74200  0.49400  0.44800  1.0000
  O   O11       1.0  0.25800  0.50600  0.55200  1.0000
  O   O12       1.0  0.64000  0.89400  0.58900  1.0000
  O   O13       1.0  0.07390  0.18800  0.59800  1.0000
  O   O14       1.0  0.05960  0.81900  0.75000  1.0000
  O   O15       1.0  0.11100  0.48400  0.75000  1.0000
  O   O16       1.0  0.58300  0.23500  0.76000  1.0000
  O   O17       1.0  0.41400  0.78000  0.82000  1.0000
  O   O18       1.0  0.79300  0.82700  0.90800  1.0000
  O   O19       1.0  0.39600  0.23000  0.92900  1.0000
  O   O20       1.0  0.21600  0.70100  0.98300  1.0000
  Sr  Sr1       1.0  0.03760  0.85100  0.17000  1.0000
  Sr  Sr2       1.0  0.96200  0.14900  0.83000  1.0000
