data_image0
_chemical_formula_structural       Ce4O24W6
_chemical_formula_sum              "Ce4 O24 W6"
_cell_length_a       7.03407
_cell_length_b       7.03407
_cell_length_c       11.5792
_cell_angle_alpha    100.751
_cell_angle_beta     100.751
_cell_angle_gamma    112.46

_space_group_name_H-M_alt    "P 1"
_space_group_IT_number       1

loop_
  _space_group_symop_operation_xyz
  'x, y, z'

loop_
  _atom_site_type_symbol
  _atom_site_label
  _atom_site_symmetry_multiplicity
  _atom_site_fract_x
  _atom_site_fract_y
  _atom_site_fract_z
  _atom_site_occupancy
  Ce  Ce1       1.0  0.30600  0.05480  0.09760  1.0000
  Ce  Ce2       1.0  0.94500  0.69400  0.40200  1.0000
  Ce  Ce3       1.0  0.05480  0.30600  0.59800  1.0000
  Ce  Ce4       1.0  0.69400  0.94500  0.90200  1.0000
  O   O1        1.0  0.63100  0.22800  0.03930  1.0000
  O   O2        1.0  0.33000  0.40300  0.06540  1.0000
  O   O3        1.0  0.09760  0.67000  0.07900  1.0000
  O   O4        1.0  0.94300  0.02280  0.11100  1.0000
  O   O5        1.0  0.78600  0.65000  0.19000  1.0000
  O   O6        1.0  0.59900  0.01030  0.22400  1.0000
  O   O7        1.0  0.99000  0.40100  0.27600  1.0000
  O   O8        1.0  0.35000  0.21400  0.31000  1.0000
  O   O9        1.0  0.97700  0.05690  0.38900  1.0000
  O   O10       1.0  0.33000  0.90200  0.42100  1.0000
  O   O11       1.0  0.59700  0.67000  0.43500  1.0000
  O   O12       1.0  0.77200  0.36900  0.46100  1.0000
  O   O13       1.0  0.22800  0.63100  0.53900  1.0000
  O   O14       1.0  0.40300  0.33000  0.56500  1.0000
  O   O15       1.0  0.67000  0.09760  0.57900  1.0000
  O   O16       1.0  0.02280  0.94300  0.61100  1.0000
  O   O17       1.0  0.65000  0.78600  0.69000  1.0000
  O   O18       1.0  0.01030  0.59900  0.72400  1.0000
  O   O19       1.0  0.40100  0.99000  0.77600  1.0000
  O   O20       1.0  0.21400  0.35000  0.81000  1.0000
  O   O21       1.0  0.05690  0.97700  0.88900  1.0000
  O   O22       1.0  0.90200  0.33000  0.92100  1.0000
  O   O23       1.0  0.67000  0.59700  0.93500  1.0000
  O   O24       1.0  0.36900  0.77200  0.96100  1.0000
  W   W1        1.0  0.79800  0.51000  0.04670  1.0000
  W   W2        1.0  0.88200  0.11800  0.25000  1.0000
  W   W3        1.0  0.49000  0.20200  0.45300  1.0000
  W   W4        1.0  0.51000  0.79800  0.54700  1.0000
  W   W5        1.0  0.11800  0.88200  0.75000  1.0000
  W   W6        1.0  0.20200  0.49000  0.95300  1.0000
