data_image0
_chemical_formula_structural       In2Mn2O6
_chemical_formula_sum              "In2 Mn2 O6"
_cell_length_a       3.42067
_cell_length_b       3.42058
_cell_length_c       11.6456
_cell_angle_alpha    90
_cell_angle_beta     90
_cell_angle_gamma    120.001

_space_group_name_H-M_alt    "P 1"
_space_group_IT_number       1

loop_
  _space_group_symop_operation_xyz
  'x, y, z'

loop_
  _atom_site_type_symbol
  _atom_site_label
  _atom_site_symmetry_multiplicity
  _atom_site_fract_x
  _atom_site_fract_y
  _atom_site_fract_z
  _atom_site_occupancy
  In  In1       1.0  0.00000  0.00000  0.00000  1.0000
  In  In2       1.0  0.00000  0.00000  0.50000  1.0000
  Mn  Mn1       1.0  0.66700  0.33300  0.25000  1.0000
  Mn  Mn2       1.0  0.33300  0.66700  0.75000  1.0000
  O   O1        1.0  0.66700  0.33300  0.08460  1.0000
  O   O2        1.0  0.00005  0.00010  0.25000  1.0000
  O   O3        1.0  0.66700  0.33300  0.41500  1.0000
  O   O4        1.0  0.33300  0.66700  0.58500  1.0000
  O   O5        1.0  0.00000  0.00000  0.75000  1.0000
  O   O6        1.0  0.33300  0.66700  0.91500  1.0000
