data_image0
_chemical_formula_structural       In14Te20
_chemical_formula_sum              "In14 Te20"
_cell_length_a       10.8018
_cell_length_b       10.8018
_cell_length_c       10.8018
_cell_angle_alpha    88.5769
_cell_angle_beta     91.4231
_cell_angle_gamma    91.4231

_space_group_name_H-M_alt    "P 1"
_space_group_IT_number       1

loop_
  _space_group_symop_operation_xyz
  'x, y, z'

loop_
  _atom_site_type_symbol
  _atom_site_label
  _atom_site_symmetry_multiplicity
  _atom_site_fract_x
  _atom_site_fract_y
  _atom_site_fract_z
  _atom_site_occupancy
  In  In1       1.0  0.85500  0.42600  0.11900  1.0000
  In  In2       1.0  0.57400  0.11900  0.14500  1.0000
  In  In3       1.0  0.67000  0.75200  0.17300  1.0000
  In  In4       1.0  0.33000  0.82700  0.24800  1.0000
  In  In5       1.0  0.24800  0.17300  0.33000  1.0000
  In  In6       1.0  0.88100  0.14500  0.42600  1.0000
  In  In7       1.0  0.57300  0.42700  0.42700  1.0000
  In  In8       1.0  0.42700  0.57300  0.57300  1.0000
  In  In9       1.0  0.14500  0.88100  0.57400  1.0000
  In  In10      1.0  0.17300  0.24800  0.67000  1.0000
  In  In11      1.0  0.82700  0.33000  0.75200  1.0000
  In  In12      1.0  0.75200  0.67000  0.82700  1.0000
  In  In13      1.0  0.11900  0.57400  0.85500  1.0000
  In  In14      1.0  0.42600  0.85500  0.88100  1.0000
  Te  Te1       1.0  0.83900  0.83900  0.00000  1.0000
  Te  Te2       1.0  0.43300  0.66600  0.07120  1.0000
  Te  Te3       1.0  0.10100  0.50000  0.10100  1.0000
  Te  Te4       1.0  0.16100  0.00000  0.16100  1.0000
  Te  Te5       1.0  0.83700  0.16300  0.16300  1.0000
  Te  Te6       1.0  0.43600  0.32800  0.22000  1.0000
  Te  Te7       1.0  0.78000  0.56400  0.32800  1.0000
  Te  Te8       1.0  0.56700  0.92900  0.33400  1.0000
  Te  Te9       1.0  0.07120  0.33400  0.43300  1.0000
  Te  Te10      1.0  0.22000  0.67200  0.43600  1.0000
  Te  Te11      1.0  0.89900  0.89900  0.50000  1.0000
  Te  Te12      1.0  0.67200  0.22000  0.56400  1.0000
  Te  Te13      1.0  0.33400  0.07120  0.56700  1.0000
  Te  Te14      1.0  0.92900  0.56700  0.66600  1.0000
  Te  Te15      1.0  0.56400  0.78000  0.67200  1.0000
  Te  Te16      1.0  0.32800  0.43600  0.78000  1.0000
  Te  Te17      1.0  0.16300  0.83700  0.83700  1.0000
  Te  Te18      1.0  0.00000  0.16100  0.83900  1.0000
  Te  Te19      1.0  0.50000  0.10100  0.89900  1.0000
  Te  Te20      1.0  0.66600  0.43300  0.92900  1.0000
