data_image0
_chemical_formula_structural       I8Np2O24
_chemical_formula_sum              "I8 Np2 O24"
_cell_length_a       9.74391
_cell_length_b       9.74391
_cell_length_c       5.28425
_cell_angle_alpha    90
_cell_angle_beta     90
_cell_angle_gamma    90

_space_group_name_H-M_alt    "P 1"
_space_group_IT_number       1

loop_
  _space_group_symop_operation_xyz
  'x, y, z'

loop_
  _atom_site_type_symbol
  _atom_site_label
  _atom_site_symmetry_multiplicity
  _atom_site_fract_x
  _atom_site_fract_y
  _atom_site_fract_z
  _atom_site_occupancy
  I   I1        1.0  0.97100  0.24800  0.21600  1.0000
  I   I2        1.0  0.52900  0.25200  0.21600  1.0000
  I   I3        1.0  0.24800  0.52900  0.28400  1.0000
  I   I4        1.0  0.25200  0.97100  0.28400  1.0000
  I   I5        1.0  0.74800  0.02930  0.71600  1.0000
  I   I6        1.0  0.75200  0.47100  0.71600  1.0000
  I   I7        1.0  0.47100  0.74800  0.78400  1.0000
  I   I8        1.0  0.02930  0.75200  0.78400  1.0000
  Np  Np1       1.0  0.75000  0.75000  0.25000  1.0000
  Np  Np2       1.0  0.25000  0.25000  0.75000  1.0000
  O   O1        1.0  0.55400  0.65900  0.04980  1.0000
  O   O2        1.0  0.94600  0.84100  0.04980  1.0000
  O   O3        1.0  0.33000  0.09530  0.05680  1.0000
  O   O4        1.0  0.17000  0.40500  0.05680  1.0000
  O   O5        1.0  0.12400  0.66700  0.23900  1.0000
  O   O6        1.0  0.37600  0.83300  0.23900  1.0000
  O   O7        1.0  0.83300  0.12400  0.26100  1.0000
  O   O8        1.0  0.66700  0.37600  0.26100  1.0000
  O   O9        1.0  0.09530  0.17000  0.44300  1.0000
  O   O10       1.0  0.40500  0.33000  0.44300  1.0000
  O   O11       1.0  0.84100  0.55400  0.45000  1.0000
  O   O12       1.0  0.65900  0.94600  0.45000  1.0000
  O   O13       1.0  0.34100  0.05360  0.55000  1.0000
  O   O14       1.0  0.15900  0.44600  0.55000  1.0000
  O   O15       1.0  0.59500  0.67000  0.55700  1.0000
  O   O16       1.0  0.90500  0.83000  0.55700  1.0000
  O   O17       1.0  0.33300  0.62400  0.73900  1.0000
  O   O18       1.0  0.16700  0.87600  0.73900  1.0000
  O   O19       1.0  0.62400  0.16700  0.76100  1.0000
  O   O20       1.0  0.87600  0.33300  0.76100  1.0000
  O   O21       1.0  0.83000  0.59500  0.94300  1.0000
  O   O22       1.0  0.67000  0.90500  0.94300  1.0000
  O   O23       1.0  0.05360  0.15900  0.95000  1.0000
  O   O24       1.0  0.44600  0.34100  0.95000  1.0000
