data_image0
_chemical_formula_structural       I8O24Pu2
_chemical_formula_sum              "I8 O24 Pu2"
_cell_length_a       9.71829
_cell_length_b       9.71829
_cell_length_c       5.27478
_cell_angle_alpha    90
_cell_angle_beta     90
_cell_angle_gamma    90

_space_group_name_H-M_alt    "P 1"
_space_group_IT_number       1

loop_
  _space_group_symop_operation_xyz
  'x, y, z'

loop_
  _atom_site_type_symbol
  _atom_site_label
  _atom_site_symmetry_multiplicity
  _atom_site_fract_x
  _atom_site_fract_y
  _atom_site_fract_z
  _atom_site_occupancy
  I   I1        1.0  0.97100  0.24900  0.21700  1.0000
  I   I2        1.0  0.52900  0.25100  0.21700  1.0000
  I   I3        1.0  0.24900  0.52900  0.28300  1.0000
  I   I4        1.0  0.25100  0.97100  0.28300  1.0000
  I   I5        1.0  0.74900  0.02910  0.71700  1.0000
  I   I6        1.0  0.75100  0.47100  0.71700  1.0000
  I   I7        1.0  0.47100  0.74900  0.78300  1.0000
  I   I8        1.0  0.02910  0.75100  0.78300  1.0000
  O   O1        1.0  0.55500  0.65900  0.04810  1.0000
  O   O2        1.0  0.94500  0.84100  0.04810  1.0000
  O   O3        1.0  0.33000  0.09490  0.05520  1.0000
  O   O4        1.0  0.17000  0.40500  0.05520  1.0000
  O   O5        1.0  0.12500  0.66600  0.24000  1.0000
  O   O6        1.0  0.37500  0.83400  0.24000  1.0000
  O   O7        1.0  0.83400  0.12500  0.26000  1.0000
  O   O8        1.0  0.66600  0.37500  0.26000  1.0000
  O   O9        1.0  0.09490  0.17000  0.44500  1.0000
  O   O10       1.0  0.40500  0.33000  0.44500  1.0000
  O   O11       1.0  0.84100  0.55500  0.45200  1.0000
  O   O12       1.0  0.65900  0.94500  0.45200  1.0000
  O   O13       1.0  0.34100  0.05510  0.54800  1.0000
  O   O14       1.0  0.15900  0.44500  0.54800  1.0000
  O   O15       1.0  0.59500  0.67000  0.55500  1.0000
  O   O16       1.0  0.90500  0.83000  0.55500  1.0000
  O   O17       1.0  0.33400  0.62500  0.74000  1.0000
  O   O18       1.0  0.16600  0.87500  0.74000  1.0000
  O   O19       1.0  0.62500  0.16600  0.76000  1.0000
  O   O20       1.0  0.87500  0.33400  0.76000  1.0000
  O   O21       1.0  0.83000  0.59500  0.94500  1.0000
  O   O22       1.0  0.67000  0.90500  0.94500  1.0000
  O   O23       1.0  0.05510  0.15900  0.95200  1.0000
  O   O24       1.0  0.44500  0.34100  0.95200  1.0000
  Pu  Pu1       1.0  0.75000  0.75000  0.25000  1.0000
  Pu  Pu2       1.0  0.25000  0.25000  0.75000  1.0000
