data_image0
_chemical_formula_structural       Cl4K4N8O16Pt2
_chemical_formula_sum              "Cl4 K4 N8 O16 Pt2"
_cell_length_a       9.03564
_cell_length_b       9.12964
_cell_length_c       7.32211
_cell_angle_alpha    90
_cell_angle_beta     121.116
_cell_angle_gamma    90

_space_group_name_H-M_alt    "P 1"
_space_group_IT_number       1

loop_
  _space_group_symop_operation_xyz
  'x, y, z'

loop_
  _atom_site_type_symbol
  _atom_site_label
  _atom_site_symmetry_multiplicity
  _atom_site_fract_x
  _atom_site_fract_y
  _atom_site_fract_z
  _atom_site_occupancy
  Cl  Cl1       1.0  0.52200  0.37400  0.29300  1.0000
  Cl  Cl2       1.0  0.02200  0.12600  0.29300  1.0000
  Cl  Cl3       1.0  0.47800  0.62600  0.70700  1.0000
  Cl  Cl4       1.0  0.97800  0.87400  0.70700  1.0000
  K   K1        1.0  0.69100  0.06300  0.33700  1.0000
  K   K2        1.0  0.19100  0.43700  0.33700  1.0000
  K   K3        1.0  0.80900  0.56300  0.66300  1.0000
  K   K4        1.0  0.30900  0.93700  0.66300  1.0000
  N   N1        1.0  0.27200  0.01790  0.14100  1.0000
  N   N2        1.0  0.77200  0.48200  0.14100  1.0000
  N   N3        1.0  0.55800  0.69700  0.17400  1.0000
  N   N4        1.0  0.05830  0.80300  0.17400  1.0000
  N   N5        1.0  0.94200  0.19700  0.82600  1.0000
  N   N6        1.0  0.44200  0.30300  0.82600  1.0000
  N   N7        1.0  0.22800  0.51800  0.85900  1.0000
  N   N8        1.0  0.72800  0.98200  0.85900  1.0000
  O   O1        1.0  0.84100  0.53600  0.04780  1.0000
  O   O2        1.0  0.34100  0.96400  0.04780  1.0000
  O   O3        1.0  0.64300  0.78900  0.14200  1.0000
  O   O4        1.0  0.14300  0.71100  0.14200  1.0000
  O   O5        1.0  0.01410  0.78700  0.30700  1.0000
  O   O6        1.0  0.51400  0.71300  0.30700  1.0000
  O   O7        1.0  0.85800  0.42300  0.31800  1.0000
  O   O8        1.0  0.35800  0.07740  0.31800  1.0000
  O   O9        1.0  0.64200  0.92300  0.68200  1.0000
  O   O10       1.0  0.14200  0.57700  0.68200  1.0000
  O   O11       1.0  0.48600  0.28700  0.69300  1.0000
  O   O12       1.0  0.98600  0.21300  0.69300  1.0000
  O   O13       1.0  0.85700  0.28900  0.85800  1.0000
  O   O14       1.0  0.35700  0.21100  0.85800  1.0000
  O   O15       1.0  0.65900  0.03630  0.95200  1.0000
  O   O16       1.0  0.15900  0.46400  0.95200  1.0000
  Pt  Pt1       1.0  0.00000  0.00000  0.00000  1.0000
  Pt  Pt2       1.0  0.50000  0.50000  0.00000  1.0000
