data_image0
_chemical_formula_structural       Al4O20Rb4Si6
_chemical_formula_sum              "Al4 O20 Rb4 Si6"
_cell_length_a       6.50042
_cell_length_b       9.07913
_cell_length_c       9.77076
_cell_angle_alpha    96.8392
_cell_angle_beta     70.5705
_cell_angle_gamma    110.977

_space_group_name_H-M_alt    "P 1"
_space_group_IT_number       1

loop_
  _space_group_symop_operation_xyz
  'x, y, z'

loop_
  _atom_site_type_symbol
  _atom_site_label
  _atom_site_symmetry_multiplicity
  _atom_site_fract_x
  _atom_site_fract_y
  _atom_site_fract_z
  _atom_site_occupancy
  Al  Al1       1.0  0.25100  0.92400  0.19000  1.0000
  Al  Al2       1.0  0.69100  0.42400  0.31000  1.0000
  Al  Al3       1.0  0.57700  0.57600  0.69000  1.0000
  Al  Al4       1.0  0.51700  0.07570  0.81000  1.0000
  O   O1        1.0  0.87700  0.12900  0.08430  1.0000
  O   O2        1.0  0.40300  0.79200  0.11000  1.0000
  O   O3        1.0  0.77700  0.39200  0.12000  1.0000
  O   O4        1.0  0.02610  0.90600  0.12000  1.0000
  O   O5        1.0  0.43700  0.12000  0.16100  1.0000
  O   O6        1.0  0.84800  0.62000  0.33900  1.0000
  O   O7        1.0  0.39600  0.40600  0.38000  1.0000
  O   O8        1.0  0.14700  0.89200  0.38000  1.0000
  O   O9        1.0  0.76300  0.29200  0.39000  1.0000
  O   O10       1.0  0.21100  0.62900  0.41600  1.0000
  O   O11       1.0  0.99700  0.37100  0.58400  1.0000
  O   O12       1.0  0.86100  0.70800  0.61000  1.0000
  O   O13       1.0  0.63500  0.10800  0.62000  1.0000
  O   O14       1.0  0.37100  0.59400  0.62000  1.0000
  O   O15       1.0  0.56700  0.38000  0.66100  1.0000
  O   O16       1.0  0.47800  0.88000  0.83900  1.0000
  O   O17       1.0  0.24100  0.09440  0.88000  1.0000
  O   O18       1.0  0.50500  0.60800  0.88000  1.0000
  O   O19       1.0  0.72100  0.20800  0.89000  1.0000
  O   O20       1.0  0.83200  0.87100  0.91600  1.0000
  Rb  Rb1       1.0  0.26200  0.40200  0.12700  1.0000
  Rb  Rb2       1.0  0.63900  0.90200  0.37300  1.0000
  Rb  Rb3       1.0  0.11000  0.09770  0.62700  1.0000
  Rb  Rb4       1.0  0.98700  0.59800  0.87300  1.0000
  Si  Si1       1.0  0.00055  0.00000  0.00000  1.0000
  Si  Si2       1.0  0.69900  0.21000  0.06080  1.0000
  Si  Si3       1.0  0.00959  0.71000  0.43900  1.0000
  Si  Si4       1.0  0.25100  0.50000  0.50000  1.0000
  Si  Si5       1.0  0.73900  0.29000  0.56100  1.0000
  Si  Si6       1.0  0.54900  0.79000  0.93900  1.0000
