data_image0
_chemical_formula_structural       Sb18V12Zr4
_chemical_formula_sum              "Sb18 V12 Zr4"
_cell_length_a       9.74402
_cell_length_b       9.74402
_cell_length_c       7.2374
_cell_angle_alpha    90
_cell_angle_beta     90
_cell_angle_gamma    90

_space_group_name_H-M_alt    "P 1"
_space_group_IT_number       1

loop_
  _space_group_symop_operation_xyz
  'x, y, z'

loop_
  _atom_site_type_symbol
  _atom_site_label
  _atom_site_symmetry_multiplicity
  _atom_site_fract_x
  _atom_site_fract_y
  _atom_site_fract_z
  _atom_site_occupancy
  Sb  Sb1       1.0  0.25000  0.00271  0.18300  1.0000
  Sb  Sb2       1.0  0.00271  0.25000  0.18300  1.0000
  Sb  Sb3       1.0  0.49700  0.25000  0.18300  1.0000
  Sb  Sb4       1.0  0.25000  0.49700  0.18300  1.0000
  Sb  Sb5       1.0  0.57700  0.57700  0.34400  1.0000
  Sb  Sb6       1.0  0.92300  0.57700  0.34400  1.0000
  Sb  Sb7       1.0  0.57700  0.92300  0.34400  1.0000
  Sb  Sb8       1.0  0.92300  0.92300  0.34400  1.0000
  Sb  Sb9       1.0  0.75000  0.25000  0.50000  1.0000
  Sb  Sb10      1.0  0.25000  0.75000  0.50000  1.0000
  Sb  Sb11      1.0  0.07720  0.07720  0.65600  1.0000
  Sb  Sb12      1.0  0.42300  0.07720  0.65600  1.0000
  Sb  Sb13      1.0  0.07720  0.42300  0.65600  1.0000
  Sb  Sb14      1.0  0.42300  0.42300  0.65600  1.0000
  Sb  Sb15      1.0  0.75000  0.50300  0.81700  1.0000
  Sb  Sb16      1.0  0.50300  0.75000  0.81700  1.0000
  Sb  Sb17      1.0  0.99700  0.75000  0.81700  1.0000
  Sb  Sb18      1.0  0.75000  0.99700  0.81700  1.0000
  V   V1        1.0  0.00000  0.00000  0.00000  1.0000
  V   V2        1.0  0.50000  0.00000  0.00000  1.0000
  V   V3        1.0  0.00000  0.50000  0.00000  1.0000
  V   V4        1.0  0.50000  0.50000  0.00000  1.0000
  V   V5        1.0  0.75000  0.11400  0.15700  1.0000
  V   V6        1.0  0.75000  0.38600  0.15700  1.0000
  V   V7        1.0  0.11400  0.75000  0.15700  1.0000
  V   V8        1.0  0.38600  0.75000  0.15700  1.0000
  V   V9        1.0  0.61400  0.25000  0.84300  1.0000
  V   V10       1.0  0.88600  0.25000  0.84300  1.0000
  V   V11       1.0  0.25000  0.61400  0.84300  1.0000
  V   V12       1.0  0.25000  0.88600  0.84300  1.0000
  Zr  Zr1       1.0  0.75000  0.75000  0.08410  1.0000
  Zr  Zr2       1.0  0.25000  0.25000  0.41600  1.0000
  Zr  Zr3       1.0  0.75000  0.75000  0.58400  1.0000
  Zr  Zr4       1.0  0.25000  0.25000  0.91600  1.0000
