data_image0
_chemical_formula_structural       C14Cr2F4H2N2O10
_chemical_formula_sum              "C14 Cr2 F4 H2 N2 O10"
_cell_length_a       6.17864
_cell_length_b       8.17902
_cell_length_c       9.08312
_cell_angle_alpha    82.4012
_cell_angle_beta     70.119
_cell_angle_gamma    83.0227

_space_group_name_H-M_alt    "P 1"
_space_group_IT_number       1

loop_
  _space_group_symop_operation_xyz
  'x, y, z'

loop_
  _atom_site_type_symbol
  _atom_site_label
  _atom_site_symmetry_multiplicity
  _atom_site_fract_x
  _atom_site_fract_y
  _atom_site_fract_z
  _atom_site_occupancy
  C   C1        1.0  0.16600  0.14200  0.02140  1.0000
  C   C2        1.0  0.47400  0.24500  0.12000  1.0000
  C   C3        1.0  0.04630  0.40800  0.18800  1.0000
  C   C4        1.0  0.27400  0.96200  0.26100  1.0000
  C   C5        1.0  0.86100  0.12600  0.31700  1.0000
  C   C6        1.0  0.44500  0.67200  0.32400  1.0000
  C   C7        1.0  0.17600  0.23500  0.41500  1.0000
  C   C8        1.0  0.82400  0.76500  0.58500  1.0000
  C   C9        1.0  0.55500  0.32800  0.67600  1.0000
  C   C10       1.0  0.13900  0.87400  0.68300  1.0000
  C   C11       1.0  0.72600  0.03780  0.73900  1.0000
  C   C12       1.0  0.95400  0.59200  0.81200  1.0000
  C   C13       1.0  0.52600  0.75500  0.88000  1.0000
  C   C14       1.0  0.83400  0.85800  0.97900  1.0000
  Cr  Cr1       1.0  0.16700  0.18700  0.22000  1.0000
  Cr  Cr2       1.0  0.83300  0.81300  0.78000  1.0000
  F   F1        1.0  0.47100  0.56700  0.21300  1.0000
  F   F2        1.0  0.31200  0.59800  0.46600  1.0000
  F   F3        1.0  0.68800  0.40200  0.53400  1.0000
  F   F4        1.0  0.52900  0.43300  0.78700  1.0000
  H   H1        1.0  0.61400  0.68900  0.33100  1.0000
  H   H2        1.0  0.38600  0.31100  0.66900  1.0000
  N   N1        1.0  0.32900  0.82100  0.28800  1.0000
  N   N2        1.0  0.67100  0.17900  0.71200  1.0000
  O   O1        1.0  0.66200  0.27900  0.05750  1.0000
  O   O2        1.0  0.82700  0.88600  0.10200  1.0000
  O   O3        1.0  0.96600  0.54200  0.17400  1.0000
  O   O4        1.0  0.67400  0.08980  0.37800  1.0000
  O   O5        1.0  0.82300  0.73400  0.46500  1.0000
  O   O6        1.0  0.17700  0.26600  0.53500  1.0000
  O   O7        1.0  0.32600  0.91000  0.62200  1.0000
  O   O8        1.0  0.03380  0.45800  0.82600  1.0000
  O   O9        1.0  0.17300  0.11400  0.89800  1.0000
  O   O10       1.0  0.33800  0.72100  0.94200  1.0000
