data_image0
_chemical_formula_structural       B8Cu2Er4O20
_chemical_formula_sum              "B8 Cu2 Er4 O20"
_cell_length_a       4.52404
_cell_length_b       7.19086
_cell_length_c       9.27671
_cell_angle_alpha    90
_cell_angle_beta     90.4929
_cell_angle_gamma    90

_space_group_name_H-M_alt    "P 1"
_space_group_IT_number       1

loop_
  _space_group_symop_operation_xyz
  'x, y, z'

loop_
  _atom_site_type_symbol
  _atom_site_label
  _atom_site_symmetry_multiplicity
  _atom_site_fract_x
  _atom_site_fract_y
  _atom_site_fract_z
  _atom_site_occupancy
  B   B1        1.0  0.46500  0.73100  0.08130  1.0000
  B   B2        1.0  0.46800  0.09750  0.16200  1.0000
  B   B3        1.0  0.53200  0.59700  0.33800  1.0000
  B   B4        1.0  0.53500  0.23100  0.41900  1.0000
  B   B5        1.0  0.46500  0.76900  0.58100  1.0000
  B   B6        1.0  0.46800  0.40300  0.66200  1.0000
  B   B7        1.0  0.53200  0.90300  0.83800  1.0000
  B   B8        1.0  0.53500  0.26900  0.91900  1.0000
  Cu  Cu1       1.0  0.00000  0.00000  0.00000  1.0000
  Cu  Cu2       1.0  0.00000  0.50000  0.50000  1.0000
  Er  Er1       1.0  0.00336  0.39600  0.16500  1.0000
  Er  Er2       1.0  0.99700  0.89600  0.33500  1.0000
  Er  Er3       1.0  0.00336  0.10400  0.66500  1.0000
  Er  Er4       1.0  0.99700  0.60400  0.83500  1.0000
  O   O1        1.0  0.23500  0.60800  0.04080  1.0000
  O   O2        1.0  0.35000  0.22000  0.04540  1.0000
  O   O3        1.0  0.32100  0.91000  0.13900  1.0000
  O   O4        1.0  0.78500  0.09110  0.16600  1.0000
  O   O5        1.0  0.66600  0.66600  0.20000  1.0000
  O   O6        1.0  0.33400  0.16600  0.30000  1.0000
  O   O7        1.0  0.21500  0.59100  0.33400  1.0000
  O   O8        1.0  0.67900  0.41000  0.36100  1.0000
  O   O9        1.0  0.65000  0.72000  0.45500  1.0000
  O   O10       1.0  0.76500  0.10800  0.45900  1.0000
  O   O11       1.0  0.23500  0.89200  0.54100  1.0000
  O   O12       1.0  0.35000  0.28000  0.54500  1.0000
  O   O13       1.0  0.32100  0.59000  0.63900  1.0000
  O   O14       1.0  0.78500  0.40900  0.66600  1.0000
  O   O15       1.0  0.66600  0.83400  0.70000  1.0000
  O   O16       1.0  0.33400  0.33400  0.80000  1.0000
  O   O17       1.0  0.21500  0.90900  0.83400  1.0000
  O   O18       1.0  0.67900  0.08990  0.86100  1.0000
  O   O19       1.0  0.65000  0.78000  0.95500  1.0000
  O   O20       1.0  0.76500  0.39200  0.95900  1.0000
