data_image0
_chemical_formula_structural       Au20Ca8In6
_chemical_formula_sum              "Au20 Ca8 In6"
_cell_length_a       8.60629
_cell_length_b       8.60629
_cell_length_c       10.2773
_cell_angle_alpha    90
_cell_angle_beta     90
_cell_angle_gamma    72.3413

_space_group_name_H-M_alt    "P 1"
_space_group_IT_number       1

loop_
  _space_group_symop_operation_xyz
  'x, y, z'

loop_
  _atom_site_type_symbol
  _atom_site_label
  _atom_site_symmetry_multiplicity
  _atom_site_fract_x
  _atom_site_fract_y
  _atom_site_fract_z
  _atom_site_occupancy
  Au  Au1       1.0  0.06560  0.65100  0.01630  1.0000
  Au  Au2       1.0  0.34900  0.93400  0.01630  1.0000
  Au  Au3       1.0  0.40200  0.59800  0.09640  1.0000
  Au  Au4       1.0  0.11500  0.16800  0.20800  1.0000
  Au  Au5       1.0  0.83200  0.88500  0.20800  1.0000
  Au  Au6       1.0  0.33200  0.38500  0.29200  1.0000
  Au  Au7       1.0  0.61500  0.66800  0.29200  1.0000
  Au  Au8       1.0  0.90200  0.09840  0.40400  1.0000
  Au  Au9       1.0  0.56600  0.15100  0.48400  1.0000
  Au  Au10      1.0  0.84900  0.43400  0.48400  1.0000
  Au  Au11      1.0  0.15100  0.56600  0.51600  1.0000
  Au  Au12      1.0  0.43400  0.84900  0.51600  1.0000
  Au  Au13      1.0  0.09840  0.90200  0.59600  1.0000
  Au  Au14      1.0  0.38500  0.33200  0.70800  1.0000
  Au  Au15      1.0  0.66800  0.61500  0.70800  1.0000
  Au  Au16      1.0  0.16800  0.11500  0.79200  1.0000
  Au  Au17      1.0  0.88500  0.83200  0.79200  1.0000
  Au  Au18      1.0  0.59800  0.40200  0.90400  1.0000
  Au  Au19      1.0  0.65100  0.06560  0.98400  1.0000
  Au  Au20      1.0  0.93400  0.34900  0.98400  1.0000
  Ca  Ca1       1.0  0.30300  0.30300  0.00000  1.0000
  Ca  Ca2       1.0  0.69700  0.69700  0.00000  1.0000
  Ca  Ca3       1.0  0.69700  0.30300  0.20200  1.0000
  Ca  Ca4       1.0  0.19700  0.80300  0.29800  1.0000
  Ca  Ca5       1.0  0.19700  0.19700  0.50000  1.0000
  Ca  Ca6       1.0  0.80300  0.80300  0.50000  1.0000
  Ca  Ca7       1.0  0.80300  0.19700  0.70200  1.0000
  Ca  Ca8       1.0  0.30300  0.69700  0.79800  1.0000
  In  In1       1.0  0.00000  0.00000  0.00000  1.0000
  In  In2       1.0  0.48000  0.02000  0.25000  1.0000
  In  In3       1.0  0.98000  0.52000  0.25000  1.0000
  In  In4       1.0  0.50000  0.50000  0.50000  1.0000
  In  In5       1.0  0.02000  0.48000  0.75000  1.0000
  In  In6       1.0  0.52000  0.98000  0.75000  1.0000
