data_image0
_chemical_formula_structural       Co6Cs8F20
_chemical_formula_sum              "Co6 Cs8 F20"
_cell_length_a       6.05564
_cell_length_b       7.68363
_cell_length_c       13.4042
_cell_angle_alpha    90
_cell_angle_beta     90
_cell_angle_gamma    66.7926

_space_group_name_H-M_alt    "P 1"
_space_group_IT_number       1

loop_
  _space_group_symop_operation_xyz
  'x, y, z'

loop_
  _atom_site_type_symbol
  _atom_site_label
  _atom_site_symmetry_multiplicity
  _atom_site_fract_x
  _atom_site_fract_y
  _atom_site_fract_z
  _atom_site_occupancy
  Co  Co1       1.0  0.00000  0.00000  0.00000  1.0000
  Co  Co2       1.0  0.88200  0.23500  0.15100  1.0000
  Co  Co3       1.0  0.38200  0.23500  0.34900  1.0000
  Co  Co4       1.0  0.50000  0.00000  0.50000  1.0000
  Co  Co5       1.0  0.61800  0.76500  0.65100  1.0000
  Co  Co6       1.0  0.11800  0.76500  0.84900  1.0000
  Cs  Cs1       1.0  0.24200  0.51600  0.11400  1.0000
  Cs  Cs2       1.0  0.54600  0.90900  0.13900  1.0000
  Cs  Cs3       1.0  0.04570  0.90900  0.36100  1.0000
  Cs  Cs4       1.0  0.74200  0.51600  0.38600  1.0000
  Cs  Cs5       1.0  0.25800  0.48400  0.61400  1.0000
  Cs  Cs6       1.0  0.95400  0.09140  0.63900  1.0000
  Cs  Cs7       1.0  0.45400  0.09140  0.86100  1.0000
  Cs  Cs8       1.0  0.75800  0.48400  0.88600  1.0000
  F   F1        1.0  0.12200  0.20700  0.03410  1.0000
  F   F2        1.0  0.67200  0.20700  0.03410  1.0000
  F   F3        1.0  0.74400  0.51100  0.14700  1.0000
  F   F4        1.0  0.03180  0.93600  0.14800  1.0000
  F   F5        1.0  0.13600  0.22800  0.25000  1.0000
  F   F6        1.0  0.63600  0.22800  0.25000  1.0000
  F   F7        1.0  0.53200  0.93600  0.35200  1.0000
  F   F8        1.0  0.24400  0.51100  0.35300  1.0000
  F   F9        1.0  0.17200  0.20700  0.46600  1.0000
  F   F10       1.0  0.62200  0.20700  0.46600  1.0000
  F   F11       1.0  0.37800  0.79300  0.53400  1.0000
  F   F12       1.0  0.82800  0.79300  0.53400  1.0000
  F   F13       1.0  0.75600  0.48900  0.64700  1.0000
  F   F14       1.0  0.46800  0.06350  0.64800  1.0000
  F   F15       1.0  0.36400  0.77200  0.75000  1.0000
  F   F16       1.0  0.86400  0.77200  0.75000  1.0000
  F   F17       1.0  0.96800  0.06350  0.85200  1.0000
  F   F18       1.0  0.25600  0.48900  0.85300  1.0000
  F   F19       1.0  0.32800  0.79300  0.96600  1.0000
  F   F20       1.0  0.87800  0.79300  0.96600  1.0000
