data_image0
_chemical_formula_structural       O22Rb4Sb8
_chemical_formula_sum              "O22 Rb4 Sb8"
_cell_length_a       7.22039
_cell_length_b       7.58599
_cell_length_c       10.4718
_cell_angle_alpha    111.236
_cell_angle_beta     94.5492
_cell_angle_gamma    90

_space_group_name_H-M_alt    "P 1"
_space_group_IT_number       1

loop_
  _space_group_symop_operation_xyz
  'x, y, z'

loop_
  _atom_site_type_symbol
  _atom_site_label
  _atom_site_symmetry_multiplicity
  _atom_site_fract_x
  _atom_site_fract_y
  _atom_site_fract_z
  _atom_site_occupancy
  O   O1        1.0  0.00000  0.17400  0.00000  1.0000
  O   O2        1.0  0.00000  0.82600  0.00000  1.0000
  O   O3        1.0  0.34500  0.02440  0.04870  1.0000
  O   O4        1.0  0.57200  0.34500  0.17500  1.0000
  O   O5        1.0  0.57200  0.83000  0.17500  1.0000
  O   O6        1.0  0.86800  0.12000  0.24100  1.0000
  O   O7        1.0  0.18600  0.33100  0.25900  1.0000
  O   O8        1.0  0.18600  0.92900  0.25900  1.0000
  O   O9        1.0  0.35100  0.66000  0.31900  1.0000
  O   O10       1.0  0.50900  0.16700  0.33500  1.0000
  O   O11       1.0  0.67000  0.52500  0.47100  1.0000
  O   O12       1.0  0.67000  0.94700  0.47100  1.0000
  O   O13       1.0  0.33000  0.05320  0.52900  1.0000
  O   O14       1.0  0.33000  0.47500  0.52900  1.0000
  O   O15       1.0  0.49100  0.83300  0.66500  1.0000
  O   O16       1.0  0.64900  0.34000  0.68100  1.0000
  O   O17       1.0  0.81400  0.07150  0.74100  1.0000
  O   O18       1.0  0.81400  0.66900  0.74100  1.0000
  O   O19       1.0  0.13200  0.88000  0.75900  1.0000
  O   O20       1.0  0.42800  0.17000  0.82500  1.0000
  O   O21       1.0  0.42800  0.65500  0.82500  1.0000
  O   O22       1.0  0.65500  0.97600  0.95100  1.0000
  Rb  Rb1       1.0  0.25200  0.50700  0.01490  1.0000
  Rb  Rb2       1.0  0.00530  0.73300  0.46600  1.0000
  Rb  Rb3       1.0  0.99500  0.26700  0.53400  1.0000
  Rb  Rb4       1.0  0.74800  0.49300  0.98500  1.0000
  Sb  Sb1       1.0  0.09720  0.07230  0.14500  1.0000
  Sb  Sb2       1.0  0.61900  0.07570  0.15100  1.0000
  Sb  Sb3       1.0  0.43600  0.43300  0.34900  1.0000
  Sb  Sb4       1.0  0.43600  0.91600  0.34900  1.0000
  Sb  Sb5       1.0  0.56400  0.08400  0.65100  1.0000
  Sb  Sb6       1.0  0.56400  0.56700  0.65100  1.0000
  Sb  Sb7       1.0  0.38100  0.92400  0.84900  1.0000
  Sb  Sb8       1.0  0.90300  0.92800  0.85500  1.0000
