data_image0
_chemical_formula_structural       B4Ge6K4O20
_chemical_formula_sum              "B4 Ge6 K4 O20"
_cell_length_a       6.11452
_cell_length_b       8.40996
_cell_length_c       9.3824
_cell_angle_alpha    97.4342
_cell_angle_beta     109.017
_cell_angle_gamma    68.683

_space_group_name_H-M_alt    "P 1"
_space_group_IT_number       1

loop_
  _space_group_symop_operation_xyz
  'x, y, z'

loop_
  _atom_site_type_symbol
  _atom_site_label
  _atom_site_symmetry_multiplicity
  _atom_site_fract_x
  _atom_site_fract_y
  _atom_site_fract_z
  _atom_site_occupancy
  B   B1        1.0  0.68800  0.79100  0.07480  1.0000
  B   B2        1.0  0.38300  0.27800  0.44800  1.0000
  B   B3        1.0  0.21300  0.72200  0.55200  1.0000
  B   B4        1.0  0.40400  0.20900  0.92500  1.0000
  Ge  Ge1       1.0  0.89600  0.00000  0.00000  1.0000
  Ge  Ge2       1.0  0.36500  0.09140  0.17800  1.0000
  Ge  Ge3       1.0  0.94600  0.55900  0.31400  1.0000
  Ge  Ge4       1.0  0.63800  0.50000  0.50000  1.0000
  Ge  Ge5       1.0  0.19100  0.44100  0.68600  1.0000
  Ge  Ge6       1.0  0.27900  0.90900  0.82200  1.0000
  K   K1        1.0  0.31500  0.59300  0.11800  1.0000
  K   K2        1.0  0.95200  0.08970  0.38300  1.0000
  K   K3        1.0  0.65800  0.91000  0.61700  1.0000
  K   K4        1.0  0.79000  0.40700  0.88200  1.0000
  O   O1        1.0  0.47200  0.21200  0.09280  1.0000
  O   O2        1.0  0.03740  0.14500  0.11500  1.0000
  O   O3        1.0  0.81700  0.61100  0.12200  1.0000
  O   O4        1.0  0.87600  0.87700  0.12800  1.0000
  O   O5        1.0  0.48800  0.86900  0.14400  1.0000
  O   O6        1.0  0.23900  0.40600  0.32600  1.0000
  O   O7        1.0  0.74600  0.46200  0.33900  1.0000
  O   O8        1.0  0.45000  0.10800  0.37600  1.0000
  O   O9        1.0  0.96900  0.72400  0.44900  1.0000
  O   O10       1.0  0.38900  0.69200  0.46500  1.0000
  O   O11       1.0  0.61700  0.30800  0.53500  1.0000
  O   O12       1.0  0.24500  0.27600  0.55100  1.0000
  O   O13       1.0  0.18200  0.89200  0.62400  1.0000
  O   O14       1.0  0.86800  0.53800  0.66100  1.0000
  O   O15       1.0  0.31800  0.59400  0.67400  1.0000
  O   O16       1.0  0.21300  0.13100  0.85600  1.0000
  O   O17       1.0  0.62400  0.12300  0.87200  1.0000
  O   O18       1.0  0.30600  0.38900  0.87800  1.0000
  O   O19       1.0  0.06720  0.85500  0.88500  1.0000
  O   O20       1.0  0.59100  0.78800  0.90700  1.0000
