data_image0
_chemical_formula_structural       Ga14Te20
_chemical_formula_sum              "Ga14 Te20"
_cell_length_a       10.3412
_cell_length_b       10.3412
_cell_length_c       10.3412
_cell_angle_alpha    90.5902
_cell_angle_beta     89.4098
_cell_angle_gamma    90.5902

_space_group_name_H-M_alt    "P 1"
_space_group_IT_number       1

loop_
  _space_group_symop_operation_xyz
  'x, y, z'

loop_
  _atom_site_type_symbol
  _atom_site_label
  _atom_site_symmetry_multiplicity
  _atom_site_fract_x
  _atom_site_fract_y
  _atom_site_fract_z
  _atom_site_occupancy
  Ga  Ga1       1.0  0.42400  0.84900  0.11700  1.0000
  Ga  Ga2       1.0  0.11700  0.57600  0.15100  1.0000
  Ga  Ga3       1.0  0.74800  0.66200  0.16800  1.0000
  Ga  Ga4       1.0  0.83200  0.33800  0.25200  1.0000
  Ga  Ga5       1.0  0.16800  0.25200  0.33800  1.0000
  Ga  Ga6       1.0  0.15100  0.88300  0.42400  1.0000
  Ga  Ga7       1.0  0.43100  0.56900  0.43100  1.0000
  Ga  Ga8       1.0  0.56900  0.43100  0.56900  1.0000
  Ga  Ga9       1.0  0.88300  0.15100  0.57600  1.0000
  Ga  Ga10      1.0  0.25200  0.16800  0.66200  1.0000
  Ga  Ga11      1.0  0.33800  0.83200  0.74800  1.0000
  Ga  Ga12      1.0  0.66200  0.74800  0.83200  1.0000
  Ga  Ga13      1.0  0.57600  0.11700  0.84900  1.0000
  Ga  Ga14      1.0  0.84900  0.42400  0.88300  1.0000
  Te  Te1       1.0  0.82900  0.82900  0.00000  1.0000
  Te  Te2       1.0  0.67000  0.43000  0.07220  1.0000
  Te  Te3       1.0  0.50000  0.08910  0.08910  1.0000
  Te  Te4       1.0  0.16700  0.83300  0.16700  1.0000
  Te  Te5       1.0  0.00000  0.17100  0.17100  1.0000
  Te  Te6       1.0  0.32000  0.43600  0.23300  1.0000
  Te  Te7       1.0  0.56400  0.76700  0.32000  1.0000
  Te  Te8       1.0  0.92800  0.57000  0.33000  1.0000
  Te  Te9       1.0  0.33000  0.07220  0.43000  1.0000
  Te  Te10      1.0  0.68000  0.23300  0.43600  1.0000
  Te  Te11      1.0  0.91100  0.91100  0.50000  1.0000
  Te  Te12      1.0  0.23300  0.68000  0.56400  1.0000
  Te  Te13      1.0  0.07220  0.33000  0.57000  1.0000
  Te  Te14      1.0  0.57000  0.92800  0.67000  1.0000
  Te  Te15      1.0  0.76700  0.56400  0.68000  1.0000
  Te  Te16      1.0  0.43600  0.32000  0.76700  1.0000
  Te  Te17      1.0  0.17100  0.00000  0.82900  1.0000
  Te  Te18      1.0  0.83300  0.16700  0.83300  1.0000
  Te  Te19      1.0  0.08910  0.50000  0.91100  1.0000
  Te  Te20      1.0  0.43000  0.67000  0.92800  1.0000
