data_image0
_chemical_formula_structural       Mo4Ni6O22Te2
_chemical_formula_sum              "Mo4 Ni6 O22 Te2"
_cell_length_a       6.46267
_cell_length_b       6.46267
_cell_length_c       10.0255
_cell_angle_alpha    99.759
_cell_angle_beta     80.241
_cell_angle_gamma    94.9094

_space_group_name_H-M_alt    "P 1"
_space_group_IT_number       1

loop_
  _space_group_symop_operation_xyz
  'x, y, z'

loop_
  _atom_site_type_symbol
  _atom_site_label
  _atom_site_symmetry_multiplicity
  _atom_site_fract_x
  _atom_site_fract_y
  _atom_site_fract_z
  _atom_site_occupancy
  Mo  Mo1       1.0  0.96700  0.03300  0.23500  1.0000
  Mo  Mo2       1.0  0.21400  0.21400  0.50000  1.0000
  Mo  Mo3       1.0  0.78600  0.78600  0.50000  1.0000
  Mo  Mo4       1.0  0.03300  0.96700  0.76500  1.0000
  Ni  Ni1       1.0  0.08870  0.56300  0.13000  1.0000
  Ni  Ni2       1.0  0.43700  0.91100  0.13000  1.0000
  Ni  Ni3       1.0  0.26000  0.74000  0.38800  1.0000
  Ni  Ni4       1.0  0.74000  0.26000  0.61200  1.0000
  Ni  Ni5       1.0  0.56300  0.08870  0.87000  1.0000
  Ni  Ni6       1.0  0.91100  0.43700  0.87000  1.0000
  O   O1        1.0  0.46500  0.19900  0.06860  1.0000
  O   O2        1.0  0.80100  0.53500  0.06860  1.0000
  O   O3        1.0  0.13200  0.86800  0.09830  1.0000
  O   O4        1.0  0.38000  0.62000  0.19200  1.0000
  O   O5        1.0  0.02810  0.28800  0.19600  1.0000
  O   O6        1.0  0.71200  0.97200  0.19600  1.0000
  O   O7        1.0  0.27600  0.03430  0.32700  1.0000
  O   O8        1.0  0.96600  0.72400  0.32700  1.0000
  O   O9        1.0  0.89300  0.10700  0.43700  1.0000
  O   O10       1.0  0.22100  0.45600  0.44200  1.0000
  O   O11       1.0  0.54400  0.77900  0.44200  1.0000
  O   O12       1.0  0.45600  0.22100  0.55800  1.0000
  O   O13       1.0  0.77900  0.54400  0.55800  1.0000
  O   O14       1.0  0.10700  0.89300  0.56300  1.0000
  O   O15       1.0  0.03430  0.27600  0.67300  1.0000
  O   O16       1.0  0.72400  0.96600  0.67300  1.0000
  O   O17       1.0  0.28800  0.02810  0.80400  1.0000
  O   O18       1.0  0.97200  0.71200  0.80400  1.0000
  O   O19       1.0  0.62000  0.38000  0.80800  1.0000
  O   O20       1.0  0.86800  0.13200  0.90200  1.0000
  O   O21       1.0  0.19900  0.46500  0.93100  1.0000
  O   O22       1.0  0.53500  0.80100  0.93100  1.0000
  Te  Te1       1.0  0.58600  0.41400  0.18800  1.0000
  Te  Te2       1.0  0.41400  0.58600  0.81200  1.0000
