data_image0
_chemical_formula_structural       Lu6Mn6O18
_chemical_formula_sum              "Lu6 Mn6 O18"
_cell_length_a       5.98344
_cell_length_b       5.98354
_cell_length_c       11.3263
_cell_angle_alpha    90.0002
_cell_angle_beta     89.9998
_cell_angle_gamma    120.058

_space_group_name_H-M_alt    "P 1"
_space_group_IT_number       1

loop_
  _space_group_symop_operation_xyz
  'x, y, z'

loop_
  _atom_site_type_symbol
  _atom_site_label
  _atom_site_symmetry_multiplicity
  _atom_site_fract_x
  _atom_site_fract_y
  _atom_site_fract_z
  _atom_site_occupancy
  Lu  Lu1       1.0  0.00000  0.00000  0.27700  1.0000
  Lu  Lu2       1.0  0.00003  0.00002  0.77700  1.0000
  Lu  Lu3       1.0  0.33300  0.66700  0.23100  1.0000
  Lu  Lu4       1.0  0.66700  0.33300  0.73100  1.0000
  Lu  Lu5       1.0  0.33300  0.66700  0.73100  1.0000
  Lu  Lu6       1.0  0.66700  0.33300  0.23100  1.0000
  Mn  Mn1       1.0  0.33300  1.00000  0.00115  1.0000
  Mn  Mn2       1.0  0.66700  0.00012  0.50100  1.0000
  Mn  Mn3       1.0  0.00000  0.33300  0.00115  1.0000
  Mn  Mn4       1.0  0.66700  0.66700  0.00116  1.0000
  Mn  Mn5       1.0  0.33300  0.33300  0.50100  1.0000
  Mn  Mn6       1.0  0.00013  0.66700  0.50100  1.0000
  O   O1        1.0  0.33400  0.66700  0.02430  1.0000
  O   O2        1.0  0.66600  0.33300  0.52400  1.0000
  O   O3        1.0  0.33300  0.66600  0.52400  1.0000
  O   O4        1.0  0.66700  0.33400  0.02430  1.0000
  O   O5        1.0  0.00000  0.00000  0.47400  1.0000
  O   O6        1.0  0.00023  0.00023  0.97400  1.0000
  O   O7        1.0  0.63600  0.00007  0.33600  1.0000
  O   O8        1.0  0.36400  0.00000  0.83600  1.0000
  O   O9        1.0  0.00007  0.63600  0.33500  1.0000
  O   O10       1.0  0.36500  0.36400  0.33500  1.0000
  O   O11       1.0  0.63600  0.63600  0.83500  1.0000
  O   O12       1.0  0.00000  0.36400  0.83600  1.0000
  O   O13       1.0  0.30200  0.00000  0.16700  1.0000
  O   O14       1.0  0.69800  0.00009  0.66700  1.0000
  O   O15       1.0  0.00000  0.30200  0.16700  1.0000
  O   O16       1.0  0.69800  0.69800  0.16700  1.0000
  O   O17       1.0  0.30200  0.30200  0.66700  1.0000
  O   O18       1.0  0.00010  0.69800  0.66700  1.0000
