data_image0
_chemical_formula_structural       B10Cu2O20Tb2
_chemical_formula_sum              "B10 Cu2 O20 Tb2"
_cell_length_a       6.1883
_cell_length_b       8.2429
_cell_length_c       8.2429
_cell_angle_alpha    101.207
_cell_angle_beta     112.047
_cell_angle_gamma    112.047

_space_group_name_H-M_alt    "P 1"
_space_group_IT_number       1

loop_
  _space_group_symop_operation_xyz
  'x, y, z'

loop_
  _atom_site_type_symbol
  _atom_site_label
  _atom_site_symmetry_multiplicity
  _atom_site_fract_x
  _atom_site_fract_y
  _atom_site_fract_z
  _atom_site_occupancy
  B   B1        1.0  0.07130  0.23400  0.14400  1.0000
  B   B2        1.0  0.69300  0.35600  0.26600  1.0000
  B   B3        1.0  0.00000  0.69700  0.30300  1.0000
  B   B4        1.0  0.07120  0.03830  0.34000  1.0000
  B   B5        1.0  0.69300  0.16000  0.46200  1.0000
  B   B6        1.0  0.30700  0.73400  0.64400  1.0000
  B   B7        1.0  0.92900  0.85600  0.76600  1.0000
  B   B8        1.0  0.00000  0.19700  0.80300  1.0000
  B   B9        1.0  0.30700  0.53800  0.84000  1.0000
  B   B10       1.0  0.92900  0.66000  0.96200  1.0000
  Cu  Cu1       1.0  0.50000  0.94700  0.05310  1.0000
  Cu  Cu2       1.0  0.50000  0.44700  0.55300  1.0000
  O   O1        1.0  0.40400  0.68000  0.00423  1.0000
  O   O2        1.0  0.59500  0.21400  0.10200  1.0000
  O   O3        1.0  0.05630  0.66700  0.14500  1.0000
  O   O4        1.0  0.96800  0.06600  0.17200  1.0000
  O   O5        1.0  0.75500  0.53800  0.27200  1.0000
  O   O6        1.0  0.28000  0.39800  0.28600  1.0000
  O   O7        1.0  0.59600  0.99600  0.32000  1.0000
  O   O8        1.0  0.94400  0.85500  0.33300  1.0000
  O   O9        1.0  0.73000  0.32800  0.43400  1.0000
  O   O10       1.0  0.24500  0.72800  0.46200  1.0000
  O   O11       1.0  0.28000  0.18000  0.50400  1.0000
  O   O12       1.0  0.72000  0.71400  0.60200  1.0000
  O   O13       1.0  0.75500  0.16700  0.64500  1.0000
  O   O14       1.0  0.27000  0.56600  0.67200  1.0000
  O   O15       1.0  0.05590  0.03820  0.77200  1.0000
  O   O16       1.0  0.40500  0.89800  0.78600  1.0000
  O   O17       1.0  0.72000  0.49600  0.82000  1.0000
  O   O18       1.0  0.24500  0.35500  0.83300  1.0000
  O   O19       1.0  0.03200  0.82800  0.93400  1.0000
  O   O20       1.0  0.94400  0.22800  0.96200  1.0000
  Tb  Tb1       1.0  0.50000  0.69700  0.30300  1.0000
  Tb  Tb2       1.0  0.50000  0.19700  0.80300  1.0000
