data_image0
_chemical_formula_structural       B8Cu2O20Tm4
_chemical_formula_sum              "B8 Cu2 O20 Tm4"
_cell_length_a       4.50963
_cell_length_b       7.16529
_cell_length_c       9.26001
_cell_angle_alpha    90
_cell_angle_beta     90.4126
_cell_angle_gamma    90

_space_group_name_H-M_alt    "P 1"
_space_group_IT_number       1

loop_
  _space_group_symop_operation_xyz
  'x, y, z'

loop_
  _atom_site_type_symbol
  _atom_site_label
  _atom_site_symmetry_multiplicity
  _atom_site_fract_x
  _atom_site_fract_y
  _atom_site_fract_z
  _atom_site_occupancy
  B   B1        1.0  0.46600  0.73100  0.08080  1.0000
  B   B2        1.0  0.46800  0.09740  0.16200  1.0000
  B   B3        1.0  0.53200  0.59700  0.33800  1.0000
  B   B4        1.0  0.53400  0.23100  0.41900  1.0000
  B   B5        1.0  0.46600  0.76900  0.58100  1.0000
  B   B6        1.0  0.46800  0.40300  0.66200  1.0000
  B   B7        1.0  0.53200  0.90300  0.83800  1.0000
  B   B8        1.0  0.53400  0.26900  0.91900  1.0000
  Cu  Cu1       1.0  0.00000  0.00000  0.00000  1.0000
  Cu  Cu2       1.0  0.00000  0.50000  0.50000  1.0000
  O   O1        1.0  0.23500  0.60700  0.04010  1.0000
  O   O2        1.0  0.34800  0.22000  0.04590  1.0000
  O   O3        1.0  0.32000  0.90900  0.13900  1.0000
  O   O4        1.0  0.78500  0.09110  0.16600  1.0000
  O   O5        1.0  0.66800  0.66600  0.20000  1.0000
  O   O6        1.0  0.33200  0.16600  0.30000  1.0000
  O   O7        1.0  0.21500  0.59100  0.33400  1.0000
  O   O8        1.0  0.68000  0.40900  0.36100  1.0000
  O   O9        1.0  0.65200  0.72000  0.45400  1.0000
  O   O10       1.0  0.76500  0.10700  0.46000  1.0000
  O   O11       1.0  0.23500  0.89300  0.54000  1.0000
  O   O12       1.0  0.34800  0.28000  0.54600  1.0000
  O   O13       1.0  0.32000  0.59100  0.63900  1.0000
  O   O14       1.0  0.78500  0.40900  0.66600  1.0000
  O   O15       1.0  0.66800  0.83400  0.70000  1.0000
  O   O16       1.0  0.33200  0.33400  0.80000  1.0000
  O   O17       1.0  0.21500  0.90900  0.83400  1.0000
  O   O18       1.0  0.68000  0.09110  0.86100  1.0000
  O   O19       1.0  0.65200  0.78000  0.95400  1.0000
  O   O20       1.0  0.76500  0.39300  0.96000  1.0000
  Tm  Tm1       1.0  0.00252  0.39700  0.16500  1.0000
  Tm  Tm2       1.0  0.99700  0.89700  0.33500  1.0000
  Tm  Tm3       1.0  0.00251  0.10300  0.66500  1.0000
  Tm  Tm4       1.0  0.99700  0.60300  0.83500  1.0000
