data_image0
_chemical_formula_structural       B8Ho4Ni2O20
_chemical_formula_sum              "B8 Ho4 Ni2 O20"
_cell_length_a       4.4912
_cell_length_b       7.1997
_cell_length_c       9.3378
_cell_angle_alpha    90
_cell_angle_beta     91.2799
_cell_angle_gamma    90

_space_group_name_H-M_alt    "P 1"
_space_group_IT_number       1

loop_
  _space_group_symop_operation_xyz
  'x, y, z'

loop_
  _atom_site_type_symbol
  _atom_site_label
  _atom_site_symmetry_multiplicity
  _atom_site_fract_x
  _atom_site_fract_y
  _atom_site_fract_z
  _atom_site_occupancy
  B   B1        1.0  0.47200  0.73400  0.08480  1.0000
  B   B2        1.0  0.46300  0.09550  0.16100  1.0000
  B   B3        1.0  0.53700  0.59500  0.33900  1.0000
  B   B4        1.0  0.52800  0.23400  0.41500  1.0000
  B   B5        1.0  0.47200  0.76600  0.58500  1.0000
  B   B6        1.0  0.46300  0.40500  0.66100  1.0000
  B   B7        1.0  0.53700  0.90500  0.83900  1.0000
  B   B8        1.0  0.52800  0.26600  0.91500  1.0000
  Ho  Ho1       1.0  0.00398  0.39800  0.16500  1.0000
  Ho  Ho2       1.0  0.99600  0.89800  0.33500  1.0000
  Ho  Ho3       1.0  0.00398  0.10200  0.66500  1.0000
  Ho  Ho4       1.0  0.99600  0.60200  0.83500  1.0000
  Ni  Ni1       1.0  0.00000  0.00000  0.00000  1.0000
  Ni  Ni2       1.0  0.00000  0.50000  0.50000  1.0000
  O   O1        1.0  0.33000  0.20700  0.03690  1.0000
  O   O2        1.0  0.25000  0.60600  0.03890  1.0000
  O   O3        1.0  0.32000  0.90700  0.14200  1.0000
  O   O4        1.0  0.77800  0.09550  0.16600  1.0000
  O   O5        1.0  0.67500  0.67000  0.20500  1.0000
  O   O6        1.0  0.32500  0.17000  0.29500  1.0000
  O   O7        1.0  0.22200  0.59500  0.33400  1.0000
  O   O8        1.0  0.68000  0.40700  0.35800  1.0000
  O   O9        1.0  0.75000  0.10600  0.46100  1.0000
  O   O10       1.0  0.67000  0.70700  0.46300  1.0000
  O   O11       1.0  0.33000  0.29300  0.53700  1.0000
  O   O12       1.0  0.25000  0.89400  0.53900  1.0000
  O   O13       1.0  0.32000  0.59300  0.64200  1.0000
  O   O14       1.0  0.77800  0.40500  0.66600  1.0000
  O   O15       1.0  0.67500  0.83000  0.70500  1.0000
  O   O16       1.0  0.32500  0.33000  0.79500  1.0000
  O   O17       1.0  0.22200  0.90500  0.83400  1.0000
  O   O18       1.0  0.68000  0.09330  0.85800  1.0000
  O   O19       1.0  0.75000  0.39400  0.96100  1.0000
  O   O20       1.0  0.67000  0.79300  0.96300  1.0000
