data_image0
_chemical_formula_structural       Cs2F26Th6
_chemical_formula_sum              "Cs2 F26 Th6"
_cell_length_a       8.04614
_cell_length_b       7.46805
_cell_length_c       8.49859
_cell_angle_alpha    90
_cell_angle_beta     90
_cell_angle_gamma    90

_space_group_name_H-M_alt    "P 1"
_space_group_IT_number       1

loop_
  _space_group_symop_operation_xyz
  'x, y, z'

loop_
  _atom_site_type_symbol
  _atom_site_label
  _atom_site_symmetry_multiplicity
  _atom_site_fract_x
  _atom_site_fract_y
  _atom_site_fract_z
  _atom_site_occupancy
  Cs  Cs1       1.0  0.00000  0.39400  0.29600  1.0000
  Cs  Cs2       1.0  0.00000  0.60600  0.79600  1.0000
  F   F1        1.0  0.30000  0.39100  0.04150  1.0000
  F   F2        1.0  0.70000  0.39100  0.04150  1.0000
  F   F3        1.0  0.50000  0.10700  0.05680  1.0000
  F   F4        1.0  0.19200  0.04820  0.18800  1.0000
  F   F5        1.0  0.80800  0.04820  0.18800  1.0000
  F   F6        1.0  0.24100  0.68000  0.22500  1.0000
  F   F7        1.0  0.75900  0.68000  0.22500  1.0000
  F   F8        1.0  0.50000  0.86500  0.26600  1.0000
  F   F9        1.0  0.50000  0.46400  0.31800  1.0000
  F   F10       1.0  0.32800  0.19200  0.44600  1.0000
  F   F11       1.0  0.67200  0.19200  0.44600  1.0000
  F   F12       1.0  0.00000  0.06250  0.44800  1.0000
  F   F13       1.0  0.00000  0.72900  0.45700  1.0000
  F   F14       1.0  0.30000  0.60900  0.54100  1.0000
  F   F15       1.0  0.70000  0.60900  0.54100  1.0000
  F   F16       1.0  0.50000  0.89300  0.55700  1.0000
  F   F17       1.0  0.19200  0.95200  0.68800  1.0000
  F   F18       1.0  0.80800  0.95200  0.68800  1.0000
  F   F19       1.0  0.24100  0.32000  0.72500  1.0000
  F   F20       1.0  0.75900  0.32000  0.72500  1.0000
  F   F21       1.0  0.50000  0.13500  0.76600  1.0000
  F   F22       1.0  0.50000  0.53600  0.81800  1.0000
  F   F23       1.0  0.32800  0.80800  0.94600  1.0000
  F   F24       1.0  0.67200  0.80800  0.94600  1.0000
  F   F25       1.0  0.00000  0.93700  0.94800  1.0000
  F   F26       1.0  0.00000  0.27100  0.95700  1.0000
  Th  Th1       1.0  0.50000  0.61100  0.08400  1.0000
  Th  Th2       1.0  0.24700  0.89500  0.42400  1.0000
  Th  Th3       1.0  0.75300  0.89500  0.42400  1.0000
  Th  Th4       1.0  0.50000  0.38900  0.58400  1.0000
  Th  Th5       1.0  0.24700  0.10500  0.92400  1.0000
  Th  Th6       1.0  0.75300  0.10500  0.92400  1.0000
