data_image0
_chemical_formula_structural       Mo4Ni6O22Se2
_chemical_formula_sum              "Mo4 Ni6 O22 Se2"
_cell_length_a       6.44821
_cell_length_b       6.44719
_cell_length_c       9.97476
_cell_angle_alpha    73.9755
_cell_angle_beta     86.2937
_cell_angle_gamma    84.8681

_space_group_name_H-M_alt    "P 1"
_space_group_IT_number       1

loop_
  _space_group_symop_operation_xyz
  'x, y, z'

loop_
  _atom_site_type_symbol
  _atom_site_label
  _atom_site_symmetry_multiplicity
  _atom_site_fract_x
  _atom_site_fract_y
  _atom_site_fract_z
  _atom_site_occupancy
  Mo  Mo1       1.0  0.61300  0.21100  0.23300  1.0000
  Mo  Mo2       1.0  0.71500  0.78400  0.49900  1.0000
  Mo  Mo3       1.0  0.28500  0.21600  0.50100  1.0000
  Mo  Mo4       1.0  0.38700  0.78900  0.76700  1.0000
  Ni  Ni1       1.0  0.53500  0.80700  0.12700  1.0000
  Ni  Ni2       1.0  0.17000  0.17800  0.12800  1.0000
  Ni  Ni3       1.0  0.27300  0.81700  0.38500  1.0000
  Ni  Ni4       1.0  0.72700  0.18300  0.61500  1.0000
  Ni  Ni5       1.0  0.83000  0.82200  0.87200  1.0000
  Ni  Ni6       1.0  0.46500  0.19300  0.87300  1.0000
  O   O1        1.0  0.85200  0.81100  0.07200  1.0000
  O   O2        1.0  0.17100  0.50400  0.08210  1.0000
  O   O3        1.0  0.49000  0.14000  0.08470  1.0000
  O   O4        1.0  0.21700  0.83600  0.18400  1.0000
  O   O5        1.0  0.56600  0.49100  0.19100  1.0000
  O   O6        1.0  0.87800  0.17000  0.19400  1.0000
  O   O7        1.0  0.58600  0.84200  0.32300  1.0000
  O   O8        1.0  0.28000  0.15000  0.32400  1.0000
  O   O9        1.0  0.62600  0.15100  0.43500  1.0000
  O   O10       1.0  0.29700  0.49600  0.44200  1.0000
  O   O11       1.0  0.97400  0.81900  0.44300  1.0000
  O   O12       1.0  0.02560  0.18100  0.55700  1.0000
  O   O13       1.0  0.70300  0.50400  0.55800  1.0000
  O   O14       1.0  0.37400  0.84900  0.56500  1.0000
  O   O15       1.0  0.72000  0.85000  0.67600  1.0000
  O   O16       1.0  0.41400  0.15800  0.67700  1.0000
  O   O17       1.0  0.12200  0.83000  0.80600  1.0000
  O   O18       1.0  0.43400  0.50900  0.80900  1.0000
  O   O19       1.0  0.78300  0.16400  0.81600  1.0000
  O   O20       1.0  0.51000  0.86000  0.91500  1.0000
  O   O21       1.0  0.82900  0.49600  0.91800  1.0000
  O   O22       1.0  0.14800  0.18900  0.92800  1.0000
  Se  Se1       1.0  0.03110  0.64200  0.18200  1.0000
  Se  Se2       1.0  0.96900  0.35800  0.81800  1.0000
