data_image0
_chemical_formula_structural       Ba4O22Te4V4
_chemical_formula_sum              "Ba4 O22 Te4 V4"
_cell_length_a       7.45051
_cell_length_b       7.63612
_cell_length_c       9.52574
_cell_angle_alpha    90
_cell_angle_beta     93.6038
_cell_angle_gamma    90

_space_group_name_H-M_alt    "P 1"
_space_group_IT_number       1

loop_
  _space_group_symop_operation_xyz
  'x, y, z'

loop_
  _atom_site_type_symbol
  _atom_site_label
  _atom_site_symmetry_multiplicity
  _atom_site_fract_x
  _atom_site_fract_y
  _atom_site_fract_z
  _atom_site_occupancy
  Ba  Ba1       1.0  0.37400  0.25000  0.14100  1.0000
  Ba  Ba2       1.0  0.37400  0.75000  0.42900  1.0000
  Ba  Ba3       1.0  0.62600  0.25000  0.57100  1.0000
  Ba  Ba4       1.0  0.62600  0.75000  0.85900  1.0000
  O   O1        1.0  0.69300  0.06530  0.04410  1.0000
  O   O2        1.0  0.69300  0.43500  0.04410  1.0000
  O   O3        1.0  0.01840  0.25000  0.07050  1.0000
  O   O4        1.0  0.69200  0.75000  0.14800  1.0000
  O   O5        1.0  0.16200  0.75000  0.19200  1.0000
  O   O6        1.0  0.58200  0.02020  0.32300  1.0000
  O   O7        1.0  0.58200  0.48000  0.32300  1.0000
  O   O8        1.0  0.20300  0.07110  0.35400  1.0000
  O   O9        1.0  0.20300  0.42900  0.35400  1.0000
  O   O10       1.0  0.87700  0.25000  0.37000  1.0000
  O   O11       1.0  0.85000  0.75000  0.39000  1.0000
  O   O12       1.0  0.15000  0.25000  0.61000  1.0000
  O   O13       1.0  0.12300  0.75000  0.63000  1.0000
  O   O14       1.0  0.79700  0.57100  0.64600  1.0000
  O   O15       1.0  0.79700  0.92900  0.64600  1.0000
  O   O16       1.0  0.41800  0.52000  0.67700  1.0000
  O   O17       1.0  0.41800  0.98000  0.67700  1.0000
  O   O18       1.0  0.83800  0.25000  0.80800  1.0000
  O   O19       1.0  0.30800  0.25000  0.85200  1.0000
  O   O20       1.0  0.98200  0.75000  0.93000  1.0000
  O   O21       1.0  0.30700  0.56500  0.95600  1.0000
  O   O22       1.0  0.30700  0.93500  0.95600  1.0000
  Te  Te1       1.0  0.79400  0.53300  0.23800  1.0000
  Te  Te2       1.0  0.79400  0.96700  0.23800  1.0000
  Te  Te3       1.0  0.20600  0.03300  0.76200  1.0000
  Te  Te4       1.0  0.20600  0.46700  0.76200  1.0000
  V   V1        1.0  0.18200  0.75000  0.01850  1.0000
  V   V2        1.0  0.10700  0.25000  0.42000  1.0000
  V   V3        1.0  0.89300  0.75000  0.58000  1.0000
  V   V4        1.0  0.81800  0.25000  0.98100  1.0000
