data_image0
_chemical_formula_structural       Nd4O24W6
_chemical_formula_sum              "Nd4 O24 W6"
_cell_length_a       6.94942
_cell_length_b       6.94942
_cell_length_c       11.4897
_cell_angle_alpha    100.889
_cell_angle_beta     100.889
_cell_angle_gamma    112.239

_space_group_name_H-M_alt    "P 1"
_space_group_IT_number       1

loop_
  _space_group_symop_operation_xyz
  'x, y, z'

loop_
  _atom_site_type_symbol
  _atom_site_label
  _atom_site_symmetry_multiplicity
  _atom_site_fract_x
  _atom_site_fract_y
  _atom_site_fract_z
  _atom_site_occupancy
  Nd  Nd1       1.0  0.30600  0.05330  0.09640  1.0000
  Nd  Nd2       1.0  0.94700  0.69400  0.40400  1.0000
  Nd  Nd3       1.0  0.05330  0.30600  0.59600  1.0000
  Nd  Nd4       1.0  0.69400  0.94700  0.90400  1.0000
  O   O1        1.0  0.63000  0.22600  0.04050  1.0000
  O   O2        1.0  0.33200  0.40200  0.06480  1.0000
  O   O3        1.0  0.09960  0.67300  0.07920  1.0000
  O   O4        1.0  0.94400  0.02300  0.10900  1.0000
  O   O5        1.0  0.78800  0.65500  0.19400  1.0000
  O   O6        1.0  0.59600  0.01010  0.22300  1.0000
  O   O7        1.0  0.99000  0.40400  0.27700  1.0000
  O   O8        1.0  0.34500  0.21200  0.30600  1.0000
  O   O9        1.0  0.97700  0.05650  0.39100  1.0000
  O   O10       1.0  0.32700  0.90000  0.42100  1.0000
  O   O11       1.0  0.59800  0.66800  0.43500  1.0000
  O   O12       1.0  0.77400  0.37000  0.45900  1.0000
  O   O13       1.0  0.22600  0.63000  0.54100  1.0000
  O   O14       1.0  0.40200  0.33200  0.56500  1.0000
  O   O15       1.0  0.67300  0.09960  0.57900  1.0000
  O   O16       1.0  0.02300  0.94400  0.60900  1.0000
  O   O17       1.0  0.65500  0.78800  0.69400  1.0000
  O   O18       1.0  0.01010  0.59600  0.72300  1.0000
  O   O19       1.0  0.40400  0.99000  0.77700  1.0000
  O   O20       1.0  0.21200  0.34500  0.80600  1.0000
  O   O21       1.0  0.05650  0.97700  0.89100  1.0000
  O   O22       1.0  0.90000  0.32700  0.92100  1.0000
  O   O23       1.0  0.66800  0.59800  0.93500  1.0000
  O   O24       1.0  0.37000  0.77400  0.95900  1.0000
  W   W1        1.0  0.79700  0.51200  0.04850  1.0000
  W   W2        1.0  0.88200  0.11800  0.25000  1.0000
  W   W3        1.0  0.48800  0.20300  0.45100  1.0000
  W   W4        1.0  0.51200  0.79700  0.54900  1.0000
  W   W5        1.0  0.11800  0.88200  0.75000  1.0000
  W   W6        1.0  0.20300  0.48800  0.95100  1.0000
