data_image0
_chemical_formula_structural       Ba4H14O14Tl2
_chemical_formula_sum              "Ba4 H14 O14 Tl2"
_cell_length_a       6.47284
_cell_length_b       6.70756
_cell_length_c       10.4682
_cell_angle_alpha    97.4178
_cell_angle_beta     90
_cell_angle_gamma    118.849

_space_group_name_H-M_alt    "P 1"
_space_group_IT_number       1

loop_
  _space_group_symop_operation_xyz
  'x, y, z'

loop_
  _atom_site_type_symbol
  _atom_site_label
  _atom_site_symmetry_multiplicity
  _atom_site_fract_x
  _atom_site_fract_y
  _atom_site_fract_z
  _atom_site_occupancy
  Ba  Ba1       1.0  0.80800  0.23800  0.13000  1.0000
  Ba  Ba2       1.0  0.57000  0.76200  0.37000  1.0000
  Ba  Ba3       1.0  0.43000  0.23800  0.63000  1.0000
  Ba  Ba4       1.0  0.19200  0.76200  0.87000  1.0000
  H   H1        1.0  0.91300  0.79500  0.11900  1.0000
  H   H2        1.0  0.30300  0.73300  0.15100  1.0000
  H   H3        1.0  0.30800  0.27100  0.20500  1.0000
  H   H4        1.0  0.15100  0.00000  0.25000  1.0000
  H   H5        1.0  0.03700  0.72900  0.29500  1.0000
  H   H6        1.0  0.56900  0.26700  0.34900  1.0000
  H   H7        1.0  0.11800  0.20500  0.38100  1.0000
  H   H8        1.0  0.88200  0.79500  0.61900  1.0000
  H   H9        1.0  0.43100  0.73300  0.65100  1.0000
  H   H10       1.0  0.96300  0.27100  0.70500  1.0000
  H   H11       1.0  0.84900  0.00000  0.75000  1.0000
  H   H12       1.0  0.69200  0.72900  0.79500  1.0000
  H   H13       1.0  0.69700  0.26700  0.84900  1.0000
  H   H14       1.0  0.08720  0.20500  0.88100  1.0000
  O   O1        1.0  0.88000  0.67100  0.04450  1.0000
  O   O2        1.0  0.44700  0.80600  0.10400  1.0000
  O   O3        1.0  0.47800  0.37300  0.20100  1.0000
  O   O4        1.0  0.00051  0.00000  0.25000  1.0000
  O   O5        1.0  0.10600  0.62700  0.29900  1.0000
  O   O6        1.0  0.64100  0.19400  0.39600  1.0000
  O   O7        1.0  0.20800  0.32900  0.45500  1.0000
  O   O8        1.0  0.79200  0.67100  0.54500  1.0000
  O   O9        1.0  0.35900  0.80600  0.60400  1.0000
  O   O10       1.0  0.89400  0.37300  0.70100  1.0000
  O   O11       1.0  0.99900  0.00000  0.75000  1.0000
  O   O12       1.0  0.52200  0.62700  0.79900  1.0000
  O   O13       1.0  0.55300  0.19400  0.89600  1.0000
  O   O14       1.0  0.12000  0.32900  0.95500  1.0000
  Tl  Tl1       1.0  0.50000  0.50000  0.00000  1.0000
  Tl  Tl2       1.0  0.00000  0.50000  0.50000  1.0000
