data_image0
_chemical_formula_structural       Cs4O22Sb8
_chemical_formula_sum              "Cs4 O22 Sb8"
_cell_length_a       7.31524
_cell_length_b       7.65179
_cell_length_c       10.5484
_cell_angle_alpha    111.266
_cell_angle_beta     95.6187
_cell_angle_gamma    90

_space_group_name_H-M_alt    "P 1"
_space_group_IT_number       1

loop_
  _space_group_symop_operation_xyz
  'x, y, z'

loop_
  _atom_site_type_symbol
  _atom_site_label
  _atom_site_symmetry_multiplicity
  _atom_site_fract_x
  _atom_site_fract_y
  _atom_site_fract_z
  _atom_site_occupancy
  Cs  Cs1       1.0  0.74800  0.50400  0.00875  1.0000
  Cs  Cs2       1.0  0.50100  0.72400  0.44700  1.0000
  Cs  Cs3       1.0  0.49900  0.27600  0.55300  1.0000
  Cs  Cs4       1.0  0.25200  0.49600  0.99100  1.0000
  O   O1        1.0  0.50000  0.17100  0.00000  1.0000
  O   O2        1.0  0.50000  0.82900  0.00000  1.0000
  O   O3        1.0  0.84600  0.02380  0.04750  1.0000
  O   O4        1.0  0.07610  0.34400  0.17900  1.0000
  O   O5        1.0  0.07610  0.83500  0.17900  1.0000
  O   O6        1.0  0.37300  0.11900  0.23800  1.0000
  O   O7        1.0  0.69200  0.32900  0.25500  1.0000
  O   O8        1.0  0.69200  0.92600  0.25500  1.0000
  O   O9        1.0  0.86500  0.65800  0.31600  1.0000
  O   O10       1.0  0.01230  0.16700  0.33400  1.0000
  O   O11       1.0  0.16800  0.52500  0.47600  1.0000
  O   O12       1.0  0.16800  0.95100  0.47600  1.0000
  O   O13       1.0  0.83200  0.04920  0.52400  1.0000
  O   O14       1.0  0.83200  0.47500  0.52400  1.0000
  O   O15       1.0  0.98800  0.83300  0.66600  1.0000
  O   O16       1.0  0.13500  0.34200  0.68400  1.0000
  O   O17       1.0  0.30800  0.07370  0.74500  1.0000
  O   O18       1.0  0.30800  0.67100  0.74500  1.0000
  O   O19       1.0  0.62700  0.88100  0.76200  1.0000
  O   O20       1.0  0.92400  0.16500  0.82100  1.0000
  O   O21       1.0  0.92400  0.65600  0.82100  1.0000
  O   O22       1.0  0.15400  0.97600  0.95200  1.0000
  Sb  Sb1       1.0  0.60000  0.07190  0.14400  1.0000
  Sb  Sb2       1.0  0.12100  0.07620  0.15200  1.0000
  Sb  Sb3       1.0  0.94000  0.43100  0.34800  1.0000
  Sb  Sb4       1.0  0.94000  0.91700  0.34800  1.0000
  Sb  Sb5       1.0  0.06050  0.08280  0.65200  1.0000
  Sb  Sb6       1.0  0.06050  0.56900  0.65200  1.0000
  Sb  Sb7       1.0  0.87900  0.92400  0.84800  1.0000
  Sb  Sb8       1.0  0.40000  0.92800  0.85600  1.0000
