data_image0
_chemical_formula_structural       B10Cu2Lu2O20
_chemical_formula_sum              "B10 Cu2 Lu2 O20"
_cell_length_a       6.07831
_cell_length_b       8.17109
_cell_length_c       8.17109
_cell_angle_alpha    100.81
_cell_angle_beta     111.835
_cell_angle_gamma    111.835

_space_group_name_H-M_alt    "P 1"
_space_group_IT_number       1

loop_
  _space_group_symop_operation_xyz
  'x, y, z'

loop_
  _atom_site_type_symbol
  _atom_site_label
  _atom_site_symmetry_multiplicity
  _atom_site_fract_x
  _atom_site_fract_y
  _atom_site_fract_z
  _atom_site_occupancy
  B   B1        1.0  0.07290  0.23700  0.14700  1.0000
  B   B2        1.0  0.68900  0.35300  0.26300  1.0000
  B   B3        1.0  0.00000  0.69600  0.30400  1.0000
  B   B4        1.0  0.07330  0.03920  0.34600  1.0000
  B   B5        1.0  0.68800  0.15400  0.46100  1.0000
  B   B6        1.0  0.31100  0.73700  0.64700  1.0000
  B   B7        1.0  0.92700  0.85300  0.76300  1.0000
  B   B8        1.0  0.00000  0.19600  0.80400  1.0000
  B   B9        1.0  0.31200  0.53900  0.84600  1.0000
  B   B10       1.0  0.92700  0.65400  0.96100  1.0000
  Cu  Cu1       1.0  0.50000  0.94600  0.05400  1.0000
  Cu  Cu2       1.0  0.50000  0.44600  0.55400  1.0000
  Lu  Lu1       1.0  0.50000  0.69600  0.30400  1.0000
  Lu  Lu2       1.0  0.50000  0.19600  0.80400  1.0000
  O   O1        1.0  0.41100  0.67900  0.01220  1.0000
  O   O2        1.0  0.59000  0.21300  0.09660  1.0000
  O   O3        1.0  0.05840  0.66400  0.14500  1.0000
  O   O4        1.0  0.97500  0.06980  0.17800  1.0000
  O   O5        1.0  0.75100  0.53800  0.27300  1.0000
  O   O6        1.0  0.28000  0.40300  0.28700  1.0000
  O   O7        1.0  0.58900  0.98800  0.32100  1.0000
  O   O8        1.0  0.94200  0.85500  0.33600  1.0000
  O   O9        1.0  0.72700  0.32200  0.43000  1.0000
  O   O10       1.0  0.24900  0.72700  0.46200  1.0000
  O   O11       1.0  0.28100  0.17900  0.51200  1.0000
  O   O12       1.0  0.72000  0.71300  0.59700  1.0000
  O   O13       1.0  0.75100  0.16400  0.64500  1.0000
  O   O14       1.0  0.27300  0.57000  0.67800  1.0000
  O   O15       1.0  0.05980  0.03790  0.77300  1.0000
  O   O16       1.0  0.41000  0.90300  0.78700  1.0000
  O   O17       1.0  0.71900  0.48800  0.82100  1.0000
  O   O18       1.0  0.24900  0.35500  0.83600  1.0000
  O   O19       1.0  0.02490  0.82200  0.93000  1.0000
  O   O20       1.0  0.94000  0.22700  0.96200  1.0000
