data_image0
_chemical_formula_structural       Ga4Ge6O20Rb4
_chemical_formula_sum              "Ga4 Ge6 O20 Rb4"
_cell_length_a       6.62496
_cell_length_b       9.46709
_cell_length_c       9.65173
_cell_angle_alpha    97.0222
_cell_angle_beta     110.072
_cell_angle_gamma    69.5192

_space_group_name_H-M_alt    "P 1"
_space_group_IT_number       1

loop_
  _space_group_symop_operation_xyz
  'x, y, z'

loop_
  _atom_site_type_symbol
  _atom_site_label
  _atom_site_symmetry_multiplicity
  _atom_site_fract_x
  _atom_site_fract_y
  _atom_site_fract_z
  _atom_site_occupancy
  Ga  Ga1       1.0  0.52600  0.93100  0.19700  1.0000
  Ga  Ga2       1.0  0.56200  0.45900  0.29600  1.0000
  Ga  Ga3       1.0  0.72600  0.54100  0.70400  1.0000
  Ga  Ga4       1.0  0.26100  0.06880  0.80300  1.0000
  Ge  Ge1       1.0  0.01400  0.00000  0.00000  1.0000
  Ge  Ge2       1.0  0.56900  0.20300  0.06800  1.0000
  Ge  Ge3       1.0  0.75900  0.71200  0.45800  1.0000
  Ge  Ge4       1.0  0.26400  0.50000  0.50000  1.0000
  Ge  Ge5       1.0  0.01310  0.28800  0.54200  1.0000
  Ge  Ge6       1.0  0.70300  0.79700  0.93200  1.0000
  O   O1        1.0  0.50600  0.39800  0.10100  1.0000
  O   O2        1.0  0.26700  0.87600  0.11700  1.0000
  O   O3        1.0  0.76200  0.82800  0.12300  1.0000
  O   O4        1.0  0.87400  0.11800  0.12300  1.0000
  O   O5        1.0  0.44200  0.13600  0.16800  1.0000
  O   O6        1.0  0.71400  0.59200  0.30500  1.0000
  O   O7        1.0  0.29300  0.54500  0.33800  1.0000
  O   O8        1.0  0.65300  0.90000  0.39800  1.0000
  O   O9        1.0  0.74400  0.29600  0.41900  1.0000
  O   O10       1.0  0.18000  0.33500  0.45400  1.0000
  O   O11       1.0  0.06090  0.66500  0.54600  1.0000
  O   O12       1.0  0.62000  0.70400  0.58100  1.0000
  O   O13       1.0  0.15500  0.09970  0.60200  1.0000
  O   O14       1.0  0.49900  0.45500  0.66200  1.0000
  O   O15       1.0  0.00066  0.40800  0.69500  1.0000
  O   O16       1.0  0.41100  0.86400  0.83200  1.0000
  O   O17       1.0  0.86800  0.88200  0.87700  1.0000
  O   O18       1.0  0.46700  0.17200  0.87700  1.0000
  O   O19       1.0  0.02630  0.12400  0.88300  1.0000
  O   O20       1.0  0.80300  0.60200  0.89900  1.0000
  Rb  Rb1       1.0  0.00321  0.39000  0.12400  1.0000
  Rb  Rb2       1.0  0.13700  0.88000  0.37900  1.0000
  Rb  Rb3       1.0  0.63800  0.12000  0.62100  1.0000
  Rb  Rb4       1.0  0.27000  0.61000  0.87600  1.0000
