data_image0
_chemical_formula_structural       B10Cu2O20Tm2
_chemical_formula_sum              "B10 Cu2 O20 Tm2"
_cell_length_a       6.09756
_cell_length_b       8.18997
_cell_length_c       8.18997
_cell_angle_alpha    100.956
_cell_angle_beta     111.855
_cell_angle_gamma    111.855

_space_group_name_H-M_alt    "P 1"
_space_group_IT_number       1

loop_
  _space_group_symop_operation_xyz
  'x, y, z'

loop_
  _atom_site_type_symbol
  _atom_site_label
  _atom_site_symmetry_multiplicity
  _atom_site_fract_x
  _atom_site_fract_y
  _atom_site_fract_z
  _atom_site_occupancy
  B   B1        1.0  0.07210  0.23200  0.15100  1.0000
  B   B2        1.0  0.68900  0.34900  0.26800  1.0000
  B   B3        1.0  0.00000  0.69100  0.30900  1.0000
  B   B4        1.0  0.07140  0.03380  0.34900  1.0000
  B   B5        1.0  0.68900  0.15100  0.46600  1.0000
  B   B6        1.0  0.31100  0.73200  0.65100  1.0000
  B   B7        1.0  0.92800  0.84900  0.76800  1.0000
  B   B8        1.0  0.00000  0.19100  0.80900  1.0000
  B   B9        1.0  0.31100  0.53400  0.84900  1.0000
  B   B10       1.0  0.92900  0.65100  0.96600  1.0000
  Cu  Cu1       1.0  0.50000  0.94100  0.05900  1.0000
  Cu  Cu2       1.0  0.50000  0.44100  0.55900  1.0000
  O   O1        1.0  0.41200  0.67400  0.01500  1.0000
  O   O2        1.0  0.58800  0.20800  0.10300  1.0000
  O   O3        1.0  0.05910  0.66000  0.15100  1.0000
  O   O4        1.0  0.97300  0.06370  0.18100  1.0000
  O   O5        1.0  0.75200  0.53300  0.27700  1.0000
  O   O6        1.0  0.27800  0.39700  0.29200  1.0000
  O   O7        1.0  0.58800  0.98500  0.32600  1.0000
  O   O8        1.0  0.94100  0.84900  0.34000  1.0000
  O   O9        1.0  0.72800  0.31900  0.43600  1.0000
  O   O10       1.0  0.24800  0.72300  0.46700  1.0000
  O   O11       1.0  0.27800  0.17400  0.51500  1.0000
  O   O12       1.0  0.72200  0.70800  0.60300  1.0000
  O   O13       1.0  0.75100  0.16000  0.65100  1.0000
  O   O14       1.0  0.27200  0.56400  0.68100  1.0000
  O   O15       1.0  0.05780  0.03270  0.77700  1.0000
  O   O16       1.0  0.41200  0.89700  0.79200  1.0000
  O   O17       1.0  0.72200  0.48500  0.82600  1.0000
  O   O18       1.0  0.24900  0.34900  0.84000  1.0000
  O   O19       1.0  0.02730  0.81900  0.93600  1.0000
  O   O20       1.0  0.94200  0.22300  0.96700  1.0000
  Tm  Tm1       1.0  0.50000  0.69100  0.30900  1.0000
  Tm  Tm2       1.0  0.50000  0.19100  0.80900  1.0000
