data_image0
_chemical_formula_structural       F12H16N4Si2
_chemical_formula_sum              "F12 H16 N4 Si2"
_cell_length_a       5.51265
_cell_length_b       5.51264
_cell_length_c       8.88104
_cell_angle_alpha    90
_cell_angle_beta     90
_cell_angle_gamma    120

_space_group_name_H-M_alt    "P 1"
_space_group_IT_number       1

loop_
  _space_group_symop_operation_xyz
  'x, y, z'

loop_
  _atom_site_type_symbol
  _atom_site_label
  _atom_site_symmetry_multiplicity
  _atom_site_fract_x
  _atom_site_fract_y
  _atom_site_fract_z
  _atom_site_occupancy
  F   F1        1.0  0.48000  0.52000  0.13200  1.0000
  F   F2        1.0  0.03970  0.52000  0.13200  1.0000
  F   F3        1.0  0.48000  0.96000  0.13200  1.0000
  F   F4        1.0  0.18700  0.37400  0.35300  1.0000
  F   F5        1.0  0.62600  0.81300  0.35300  1.0000
  F   F6        1.0  0.18700  0.81300  0.35300  1.0000
  F   F7        1.0  0.96000  0.48000  0.63200  1.0000
  F   F8        1.0  0.52000  0.48000  0.63200  1.0000
  F   F9        1.0  0.52000  0.03970  0.63200  1.0000
  F   F10       1.0  0.81300  0.18700  0.85300  1.0000
  F   F11       1.0  0.37400  0.18700  0.85300  1.0000
  F   F12       1.0  0.81300  0.62600  0.85300  1.0000
  H   H1        1.0  0.89900  0.10100  0.04980  1.0000
  H   H2        1.0  0.20300  0.10100  0.04980  1.0000
  H   H3        1.0  0.89900  0.79700  0.04980  1.0000
  H   H4        1.0  0.00000  0.00000  0.20400  1.0000
  H   H5        1.0  0.66700  0.33300  0.25500  1.0000
  H   H6        1.0  0.56600  0.13200  0.41000  1.0000
  H   H7        1.0  0.86800  0.43400  0.41000  1.0000
  H   H8        1.0  0.56600  0.43400  0.41000  1.0000
  H   H9        1.0  0.10100  0.20300  0.55000  1.0000
  H   H10       1.0  0.79700  0.89900  0.55000  1.0000
  H   H11       1.0  0.10100  0.89900  0.55000  1.0000
  H   H12       1.0  0.00000  0.00000  0.70400  1.0000
  H   H13       1.0  0.33300  0.66700  0.75500  1.0000
  H   H14       1.0  0.43400  0.86800  0.91000  1.0000
  H   H15       1.0  0.43400  0.56600  0.91000  1.0000
  H   H16       1.0  0.13200  0.56600  0.91000  1.0000
  N   N1        1.0  0.00000  0.00000  0.08880  1.0000
  N   N2        1.0  0.66700  0.33300  0.37000  1.0000
  N   N3        1.0  0.00000  0.00000  0.58900  1.0000
  N   N4        1.0  0.33300  0.66700  0.87000  1.0000
  Si  Si1       1.0  0.33300  0.66700  0.24200  1.0000
  Si  Si2       1.0  0.66700  0.33300  0.74200  1.0000
