data_image0
_chemical_formula_structural       B2H8N2O16P4Zn2
_chemical_formula_sum              "B2 H8 N2 O16 P4 Zn2"
_cell_length_a       7.33362
_cell_length_b       7.56172
_cell_length_c       7.74716
_cell_angle_alpha    119.371
_cell_angle_beta     101.84
_cell_angle_gamma    103.408

_space_group_name_H-M_alt    "P 1"
_space_group_IT_number       1

loop_
  _space_group_symop_operation_xyz
  'x, y, z'

loop_
  _atom_site_type_symbol
  _atom_site_label
  _atom_site_symmetry_multiplicity
  _atom_site_fract_x
  _atom_site_fract_y
  _atom_site_fract_z
  _atom_site_occupancy
  B   B1        1.0  0.30900  0.08920  0.08480  1.0000
  B   B2        1.0  0.69100  0.91100  0.91500  1.0000
  H   H1        1.0  0.23700  0.64400  0.25900  1.0000
  H   H2        1.0  0.28600  0.50500  0.36300  1.0000
  H   H3        1.0  0.14600  0.65600  0.44900  1.0000
  H   H4        1.0  0.60400  0.21500  0.48100  1.0000
  H   H5        1.0  0.39600  0.78500  0.51900  1.0000
  H   H6        1.0  0.85400  0.34400  0.55100  1.0000
  H   H7        1.0  0.71400  0.49500  0.63700  1.0000
  H   H8        1.0  0.76300  0.35600  0.74100  1.0000
  N   N1        1.0  0.26700  0.64900  0.39900  1.0000
  N   N2        1.0  0.73300  0.35100  0.60100  1.0000
  O   O1        1.0  0.74700  0.40800  0.00154  1.0000
  O   O2        1.0  0.45800  0.25800  0.08280  1.0000
  O   O3        1.0  0.83400  0.09490  0.13000  1.0000
  O   O4        1.0  0.42200  0.00682  0.18700  1.0000
  O   O5        1.0  0.21300  0.21100  0.22300  1.0000
  O   O6        1.0  0.02570  0.90400  0.24700  1.0000
  O   O7        1.0  0.60500  0.81900  0.28900  1.0000
  O   O8        1.0  0.93100  0.69200  0.49800  1.0000
  O   O9        1.0  0.06870  0.30800  0.50200  1.0000
  O   O10       1.0  0.39500  0.18100  0.71100  1.0000
  O   O11       1.0  0.97400  0.09630  0.75300  1.0000
  O   O12       1.0  0.78700  0.78900  0.77700  1.0000
  O   O13       1.0  0.57800  0.99300  0.81300  1.0000
  O   O14       1.0  0.16600  0.90500  0.87000  1.0000
  O   O15       1.0  0.54200  0.74200  0.91700  1.0000
  O   O16       1.0  0.25300  0.59200  0.99800  1.0000
  P   P1        1.0  0.45400  0.78500  0.09630  1.0000
  P   P2        1.0  0.03230  0.11900  0.27800  1.0000
  P   P3        1.0  0.96800  0.88100  0.72200  1.0000
  P   P4        1.0  0.54600  0.21500  0.90400  1.0000
  Zn  Zn1       1.0  0.81100  0.69800  0.25200  1.0000
  Zn  Zn2       1.0  0.18900  0.30200  0.74800  1.0000
