data_image0
_chemical_formula_structural       B8Cu2Lu4O20
_chemical_formula_sum              "B8 Cu2 Lu4 O20"
_cell_length_a       4.49284
_cell_length_b       7.13619
_cell_length_c       9.23619
_cell_angle_alpha    90
_cell_angle_beta     89.7416
_cell_angle_gamma    90

_space_group_name_H-M_alt    "P 1"
_space_group_IT_number       1

loop_
  _space_group_symop_operation_xyz
  'x, y, z'

loop_
  _atom_site_type_symbol
  _atom_site_label
  _atom_site_symmetry_multiplicity
  _atom_site_fract_x
  _atom_site_fract_y
  _atom_site_fract_z
  _atom_site_occupancy
  B   B1        1.0  0.53500  0.73000  0.08030  1.0000
  B   B2        1.0  0.53300  0.09710  0.16300  1.0000
  B   B3        1.0  0.46700  0.59700  0.33700  1.0000
  B   B4        1.0  0.46500  0.23000  0.42000  1.0000
  B   B5        1.0  0.53500  0.77000  0.58000  1.0000
  B   B6        1.0  0.53300  0.40300  0.66300  1.0000
  B   B7        1.0  0.46700  0.90300  0.83700  1.0000
  B   B8        1.0  0.46500  0.27000  0.92000  1.0000
  Cu  Cu1       1.0  0.00000  0.00000  0.00000  1.0000
  Cu  Cu2       1.0  0.00000  0.50000  0.50000  1.0000
  Lu  Lu1       1.0  0.99800  0.39800  0.16500  1.0000
  Lu  Lu2       1.0  0.00247  0.89800  0.33500  1.0000
  Lu  Lu3       1.0  0.99800  0.10200  0.66500  1.0000
  Lu  Lu4       1.0  0.00247  0.60200  0.83500  1.0000
  O   O1        1.0  0.76700  0.60600  0.03920  1.0000
  O   O2        1.0  0.65200  0.22000  0.04700  1.0000
  O   O3        1.0  0.68100  0.90800  0.14000  1.0000
  O   O4        1.0  0.21300  0.09120  0.16800  1.0000
  O   O5        1.0  0.33100  0.66500  0.19900  1.0000
  O   O6        1.0  0.66900  0.16500  0.30100  1.0000
  O   O7        1.0  0.78700  0.59100  0.33200  1.0000
  O   O8        1.0  0.31900  0.40800  0.36000  1.0000
  O   O9        1.0  0.34800  0.72000  0.45300  1.0000
  O   O10       1.0  0.23300  0.10600  0.46100  1.0000
  O   O11       1.0  0.76700  0.89400  0.53900  1.0000
  O   O12       1.0  0.65200  0.28000  0.54700  1.0000
  O   O13       1.0  0.68100  0.59200  0.64000  1.0000
  O   O14       1.0  0.21300  0.40900  0.66800  1.0000
  O   O15       1.0  0.33100  0.83500  0.69900  1.0000
  O   O16       1.0  0.66900  0.33500  0.80100  1.0000
  O   O17       1.0  0.78700  0.90900  0.83200  1.0000
  O   O18       1.0  0.31900  0.09170  0.86000  1.0000
  O   O19       1.0  0.34800  0.78000  0.95300  1.0000
  O   O20       1.0  0.23300  0.39400  0.96100  1.0000
