data_image0
_chemical_formula_structural       F12H16Mn2N4
_chemical_formula_sum              "F12 H16 Mn2 N4"
_cell_length_a       5.60204
_cell_length_b       5.60196
_cell_length_c       9.04925
_cell_angle_alpha    90
_cell_angle_beta     90
_cell_angle_gamma    120.001

_space_group_name_H-M_alt    "P 1"
_space_group_IT_number       1

loop_
  _space_group_symop_operation_xyz
  'x, y, z'

loop_
  _atom_site_type_symbol
  _atom_site_label
  _atom_site_symmetry_multiplicity
  _atom_site_fract_x
  _atom_site_fract_y
  _atom_site_fract_z
  _atom_site_occupancy
  F   F1        1.0  0.48800  0.97500  0.13100  1.0000
  F   F2        1.0  0.48800  0.51200  0.13100  1.0000
  F   F3        1.0  0.02470  0.51200  0.13100  1.0000
  F   F4        1.0  0.64200  0.82100  0.36200  1.0000
  F   F5        1.0  0.17900  0.82100  0.36200  1.0000
  F   F6        1.0  0.17900  0.35800  0.36200  1.0000
  F   F7        1.0  0.51200  0.02470  0.63100  1.0000
  F   F8        1.0  0.97500  0.48800  0.63100  1.0000
  F   F9        1.0  0.51200  0.48800  0.63100  1.0000
  F   F10       1.0  0.82100  0.17900  0.86200  1.0000
  F   F11       1.0  0.35800  0.17900  0.86200  1.0000
  F   F12       1.0  0.82100  0.64200  0.86200  1.0000
  H   H1        1.0  0.90000  0.80000  0.05960  1.0000
  H   H2        1.0  0.90000  0.09990  0.05960  1.0000
  H   H3        1.0  0.20000  0.09990  0.05960  1.0000
  H   H4        1.0  0.00000  0.00000  0.21100  1.0000
  H   H5        1.0  0.66700  0.33300  0.26200  1.0000
  H   H6        1.0  0.56700  0.13500  0.41500  1.0000
  H   H7        1.0  0.86500  0.43300  0.41500  1.0000
  H   H8        1.0  0.56700  0.43300  0.41500  1.0000
  H   H9        1.0  0.09990  0.20000  0.56000  1.0000
  H   H10       1.0  0.80000  0.90000  0.56000  1.0000
  H   H11       1.0  0.09990  0.90000  0.56000  1.0000
  H   H12       1.0  0.00000  0.00000  0.71100  1.0000
  H   H13       1.0  0.33300  0.66700  0.76200  1.0000
  H   H14       1.0  0.43300  0.86500  0.91500  1.0000
  H   H15       1.0  0.43300  0.56700  0.91500  1.0000
  H   H16       1.0  0.13500  0.56700  0.91500  1.0000
  Mn  Mn1       1.0  0.33300  0.66700  0.24600  1.0000
  Mn  Mn2       1.0  0.66700  0.33300  0.74600  1.0000
  N   N1        1.0  0.00000  0.00000  0.09780  1.0000
  N   N2        1.0  0.66700  0.33300  0.37600  1.0000
  N   N3        1.0  0.00000  0.00000  0.59800  1.0000
  N   N4        1.0  0.33300  0.66700  0.87600  1.0000
