data_image0
_chemical_formula_structural       O22Pb4Se4V4
_chemical_formula_sum              "O22 Pb4 Se4 V4"
_cell_length_a       6.76758
_cell_length_b       7.13653
_cell_length_c       9.79476
_cell_angle_alpha    96.2737
_cell_angle_beta     93.2063
_cell_angle_gamma    95.2107

_space_group_name_H-M_alt    "P 1"
_space_group_IT_number       1

loop_
  _space_group_symop_operation_xyz
  'x, y, z'

loop_
  _atom_site_type_symbol
  _atom_site_label
  _atom_site_symmetry_multiplicity
  _atom_site_fract_x
  _atom_site_fract_y
  _atom_site_fract_z
  _atom_site_occupancy
  O   O1        1.0  0.27100  0.46900  0.03780  1.0000
  O   O2        1.0  0.88400  0.24900  0.08140  1.0000
  O   O3        1.0  0.45500  0.82300  0.08440  1.0000
  O   O4        1.0  0.25700  0.12700  0.17300  1.0000
  O   O5        1.0  0.13200  0.78500  0.22700  1.0000
  O   O6        1.0  0.77500  0.60000  0.25100  1.0000
  O   O7        1.0  0.64100  0.02640  0.29000  1.0000
  O   O8        1.0  0.44500  0.70600  0.36700  1.0000
  O   O9        1.0  0.53300  0.37000  0.37600  1.0000
  O   O10       1.0  0.32900  0.03330  0.43500  1.0000
  O   O11       1.0  0.88800  0.27300  0.46700  1.0000
  O   O12       1.0  0.11200  0.72700  0.53300  1.0000
  O   O13       1.0  0.67100  0.96700  0.56500  1.0000
  O   O14       1.0  0.46700  0.63000  0.62400  1.0000
  O   O15       1.0  0.55500  0.29400  0.63300  1.0000
  O   O16       1.0  0.35900  0.97400  0.71000  1.0000
  O   O17       1.0  0.22500  0.40000  0.74900  1.0000
  O   O18       1.0  0.86800  0.21500  0.77300  1.0000
  O   O19       1.0  0.74300  0.87300  0.82700  1.0000
  O   O20       1.0  0.54500  0.17600  0.91600  1.0000
  O   O21       1.0  0.11600  0.75100  0.91900  1.0000
  O   O22       1.0  0.72900  0.53100  0.96200  1.0000
  Pb  Pb1       1.0  0.83000  0.86100  0.09950  1.0000
  Pb  Pb2       1.0  0.13000  0.44500  0.25800  1.0000
  Pb  Pb3       1.0  0.87000  0.55500  0.74200  1.0000
  Pb  Pb4       1.0  0.17000  0.13900  0.90100  1.0000
  Se  Se1       1.0  0.66200  0.34200  0.05290  1.0000
  Se  Se2       1.0  0.66300  0.60000  0.40200  1.0000
  Se  Se3       1.0  0.33700  0.40000  0.59800  1.0000
  Se  Se4       1.0  0.33800  0.65800  0.94700  1.0000
  V   V1        1.0  0.33900  0.94300  0.24600  1.0000
  V   V2        1.0  0.66200  0.16100  0.45100  1.0000
  V   V3        1.0  0.33800  0.83900  0.54900  1.0000
  V   V4        1.0  0.66100  0.05680  0.75400  1.0000
