data_image0
_chemical_formula_structural       H16I12N4Re2
_chemical_formula_sum              "H16 I12 N4 Re2"
_cell_length_a       7.80113
_cell_length_b       7.80113
_cell_length_c       11.8503
_cell_angle_alpha    90
_cell_angle_beta     90
_cell_angle_gamma    90

_space_group_name_H-M_alt    "P 1"
_space_group_IT_number       1

loop_
  _space_group_symop_operation_xyz
  'x, y, z'

loop_
  _atom_site_type_symbol
  _atom_site_label
  _atom_site_symmetry_multiplicity
  _atom_site_fract_x
  _atom_site_fract_y
  _atom_site_fract_z
  _atom_site_occupancy
  H   H1        1.0  0.49800  0.10800  0.19900  1.0000
  H   H2        1.0  0.89200  0.49800  0.19900  1.0000
  H   H3        1.0  0.10800  0.50200  0.19900  1.0000
  H   H4        1.0  0.50200  0.89200  0.19900  1.0000
  H   H5        1.0  0.39200  0.00159  0.30100  1.0000
  H   H6        1.0  0.99800  0.39200  0.30100  1.0000
  H   H7        1.0  0.00159  0.60800  0.30100  1.0000
  H   H8        1.0  0.60800  0.99800  0.30100  1.0000
  H   H9        1.0  0.39200  0.00159  0.69900  1.0000
  H   H10       1.0  0.99800  0.39200  0.69900  1.0000
  H   H11       1.0  0.00159  0.60800  0.69900  1.0000
  H   H12       1.0  0.60800  0.99800  0.69900  1.0000
  H   H13       1.0  0.49800  0.10800  0.80100  1.0000
  H   H14       1.0  0.89200  0.49800  0.80100  1.0000
  H   H15       1.0  0.10800  0.50200  0.80100  1.0000
  H   H16       1.0  0.50200  0.89200  0.80100  1.0000
  I   I1        1.0  0.30400  0.20900  0.00000  1.0000
  I   I2        1.0  0.79100  0.30400  0.00000  1.0000
  I   I3        1.0  0.20900  0.69600  0.00000  1.0000
  I   I4        1.0  0.69600  0.79100  0.00000  1.0000
  I   I5        1.0  0.50000  0.50000  0.23200  1.0000
  I   I6        1.0  0.00000  0.00000  0.26800  1.0000
  I   I7        1.0  0.29100  0.19600  0.50000  1.0000
  I   I8        1.0  0.80400  0.29100  0.50000  1.0000
  I   I9        1.0  0.19600  0.70900  0.50000  1.0000
  I   I10       1.0  0.70900  0.80400  0.50000  1.0000
  I   I11       1.0  0.00000  0.00000  0.73200  1.0000
  I   I12       1.0  0.50000  0.50000  0.76800  1.0000
  N   N1        1.0  0.50000  0.00000  0.25000  1.0000
  N   N2        1.0  0.00000  0.50000  0.25000  1.0000
  N   N3        1.0  0.50000  0.00000  0.75000  1.0000
  N   N4        1.0  0.00000  0.50000  0.75000  1.0000
  Re  Re1       1.0  0.50000  0.50000  0.00000  1.0000
  Re  Re2       1.0  0.00000  0.00000  0.50000  1.0000
