data_image0
_chemical_formula_structural       C2Cl2H18N12
_chemical_formula_sum              "C2 Cl2 H18 N12"
_cell_length_a       7.37522
_cell_length_b       7.37518
_cell_length_c       5.83612
_cell_angle_alpha    90
_cell_angle_beta     90
_cell_angle_gamma    120

_space_group_name_H-M_alt    "P 1"
_space_group_IT_number       1

loop_
  _space_group_symop_operation_xyz
  'x, y, z'

loop_
  _atom_site_type_symbol
  _atom_site_label
  _atom_site_symmetry_multiplicity
  _atom_site_fract_x
  _atom_site_fract_y
  _atom_site_fract_z
  _atom_site_occupancy
  C   C1        1.0  0.00000  0.00000  0.25000  1.0000
  C   C2        1.0  0.00000  0.00000  0.75000  1.0000
  Cl  Cl1       1.0  0.66700  0.33300  0.25000  1.0000
  Cl  Cl2       1.0  0.33300  0.66700  0.75000  1.0000
  H   H1        1.0  0.16300  0.71300  0.10700  1.0000
  H   H2        1.0  0.55000  0.83700  0.10700  1.0000
  H   H3        1.0  0.28700  0.45000  0.10700  1.0000
  H   H4        1.0  0.32200  0.15900  0.25000  1.0000
  H   H5        1.0  0.84100  0.16300  0.25000  1.0000
  H   H6        1.0  0.83700  0.67800  0.25000  1.0000
  H   H7        1.0  0.28700  0.45000  0.39300  1.0000
  H   H8        1.0  0.16300  0.71300  0.39300  1.0000
  H   H9        1.0  0.55000  0.83700  0.39300  1.0000
  H   H10       1.0  0.45000  0.16300  0.60700  1.0000
  H   H11       1.0  0.83700  0.28700  0.60700  1.0000
  H   H12       1.0  0.71300  0.55000  0.60700  1.0000
  H   H13       1.0  0.16300  0.32200  0.75000  1.0000
  H   H14       1.0  0.15900  0.83700  0.75000  1.0000
  H   H15       1.0  0.67800  0.84100  0.75000  1.0000
  H   H16       1.0  0.83700  0.28700  0.89300  1.0000
  H   H17       1.0  0.71300  0.55000  0.89300  1.0000
  H   H18       1.0  0.45000  0.16300  0.89300  1.0000
  N   N1        1.0  0.82800  0.01690  0.25000  1.0000
  N   N2        1.0  0.18900  0.17200  0.25000  1.0000
  N   N3        1.0  0.20400  0.36900  0.25000  1.0000
  N   N4        1.0  0.16500  0.79600  0.25000  1.0000
  N   N5        1.0  0.98300  0.81100  0.25000  1.0000
  N   N6        1.0  0.63100  0.83500  0.25000  1.0000
  N   N7        1.0  0.36900  0.16500  0.75000  1.0000
  N   N8        1.0  0.01690  0.18900  0.75000  1.0000
  N   N9        1.0  0.83500  0.20400  0.75000  1.0000
  N   N10       1.0  0.79600  0.63100  0.75000  1.0000
  N   N11       1.0  0.81100  0.82800  0.75000  1.0000
  N   N12       1.0  0.17200  0.98300  0.75000  1.0000
