data_image0
_chemical_formula_structural       H8Hg4O18P4
_chemical_formula_sum              "H8 Hg4 O18 P4"
_cell_length_a       6.83218
_cell_length_b       7.37134
_cell_length_c       7.91453
_cell_angle_alpha    84.3692
_cell_angle_beta     75.1883
_cell_angle_gamma    72.8083

_space_group_name_H-M_alt    "P 1"
_space_group_IT_number       1

loop_
  _space_group_symop_operation_xyz
  'x, y, z'

loop_
  _atom_site_type_symbol
  _atom_site_label
  _atom_site_symmetry_multiplicity
  _atom_site_fract_x
  _atom_site_fract_y
  _atom_site_fract_z
  _atom_site_occupancy
  H   H1        1.0  0.17600  0.27600  0.00802  1.0000
  H   H2        1.0  0.80100  0.95800  0.12300  1.0000
  H   H3        1.0  0.19100  0.09940  0.13900  1.0000
  H   H4        1.0  0.57200  0.03340  0.24900  1.0000
  H   H5        1.0  0.42800  0.96700  0.75100  1.0000
  H   H6        1.0  0.80900  0.90100  0.86100  1.0000
  H   H7        1.0  0.19900  0.04210  0.87700  1.0000
  H   H8        1.0  0.82400  0.72400  0.99200  1.0000
  Hg  Hg1       1.0  0.74900  0.35200  0.24600  1.0000
  Hg  Hg2       1.0  0.80200  0.77900  0.47200  1.0000
  Hg  Hg3       1.0  0.19900  0.22100  0.52800  1.0000
  Hg  Hg4       1.0  0.25100  0.64800  0.75400  1.0000
  O   O1        1.0  0.72000  0.53400  0.00686  1.0000
  O   O2        1.0  0.11600  0.16600  0.04760  1.0000
  O   O3        1.0  0.27500  0.72800  0.18100  1.0000
  O   O4        1.0  0.72400  0.02400  0.23900  1.0000
  O   O5        1.0  0.99100  0.55500  0.27000  1.0000
  O   O6        1.0  0.36800  0.38100  0.28700  1.0000
  O   O7        1.0  0.31900  0.00712  0.29900  1.0000
  O   O8        1.0  0.54400  0.68100  0.36800  1.0000
  O   O9        1.0  0.85100  0.22300  0.49200  1.0000
  O   O10       1.0  0.14900  0.77700  0.50800  1.0000
  O   O11       1.0  0.45600  0.31900  0.63200  1.0000
  O   O12       1.0  0.68100  0.99300  0.70100  1.0000
  O   O13       1.0  0.63200  0.61900  0.71300  1.0000
  O   O14       1.0  0.00860  0.44500  0.73000  1.0000
  O   O15       1.0  0.27600  0.97600  0.76100  1.0000
  O   O16       1.0  0.72500  0.27200  0.81900  1.0000
  O   O17       1.0  0.88400  0.83400  0.95200  1.0000
  O   O18       1.0  0.28000  0.46600  0.99300  1.0000
  P   P1        1.0  0.22700  0.52300  0.18300  1.0000
  P   P2        1.0  0.32800  0.79700  0.34800  1.0000
  P   P3        1.0  0.67200  0.20300  0.65200  1.0000
  P   P4        1.0  0.77300  0.47700  0.81700  1.0000
