data_image0
_chemical_formula_structural       Mn2O6Y2
_chemical_formula_sum              "Mn2 O6 Y2"
_cell_length_a       3.59123
_cell_length_b       3.59135
_cell_length_c       11.3483
_cell_angle_alpha    90
_cell_angle_beta     90
_cell_angle_gamma    119.999

_space_group_name_H-M_alt    "P 1"
_space_group_IT_number       1

loop_
  _space_group_symop_operation_xyz
  'x, y, z'

loop_
  _atom_site_type_symbol
  _atom_site_label
  _atom_site_symmetry_multiplicity
  _atom_site_fract_x
  _atom_site_fract_y
  _atom_site_fract_z
  _atom_site_occupancy
  Mn  Mn1       1.0  0.33300  0.66700  0.25000  1.0000
  Mn  Mn2       1.0  0.66700  0.33300  0.75000  1.0000
  O   O1        1.0  0.33300  0.66700  0.08410  1.0000
  O   O2        1.0  0.00000  0.00000  0.25000  1.0000
  O   O3        1.0  0.33300  0.66700  0.41600  1.0000
  O   O4        1.0  0.66700  0.33300  0.58400  1.0000
  O   O5        1.0  0.00000  0.00000  0.75000  1.0000
  O   O6        1.0  0.66700  0.33300  0.91600  1.0000
  Y   Y1        1.0  0.00000  0.00000  0.00000  1.0000
  Y   Y2        1.0  0.00000  0.00000  0.50000  1.0000
