data_image0
_chemical_formula_structural       Cl18Na4O4Pr8
_chemical_formula_sum              "Cl18 Na4 O4 Pr8"
_cell_length_a       8.24383
_cell_length_b       11.5295
_cell_length_c       9.33772
_cell_angle_alpha    90
_cell_angle_beta     106.885
_cell_angle_gamma    90

_space_group_name_H-M_alt    "P 1"
_space_group_IT_number       1

loop_
  _space_group_symop_operation_xyz
  'x, y, z'

loop_
  _atom_site_type_symbol
  _atom_site_label
  _atom_site_symmetry_multiplicity
  _atom_site_fract_x
  _atom_site_fract_y
  _atom_site_fract_z
  _atom_site_occupancy
  Cl  Cl1       1.0  0.10500  0.59500  0.12200  1.0000
  Cl  Cl2       1.0  0.10500  0.90500  0.12200  1.0000
  Cl  Cl3       1.0  0.26000  0.25000  0.14000  1.0000
  Cl  Cl4       1.0  0.76100  0.75000  0.24900  1.0000
  Cl  Cl5       1.0  0.50000  0.50300  0.30000  1.0000
  Cl  Cl6       1.0  0.50000  0.99700  0.30000  1.0000
  Cl  Cl7       1.0  0.90300  0.08130  0.31600  1.0000
  Cl  Cl8       1.0  0.90300  0.41900  0.31600  1.0000
  Cl  Cl9       1.0  0.32400  0.75000  0.45900  1.0000
  Cl  Cl10      1.0  0.67600  0.25000  0.54100  1.0000
  Cl  Cl11      1.0  0.09700  0.58100  0.68400  1.0000
  Cl  Cl12      1.0  0.09700  0.91900  0.68400  1.0000
  Cl  Cl13      1.0  0.50000  0.00318  0.70000  1.0000
  Cl  Cl14      1.0  0.50000  0.49700  0.70000  1.0000
  Cl  Cl15      1.0  0.23900  0.25000  0.75100  1.0000
  Cl  Cl16      1.0  0.74000  0.75000  0.86000  1.0000
  Cl  Cl17      1.0  0.89500  0.09510  0.87800  1.0000
  Cl  Cl18      1.0  0.89500  0.40500  0.87800  1.0000
  Na  Na1       1.0  0.22700  0.51600  0.43200  1.0000
  Na  Na2       1.0  0.22700  0.98400  0.43200  1.0000
  Na  Na3       1.0  0.77300  0.01550  0.56800  1.0000
  Na  Na4       1.0  0.77300  0.48400  0.56800  1.0000
  O   O1        1.0  0.55300  0.12000  0.01420  1.0000
  O   O2        1.0  0.55300  0.38000  0.01420  1.0000
  O   O3        1.0  0.44700  0.62000  0.98600  1.0000
  O   O4        1.0  0.44700  0.88000  0.98600  1.0000
  Pr  Pr1       1.0  0.72200  0.54700  0.04790  1.0000
  Pr  Pr2       1.0  0.72200  0.95300  0.04790  1.0000
  Pr  Pr3       1.0  0.38900  0.75000  0.16500  1.0000
  Pr  Pr4       1.0  0.63000  0.25000  0.22000  1.0000
  Pr  Pr5       1.0  0.37000  0.75000  0.78000  1.0000
  Pr  Pr6       1.0  0.61100  0.25000  0.83500  1.0000
  Pr  Pr7       1.0  0.27800  0.04700  0.95200  1.0000
  Pr  Pr8       1.0  0.27800  0.45300  0.95200  1.0000
