data_image0
_chemical_formula_structural       Nb4P4Rb4S22
_chemical_formula_sum              "Nb4 P4 Rb4 S22"
_cell_length_a       6.88517
_cell_length_b       7.10966
_cell_length_c       18.6152
_cell_angle_alpha    90
_cell_angle_beta     98.7862
_cell_angle_gamma    90

_space_group_name_H-M_alt    "P 1"
_space_group_IT_number       1

loop_
  _space_group_symop_operation_xyz
  'x, y, z'

loop_
  _atom_site_type_symbol
  _atom_site_label
  _atom_site_symmetry_multiplicity
  _atom_site_fract_x
  _atom_site_fract_y
  _atom_site_fract_z
  _atom_site_occupancy
  Nb  Nb1       1.0  0.30200  0.54900  0.24400  1.0000
  Nb  Nb2       1.0  0.30200  0.95100  0.24400  1.0000
  Nb  Nb3       1.0  0.69800  0.04910  0.75600  1.0000
  Nb  Nb4       1.0  0.69800  0.45100  0.75600  1.0000
  P   P1        1.0  0.31400  0.25000  0.10600  1.0000
  P   P2        1.0  0.20500  0.25000  0.37500  1.0000
  P   P3        1.0  0.79500  0.75000  0.62500  1.0000
  P   P4        1.0  0.68600  0.75000  0.89400  1.0000
  Rb  Rb1       1.0  0.74700  0.25000  0.00418  1.0000
  Rb  Rb2       1.0  0.77400  0.25000  0.49200  1.0000
  Rb  Rb3       1.0  0.22600  0.75000  0.50800  1.0000
  Rb  Rb4       1.0  0.25300  0.75000  0.99600  1.0000
  S   S1        1.0  0.77100  0.75000  0.00092  1.0000
  S   S2        1.0  0.48800  0.02140  0.14200  1.0000
  S   S3        1.0  0.48800  0.47900  0.14200  1.0000
  S   S4        1.0  0.10100  0.25000  0.17400  1.0000
  S   S5        1.0  0.05490  0.75000  0.18500  1.0000
  S   S6        1.0  0.61000  0.75000  0.26900  1.0000
  S   S7        1.0  0.46000  0.25000  0.32400  1.0000
  S   S8        1.0  0.05200  0.01570  0.33400  1.0000
  S   S9        1.0  0.05200  0.48400  0.33400  1.0000
  S   S10       1.0  0.44200  0.75000  0.34800  1.0000
  S   S11       1.0  0.26600  0.25000  0.48400  1.0000
  S   S12       1.0  0.73400  0.75000  0.51600  1.0000
  S   S13       1.0  0.55800  0.25000  0.65200  1.0000
  S   S14       1.0  0.94800  0.51600  0.66600  1.0000
  S   S15       1.0  0.94800  0.98400  0.66600  1.0000
  S   S16       1.0  0.54000  0.75000  0.67600  1.0000
  S   S17       1.0  0.39000  0.25000  0.73100  1.0000
  S   S18       1.0  0.94500  0.25000  0.81500  1.0000
  S   S19       1.0  0.89900  0.75000  0.82600  1.0000
  S   S20       1.0  0.51200  0.52100  0.85800  1.0000
  S   S21       1.0  0.51200  0.97900  0.85800  1.0000
  S   S22       1.0  0.22900  0.25000  0.99900  1.0000
