data_image0
_chemical_formula_structural       O22Pr4Te8
_chemical_formula_sum              "O22 Pr4 Te8"
_cell_length_a       5.20184
_cell_length_b       6.82081
_cell_length_c       15.8478
_cell_angle_alpha    92.1101
_cell_angle_beta     99.4461
_cell_angle_gamma    112.416

_space_group_name_H-M_alt    "P 1"
_space_group_IT_number       1

loop_
  _space_group_symop_operation_xyz
  'x, y, z'

loop_
  _atom_site_type_symbol
  _atom_site_label
  _atom_site_symmetry_multiplicity
  _atom_site_fract_x
  _atom_site_fract_y
  _atom_site_fract_z
  _atom_site_occupancy
  O   O1        1.0  0.99700  0.19000  0.04780  1.0000
  O   O2        1.0  0.72400  0.47200  0.05990  1.0000
  O   O3        1.0  0.48400  0.05010  0.10300  1.0000
  O   O4        1.0  0.31400  0.63000  0.13300  1.0000
  O   O5        1.0  0.96200  0.87100  0.17600  1.0000
  O   O6        1.0  0.38400  0.25000  0.25000  1.0000
  O   O7        1.0  0.41500  0.62900  0.32400  1.0000
  O   O8        1.0  0.05010  0.87000  0.36700  1.0000
  O   O9        1.0  0.83100  0.45000  0.39700  1.0000
  O   O10       1.0  0.69200  0.02790  0.44000  1.0000
  O   O11       1.0  0.25900  0.31000  0.45200  1.0000
  O   O12       1.0  0.74100  0.69000  0.54800  1.0000
  O   O13       1.0  0.30800  0.97200  0.56000  1.0000
  O   O14       1.0  0.16900  0.55000  0.60300  1.0000
  O   O15       1.0  0.95000  0.13000  0.63300  1.0000
  O   O16       1.0  0.58500  0.37100  0.67600  1.0000
  O   O17       1.0  0.61600  0.75000  0.75000  1.0000
  O   O18       1.0  0.03770  0.12900  0.82400  1.0000
  O   O19       1.0  0.68600  0.37000  0.86700  1.0000
  O   O20       1.0  0.51600  0.95000  0.89700  1.0000
  O   O21       1.0  0.27600  0.52800  0.94000  1.0000
  O   O22       1.0  0.00257  0.81000  0.95200  1.0000
  Pr  Pr1       1.0  0.66100  0.80000  0.03760  1.0000
  Pr  Pr2       1.0  0.32300  0.70000  0.46200  1.0000
  Pr  Pr3       1.0  0.67700  0.30000  0.53800  1.0000
  Pr  Pr4       1.0  0.33900  0.20000  0.96200  1.0000
  Te  Te1       1.0  0.97500  0.38200  0.13300  1.0000
  Te  Te2       1.0  0.35300  0.95700  0.20700  1.0000
  Te  Te3       1.0  0.68900  0.54300  0.29300  1.0000
  Te  Te4       1.0  0.96100  0.11800  0.36700  1.0000
  Te  Te5       1.0  0.03930  0.88200  0.63300  1.0000
  Te  Te6       1.0  0.31100  0.45700  0.70700  1.0000
  Te  Te7       1.0  0.64700  0.04300  0.79300  1.0000
  Te  Te8       1.0  0.02490  0.61800  0.86700  1.0000
