data_image0
_chemical_formula_structural       Br8S18V8
_chemical_formula_sum              "Br8 S18 V8"
_cell_length_a       10.9483
_cell_length_b       10.9483
_cell_length_c       7.18451
_cell_angle_alpha    90
_cell_angle_beta     90
_cell_angle_gamma    90

_space_group_name_H-M_alt    "P 1"
_space_group_IT_number       1

loop_
  _space_group_symop_operation_xyz
  'x, y, z'

loop_
  _atom_site_type_symbol
  _atom_site_label
  _atom_site_symmetry_multiplicity
  _atom_site_fract_x
  _atom_site_fract_y
  _atom_site_fract_z
  _atom_site_occupancy
  Br  Br1       1.0  0.05120  0.05120  0.28600  1.0000
  Br  Br2       1.0  0.44900  0.05120  0.28600  1.0000
  Br  Br3       1.0  0.05120  0.44900  0.28600  1.0000
  Br  Br4       1.0  0.44900  0.44900  0.28600  1.0000
  Br  Br5       1.0  0.55100  0.55100  0.71400  1.0000
  Br  Br6       1.0  0.94900  0.55100  0.71400  1.0000
  Br  Br7       1.0  0.55100  0.94900  0.71400  1.0000
  Br  Br8       1.0  0.94900  0.94900  0.71400  1.0000
  S   S1        1.0  0.75000  0.53800  0.14500  1.0000
  S   S2        1.0  0.53800  0.75000  0.14500  1.0000
  S   S3        1.0  0.96200  0.75000  0.14500  1.0000
  S   S4        1.0  0.75000  0.96200  0.14500  1.0000
  S   S5        1.0  0.75000  0.05550  0.38800  1.0000
  S   S6        1.0  0.75000  0.44500  0.38800  1.0000
  S   S7        1.0  0.05550  0.75000  0.38800  1.0000
  S   S8        1.0  0.44500  0.75000  0.38800  1.0000
  S   S9        1.0  0.25000  0.25000  0.47500  1.0000
  S   S10       1.0  0.75000  0.75000  0.52500  1.0000
  S   S11       1.0  0.55500  0.25000  0.61200  1.0000
  S   S12       1.0  0.94500  0.25000  0.61200  1.0000
  S   S13       1.0  0.25000  0.55500  0.61200  1.0000
  S   S14       1.0  0.25000  0.94500  0.61200  1.0000
  S   S15       1.0  0.25000  0.03780  0.85500  1.0000
  S   S16       1.0  0.03780  0.25000  0.85500  1.0000
  S   S17       1.0  0.46200  0.25000  0.85500  1.0000
  S   S18       1.0  0.25000  0.46200  0.85500  1.0000
  V   V1        1.0  0.61500  0.61500  0.37500  1.0000
  V   V2        1.0  0.88500  0.61500  0.37500  1.0000
  V   V3        1.0  0.61500  0.88500  0.37500  1.0000
  V   V4        1.0  0.88500  0.88500  0.37500  1.0000
  V   V5        1.0  0.11500  0.11500  0.62500  1.0000
  V   V6        1.0  0.38500  0.11500  0.62500  1.0000
  V   V7        1.0  0.11500  0.38500  0.62500  1.0000
  V   V8        1.0  0.38500  0.38500  0.62500  1.0000
