data_image0
_chemical_formula_structural       As2K6Nb4Se22
_chemical_formula_sum              "As2 K6 Nb4 Se22"
_cell_length_a       10.1257
_cell_length_b       10.1257
_cell_length_c       10.0361
_cell_angle_alpha    97.0805
_cell_angle_beta     97.0805
_cell_angle_gamma    82.4574

_space_group_name_H-M_alt    "P 1"
_space_group_IT_number       1

loop_
  _space_group_symop_operation_xyz
  'x, y, z'

loop_
  _atom_site_type_symbol
  _atom_site_label
  _atom_site_symmetry_multiplicity
  _atom_site_fract_x
  _atom_site_fract_y
  _atom_site_fract_z
  _atom_site_occupancy
  As  As1       1.0  0.04370  0.35200  0.40000  1.0000
  As  As2       1.0  0.35200  0.04370  0.90000  1.0000
  K   K1        1.0  0.80100  0.66300  0.08630  1.0000
  K   K2        1.0  0.89900  0.05430  0.24700  1.0000
  K   K3        1.0  0.43200  0.27100  0.33800  1.0000
  K   K4        1.0  0.66300  0.80100  0.58600  1.0000
  K   K5        1.0  0.05430  0.89900  0.74700  1.0000
  K   K6        1.0  0.27100  0.43200  0.83800  1.0000
  Nb  Nb1       1.0  0.41200  0.82500  0.16900  1.0000
  Nb  Nb2       1.0  0.15800  0.70900  0.35400  1.0000
  Nb  Nb3       1.0  0.82500  0.41200  0.66900  1.0000
  Nb  Nb4       1.0  0.70900  0.15800  0.85400  1.0000
  Se  Se1       1.0  0.50600  0.19800  0.00814  1.0000
  Se  Se2       1.0  0.81400  0.31200  0.06280  1.0000
  Se  Se3       1.0  0.22500  0.02980  0.09310  1.0000
  Se  Se4       1.0  0.14300  0.74100  0.09470  1.0000
  Se  Se5       1.0  0.49400  0.57300  0.10800  1.0000
  Se  Se6       1.0  0.13100  0.51900  0.15600  1.0000
  Se  Se7       1.0  0.59800  0.94300  0.25300  1.0000
  Se  Se8       1.0  0.44200  0.63900  0.33300  1.0000
  Se  Se9       1.0  0.26100  0.94300  0.37400  1.0000
  Se  Se10      1.0  0.81300  0.44500  0.41000  1.0000
  Se  Se11      1.0  0.93900  0.78600  0.41400  1.0000
  Se  Se12      1.0  0.19800  0.50600  0.50800  1.0000
  Se  Se13      1.0  0.31200  0.81400  0.56300  1.0000
  Se  Se14      1.0  0.02980  0.22500  0.59300  1.0000
  Se  Se15      1.0  0.74100  0.14300  0.59500  1.0000
  Se  Se16      1.0  0.57300  0.49400  0.60800  1.0000
  Se  Se17      1.0  0.51900  0.13100  0.65600  1.0000
  Se  Se18      1.0  0.94300  0.59800  0.75300  1.0000
  Se  Se19      1.0  0.63900  0.44200  0.83300  1.0000
  Se  Se20      1.0  0.94300  0.26100  0.87400  1.0000
  Se  Se21      1.0  0.44500  0.81300  0.91000  1.0000
  Se  Se22      1.0  0.78600  0.93900  0.91400  1.0000
