data_image0
_chemical_formula_structural       Cl14K4Nb6O10
_chemical_formula_sum              "Cl14 K4 Nb6 O10"
_cell_length_a       8.94397
_cell_length_b       9.48044
_cell_length_c       11.1923
_cell_angle_alpha    110.253
_cell_angle_beta     90
_cell_angle_gamma    118.145

_space_group_name_H-M_alt    "P 1"
_space_group_IT_number       1

loop_
  _space_group_symop_operation_xyz
  'x, y, z'

loop_
  _atom_site_type_symbol
  _atom_site_label
  _atom_site_symmetry_multiplicity
  _atom_site_fract_x
  _atom_site_fract_y
  _atom_site_fract_z
  _atom_site_occupancy
  Cl  Cl1       1.0  0.36700  0.32000  0.04820  1.0000
  Cl  Cl2       1.0  0.94000  0.30900  0.13600  1.0000
  Cl  Cl3       1.0  0.27000  0.68900  0.16000  1.0000
  Cl  Cl4       1.0  0.91500  0.00000  0.25000  1.0000
  Cl  Cl5       1.0  0.58100  0.31100  0.34000  1.0000
  Cl  Cl6       1.0  0.63100  0.69100  0.36400  1.0000
  Cl  Cl7       1.0  0.04650  0.68000  0.45200  1.0000
  Cl  Cl8       1.0  0.95300  0.32000  0.54800  1.0000
  Cl  Cl9       1.0  0.36900  0.30900  0.63600  1.0000
  Cl  Cl10      1.0  0.41900  0.68900  0.66000  1.0000
  Cl  Cl11      1.0  0.08530  0.00000  0.75000  1.0000
  Cl  Cl12      1.0  0.73000  0.31100  0.84000  1.0000
  Cl  Cl13      1.0  0.05980  0.69100  0.86400  1.0000
  Cl  Cl14      1.0  0.63300  0.68000  0.95200  1.0000
  K   K1        1.0  0.83000  0.59000  0.14300  1.0000
  K   K2        1.0  0.24000  0.41000  0.35700  1.0000
  K   K3        1.0  0.76000  0.59000  0.64300  1.0000
  K   K4        1.0  0.17000  0.41000  0.85700  1.0000
  Nb  Nb1       1.0  0.78400  0.99300  0.02690  1.0000
  Nb  Nb2       1.0  0.46000  0.00000  0.25000  1.0000
  Nb  Nb3       1.0  0.79100  0.00666  0.47300  1.0000
  Nb  Nb4       1.0  0.20900  0.99300  0.52700  1.0000
  Nb  Nb5       1.0  0.54000  0.00000  0.75000  1.0000
  Nb  Nb6       1.0  0.21600  0.00666  0.97300  1.0000
  O   O1        1.0  0.00000  0.00000  0.00000  1.0000
  O   O2        1.0  0.59700  0.99500  0.12400  1.0000
  O   O3        1.0  0.28600  0.00487  0.12400  1.0000
  O   O4        1.0  0.28200  0.99500  0.37600  1.0000
  O   O5        1.0  0.60200  0.00505  0.37600  1.0000
  O   O6        1.0  0.00000  0.00000  0.50000  1.0000
  O   O7        1.0  0.39800  0.99500  0.62400  1.0000
  O   O8        1.0  0.71800  0.00487  0.62400  1.0000
  O   O9        1.0  0.71400  0.99500  0.87600  1.0000
  O   O10       1.0  0.40300  0.00505  0.87600  1.0000
