data_image0
_chemical_formula_structural       As4Fe4H4O20Zn2
_chemical_formula_sum              "As4 Fe4 H4 O20 Zn2"
_cell_length_a       6.654
_cell_length_b       7.5942
_cell_length_c       7.34627
_cell_angle_alpha    90
_cell_angle_beta     91.742
_cell_angle_gamma    90

_space_group_name_H-M_alt    "P 1"
_space_group_IT_number       1

loop_
  _space_group_symop_operation_xyz
  'x, y, z'

loop_
  _atom_site_type_symbol
  _atom_site_label
  _atom_site_symmetry_multiplicity
  _atom_site_fract_x
  _atom_site_fract_y
  _atom_site_fract_z
  _atom_site_occupancy
  As  As1       1.0  0.73800  0.87900  0.13500  1.0000
  As  As2       1.0  0.76200  0.37900  0.36500  1.0000
  As  As3       1.0  0.23800  0.62100  0.63500  1.0000
  As  As4       1.0  0.26200  0.12100  0.86500  1.0000
  Fe  Fe1       1.0  0.27200  0.86400  0.23900  1.0000
  Fe  Fe2       1.0  0.22800  0.36400  0.26100  1.0000
  Fe  Fe3       1.0  0.77200  0.63600  0.73900  1.0000
  Fe  Fe4       1.0  0.72800  0.13600  0.76100  1.0000
  H   H1        1.0  0.15700  0.62400  0.03420  1.0000
  H   H2        1.0  0.34300  0.12400  0.46600  1.0000
  H   H3        1.0  0.65700  0.87600  0.53400  1.0000
  H   H4        1.0  0.84300  0.37600  0.96600  1.0000
  O   O1        1.0  0.73200  0.69000  0.00765  1.0000
  O   O2        1.0  0.70700  0.06470  0.00877  1.0000
  O   O3        1.0  0.25200  0.61700  0.14100  1.0000
  O   O4        1.0  0.94000  0.36200  0.20100  1.0000
  O   O5        1.0  0.53500  0.38900  0.25000  1.0000
  O   O6        1.0  0.96500  0.88900  0.25000  1.0000
  O   O7        1.0  0.56000  0.86200  0.29900  1.0000
  O   O8        1.0  0.24800  0.11700  0.35900  1.0000
  O   O9        1.0  0.79300  0.56500  0.49100  1.0000
  O   O10       1.0  0.76800  0.19000  0.49200  1.0000
  O   O11       1.0  0.23200  0.81000  0.50800  1.0000
  O   O12       1.0  0.20700  0.43500  0.50900  1.0000
  O   O13       1.0  0.75200  0.88300  0.64100  1.0000
  O   O14       1.0  0.44000  0.13800  0.70100  1.0000
  O   O15       1.0  0.03550  0.11100  0.75000  1.0000
  O   O16       1.0  0.46500  0.61100  0.75000  1.0000
  O   O17       1.0  0.06030  0.63800  0.79900  1.0000
  O   O18       1.0  0.74800  0.38300  0.85900  1.0000
  O   O19       1.0  0.29300  0.93500  0.99100  1.0000
  O   O20       1.0  0.26800  0.31000  0.99200  1.0000
  Zn  Zn1       1.0  0.50000  0.50000  0.00000  1.0000
  Zn  Zn2       1.0  0.00000  0.00000  0.50000  1.0000
