data_image0
_chemical_formula_structural       Cl14Nb6O10Rb4
_chemical_formula_sum              "Cl14 Nb6 O10 Rb4"
_cell_length_a       8.98416
_cell_length_b       9.53846
_cell_length_c       11.1894
_cell_angle_alpha    108.918
_cell_angle_beta     90
_cell_angle_gamma    118.096

_space_group_name_H-M_alt    "P 1"
_space_group_IT_number       1

loop_
  _space_group_symop_operation_xyz
  'x, y, z'

loop_
  _atom_site_type_symbol
  _atom_site_label
  _atom_site_symmetry_multiplicity
  _atom_site_fract_x
  _atom_site_fract_y
  _atom_site_fract_z
  _atom_site_occupancy
  Cl  Cl1       1.0  0.36800  0.31500  0.04510  1.0000
  Cl  Cl2       1.0  0.94100  0.30400  0.12700  1.0000
  Cl  Cl3       1.0  0.27800  0.69400  0.16700  1.0000
  Cl  Cl4       1.0  0.91200  0.00000  0.25000  1.0000
  Cl  Cl5       1.0  0.58400  0.30600  0.33300  1.0000
  Cl  Cl6       1.0  0.63700  0.69600  0.37300  1.0000
  Cl  Cl7       1.0  0.05310  0.68500  0.45500  1.0000
  Cl  Cl8       1.0  0.94700  0.31500  0.54500  1.0000
  Cl  Cl9       1.0  0.36300  0.30400  0.62700  1.0000
  Cl  Cl10      1.0  0.41600  0.69400  0.66700  1.0000
  Cl  Cl11      1.0  0.08810  0.00000  0.75000  1.0000
  Cl  Cl12      1.0  0.72200  0.30600  0.83300  1.0000
  Cl  Cl13      1.0  0.05920  0.69600  0.87300  1.0000
  Cl  Cl14      1.0  0.63200  0.68500  0.95500  1.0000
  Nb  Nb1       1.0  0.78400  0.99400  0.02610  1.0000
  Nb  Nb2       1.0  0.46300  0.00000  0.25000  1.0000
  Nb  Nb3       1.0  0.79100  0.00632  0.47400  1.0000
  Nb  Nb4       1.0  0.20900  0.99400  0.52600  1.0000
  Nb  Nb5       1.0  0.53700  0.00000  0.75000  1.0000
  Nb  Nb6       1.0  0.21600  0.00631  0.97400  1.0000
  O   O1        1.0  0.00000  0.00000  0.00000  1.0000
  O   O2        1.0  0.28600  0.00286  0.12400  1.0000
  O   O3        1.0  0.59900  0.99700  0.12400  1.0000
  O   O4        1.0  0.60300  0.00348  0.37600  1.0000
  O   O5        1.0  0.28400  0.99700  0.37600  1.0000
  O   O6        1.0  0.00000  0.00000  0.50000  1.0000
  O   O7        1.0  0.71600  0.00286  0.62400  1.0000
  O   O8        1.0  0.39700  0.99700  0.62400  1.0000
  O   O9        1.0  0.40100  0.00348  0.87600  1.0000
  O   O10       1.0  0.71400  0.99700  0.87600  1.0000
  Rb  Rb1       1.0  0.83800  0.59500  0.14400  1.0000
  Rb  Rb2       1.0  0.24300  0.40500  0.35600  1.0000
  Rb  Rb3       1.0  0.75700  0.59500  0.64400  1.0000
  Rb  Rb4       1.0  0.16200  0.40500  0.85600  1.0000
