data_image0
_chemical_formula_structural       B2C6Cs2F18N2O4
_chemical_formula_sum              "B2 C6 Cs2 F18 N2 O4"
_cell_length_a       5.9199
_cell_length_b       7.3101
_cell_length_c       9.03837
_cell_angle_alpha    92.3687
_cell_angle_beta     96.4236
_cell_angle_gamma    91.1928

_space_group_name_H-M_alt    "P 1"
_space_group_IT_number       1

loop_
  _space_group_symop_operation_xyz
  'x, y, z'

loop_
  _atom_site_type_symbol
  _atom_site_label
  _atom_site_symmetry_multiplicity
  _atom_site_fract_x
  _atom_site_fract_y
  _atom_site_fract_z
  _atom_site_occupancy
  B   B1        1.0  0.61200  0.23500  0.25900  1.0000
  B   B2        1.0  0.38800  0.76500  0.74100  1.0000
  C   C1        1.0  0.41000  0.36700  0.19900  1.0000
  C   C2        1.0  0.51400  0.03020  0.27600  1.0000
  C   C3        1.0  0.74200  0.31500  0.41500  1.0000
  C   C4        1.0  0.25800  0.68500  0.58500  1.0000
  C   C5        1.0  0.48500  0.97000  0.72400  1.0000
  C   C6        1.0  0.59000  0.63300  0.80100  1.0000
  Cs  Cs1       1.0  0.00956  0.73500  0.20300  1.0000
  Cs  Cs2       1.0  0.99000  0.26500  0.79700  1.0000
  F   F1        1.0  0.31800  0.30700  0.05850  1.0000
  F   F2        1.0  0.44700  0.93900  0.14100  1.0000
  F   F3        1.0  0.47100  0.54800  0.18800  1.0000
  F   F4        1.0  0.23500  0.36900  0.28600  1.0000
  F   F5        1.0  0.66700  0.91900  0.35100  1.0000
  F   F6        1.0  0.32700  0.02940  0.35300  1.0000
  F   F7        1.0  0.81400  0.49300  0.40900  1.0000
  F   F8        1.0  0.93200  0.21700  0.46000  1.0000
  F   F9        1.0  0.39200  0.68700  0.47200  1.0000
  F   F10       1.0  0.60800  0.31300  0.52800  1.0000
  F   F11       1.0  0.06810  0.78300  0.54000  1.0000
  F   F12       1.0  0.18600  0.50700  0.59100  1.0000
  F   F13       1.0  0.67300  0.97100  0.64700  1.0000
  F   F14       1.0  0.33300  0.08130  0.64900  1.0000
  F   F15       1.0  0.76500  0.63100  0.71400  1.0000
  F   F16       1.0  0.52900  0.45200  0.81200  1.0000
  F   F17       1.0  0.55300  0.06140  0.85900  1.0000
  F   F18       1.0  0.68200  0.69300  0.94100  1.0000
  N   N1        1.0  0.79100  0.23500  0.14200  1.0000
  N   N2        1.0  0.20900  0.76600  0.85800  1.0000
  O   O1        1.0  0.82700  0.38100  0.08330  1.0000
  O   O2        1.0  0.89100  0.09250  0.11200  1.0000
  O   O3        1.0  0.10900  0.90700  0.88800  1.0000
  O   O4        1.0  0.17300  0.61900  0.91700  1.0000
