data_image0
_chemical_formula_structural       H6O18P6Sc4
_chemical_formula_sum              "H6 O18 P6 Sc4"
_cell_length_a       8.03565
_cell_length_b       8.03557
_cell_length_c       7.70807
_cell_angle_alpha    90
_cell_angle_beta     90
_cell_angle_gamma    120

_space_group_name_H-M_alt    "P 1"
_space_group_IT_number       1

loop_
  _space_group_symop_operation_xyz
  'x, y, z'

loop_
  _atom_site_type_symbol
  _atom_site_label
  _atom_site_symmetry_multiplicity
  _atom_site_fract_x
  _atom_site_fract_y
  _atom_site_fract_z
  _atom_site_occupancy
  H   H1        1.0  0.01920  0.16000  0.25000  1.0000
  H   H2        1.0  0.84000  0.85900  0.25000  1.0000
  H   H3        1.0  0.14100  0.98100  0.25000  1.0000
  H   H4        1.0  0.85900  0.01920  0.75000  1.0000
  H   H5        1.0  0.16000  0.14100  0.75000  1.0000
  H   H6        1.0  0.98100  0.84000  0.75000  1.0000
  O   O1        1.0  0.42100  0.16400  0.08370  1.0000
  O   O2        1.0  0.83600  0.25700  0.08370  1.0000
  O   O3        1.0  0.74300  0.57900  0.08370  1.0000
  O   O4        1.0  0.13100  0.49600  0.25000  1.0000
  O   O5        1.0  0.50400  0.63500  0.25000  1.0000
  O   O6        1.0  0.36500  0.86900  0.25000  1.0000
  O   O7        1.0  0.74300  0.57900  0.41600  1.0000
  O   O8        1.0  0.42100  0.16400  0.41600  1.0000
  O   O9        1.0  0.83600  0.25700  0.41600  1.0000
  O   O10       1.0  0.57900  0.83600  0.58400  1.0000
  O   O11       1.0  0.25700  0.42100  0.58400  1.0000
  O   O12       1.0  0.16400  0.74300  0.58400  1.0000
  O   O13       1.0  0.63500  0.13100  0.75000  1.0000
  O   O14       1.0  0.49600  0.36500  0.75000  1.0000
  O   O15       1.0  0.86900  0.50400  0.75000  1.0000
  O   O16       1.0  0.25700  0.42100  0.91600  1.0000
  O   O17       1.0  0.16400  0.74300  0.91600  1.0000
  O   O18       1.0  0.57900  0.83600  0.91600  1.0000
  P   P1        1.0  0.33900  0.04780  0.25000  1.0000
  P   P2        1.0  0.95200  0.29100  0.25000  1.0000
  P   P3        1.0  0.70900  0.66100  0.25000  1.0000
  P   P4        1.0  0.29100  0.33900  0.75000  1.0000
  P   P5        1.0  0.04780  0.70900  0.75000  1.0000
  P   P6        1.0  0.66100  0.95200  0.75000  1.0000
  Sc  Sc1       1.0  0.33300  0.66700  0.04660  1.0000
  Sc  Sc2       1.0  0.33300  0.66700  0.45300  1.0000
  Sc  Sc3       1.0  0.66700  0.33300  0.54700  1.0000
  Sc  Sc4       1.0  0.66700  0.33300  0.95300  1.0000
