data_image0
_chemical_formula_structural       Ba3O20Si4TeZn6
_chemical_formula_sum              "Ba3 O20 Si4 Te1 Zn6"
_cell_length_a       5.14622
_cell_length_b       9.8276
_cell_length_c       9.8276
_cell_angle_alpha    71.8868
_cell_angle_beta     103.832
_cell_angle_gamma    103.832

_space_group_name_H-M_alt    "P 1"
_space_group_IT_number       1

loop_
  _space_group_symop_operation_xyz
  'x, y, z'

loop_
  _atom_site_type_symbol
  _atom_site_label
  _atom_site_symmetry_multiplicity
  _atom_site_fract_x
  _atom_site_fract_y
  _atom_site_fract_z
  _atom_site_occupancy
  Ba  Ba1       1.0  0.75400  0.21300  0.21300  1.0000
  Ba  Ba2       1.0  0.00000  0.50000  0.50000  1.0000
  Ba  Ba3       1.0  0.24600  0.78700  0.78700  1.0000
  O   O1        1.0  0.10700  0.81000  0.04580  1.0000
  O   O2        1.0  0.36900  0.07050  0.07050  1.0000
  O   O3        1.0  0.34700  0.38200  0.11700  1.0000
  O   O4        1.0  0.55400  0.63700  0.18700  1.0000
  O   O5        1.0  0.89300  0.95400  0.19000  1.0000
  O   O6        1.0  0.03470  0.49400  0.22400  1.0000
  O   O7        1.0  0.44600  0.81300  0.36300  1.0000
  O   O8        1.0  0.34700  0.11700  0.38200  1.0000
  O   O9        1.0  0.46800  0.39300  0.39300  1.0000
  O   O10       1.0  0.03470  0.22400  0.49400  1.0000
  O   O11       1.0  0.96500  0.77600  0.50600  1.0000
  O   O12       1.0  0.53200  0.60700  0.60700  1.0000
  O   O13       1.0  0.65300  0.88300  0.61800  1.0000
  O   O14       1.0  0.55400  0.18700  0.63700  1.0000
  O   O15       1.0  0.96500  0.50600  0.77600  1.0000
  O   O16       1.0  0.10700  0.04580  0.81000  1.0000
  O   O17       1.0  0.44600  0.36300  0.81300  1.0000
  O   O18       1.0  0.65300  0.61800  0.88300  1.0000
  O   O19       1.0  0.63100  0.93000  0.93000  1.0000
  O   O20       1.0  0.89300  0.19000  0.95400  1.0000
  Si  Si1       1.0  0.34400  0.48200  0.22100  1.0000
  Si  Si2       1.0  0.34400  0.22100  0.48200  1.0000
  Si  Si3       1.0  0.65600  0.77900  0.51800  1.0000
  Si  Si4       1.0  0.65600  0.51800  0.77900  1.0000
  Te  Te1       1.0  0.00000  0.00000  0.00000  1.0000
  Zn  Zn1       1.0  0.82600  0.63400  0.07660  1.0000
  Zn  Zn2       1.0  0.50000  0.84600  0.15400  1.0000
  Zn  Zn3       1.0  0.17400  0.92300  0.36600  1.0000
  Zn  Zn4       1.0  0.82600  0.07660  0.63400  1.0000
  Zn  Zn5       1.0  0.50000  0.15400  0.84600  1.0000
  Zn  Zn6       1.0  0.17400  0.36600  0.92300  1.0000
