data_image0
_chemical_formula_structural       Ce4O22Te8
_chemical_formula_sum              "Ce4 O22 Te8"
_cell_length_a       5.24722
_cell_length_b       6.8791
_cell_length_c       15.9576
_cell_angle_alpha    92.2616
_cell_angle_beta     99.4631
_cell_angle_gamma    112.42

_space_group_name_H-M_alt    "P 1"
_space_group_IT_number       1

loop_
  _space_group_symop_operation_xyz
  'x, y, z'

loop_
  _atom_site_type_symbol
  _atom_site_label
  _atom_site_symmetry_multiplicity
  _atom_site_fract_x
  _atom_site_fract_y
  _atom_site_fract_z
  _atom_site_occupancy
  Ce  Ce1       1.0  0.66100  0.80100  0.03780  1.0000
  Ce  Ce2       1.0  0.32200  0.69900  0.46200  1.0000
  Ce  Ce3       1.0  0.67800  0.30100  0.53800  1.0000
  Ce  Ce4       1.0  0.33900  0.19900  0.96200  1.0000
  O   O1        1.0  0.99600  0.19300  0.04800  1.0000
  O   O2        1.0  0.72500  0.47300  0.06090  1.0000
  O   O3        1.0  0.48300  0.05030  0.10400  1.0000
  O   O4        1.0  0.31200  0.63000  0.13300  1.0000
  O   O5        1.0  0.96600  0.87400  0.17600  1.0000
  O   O6        1.0  0.38600  0.25000  0.25000  1.0000
  O   O7        1.0  0.41600  0.62600  0.32400  1.0000
  O   O8        1.0  0.04880  0.87000  0.36700  1.0000
  O   O9        1.0  0.82900  0.45000  0.39600  1.0000
  O   O10       1.0  0.69200  0.02740  0.43900  1.0000
  O   O11       1.0  0.25500  0.30700  0.45200  1.0000
  O   O12       1.0  0.74500  0.69300  0.54800  1.0000
  O   O13       1.0  0.30800  0.97300  0.56100  1.0000
  O   O14       1.0  0.17100  0.55000  0.60400  1.0000
  O   O15       1.0  0.95100  0.13000  0.63300  1.0000
  O   O16       1.0  0.58400  0.37400  0.67600  1.0000
  O   O17       1.0  0.61400  0.75000  0.75000  1.0000
  O   O18       1.0  0.03440  0.12600  0.82400  1.0000
  O   O19       1.0  0.68800  0.37000  0.86700  1.0000
  O   O20       1.0  0.51700  0.95000  0.89600  1.0000
  O   O21       1.0  0.27500  0.52700  0.93900  1.0000
  O   O22       1.0  0.00398  0.80700  0.95200  1.0000
  Te  Te1       1.0  0.97700  0.38400  0.13300  1.0000
  Te  Te2       1.0  0.35300  0.95900  0.20600  1.0000
  Te  Te3       1.0  0.68700  0.54100  0.29400  1.0000
  Te  Te4       1.0  0.96000  0.11600  0.36700  1.0000
  Te  Te5       1.0  0.04000  0.88400  0.63300  1.0000
  Te  Te6       1.0  0.31300  0.45900  0.70600  1.0000
  Te  Te7       1.0  0.64700  0.04090  0.79400  1.0000
  Te  Te8       1.0  0.02310  0.61600  0.86700  1.0000
