data_image0
_chemical_formula_structural       C8CuH16N8Ni
_chemical_formula_sum              "C8 Cu1 H16 N8 Ni1"
_cell_length_a       6.32561
_cell_length_b       7.14538
_cell_length_c       7.82601
_cell_angle_alpha    106.589
_cell_angle_beta     91.608
_cell_angle_gamma    107.335

_space_group_name_H-M_alt    "P 1"
_space_group_IT_number       1

loop_
  _space_group_symop_operation_xyz
  'x, y, z'

loop_
  _atom_site_type_symbol
  _atom_site_label
  _atom_site_symmetry_multiplicity
  _atom_site_fract_x
  _atom_site_fract_y
  _atom_site_fract_z
  _atom_site_occupancy
  C   C1        1.0  0.72200  0.72700  0.16200  1.0000
  C   C2        1.0  0.78000  0.93700  0.30100  1.0000
  C   C3        1.0  0.41300  0.25400  0.32000  1.0000
  C   C4        1.0  0.28700  0.57300  0.39400  1.0000
  C   C5        1.0  0.71300  0.42700  0.60600  1.0000
  C   C6        1.0  0.58700  0.74600  0.68000  1.0000
  C   C7        1.0  0.22000  0.06270  0.69900  1.0000
  C   C8        1.0  0.27800  0.27300  0.83800  1.0000
  Cu  Cu1       1.0  0.00000  0.00000  0.00000  1.0000
  H   H1        1.0  0.13600  0.39300  0.06530  1.0000
  H   H2        1.0  0.56900  0.69500  0.07420  1.0000
  H   H3        1.0  0.03860  0.71800  0.12600  1.0000
  H   H4        1.0  0.68900  0.10400  0.15500  1.0000
  H   H5        1.0  0.69600  0.60700  0.23000  1.0000
  H   H6        1.0  0.92000  0.23700  0.29500  1.0000
  H   H7        1.0  0.64300  0.95000  0.38200  1.0000
  H   H8        1.0  0.92900  0.96300  0.39000  1.0000
  H   H9        1.0  0.07100  0.03740  0.61000  1.0000
  H   H10       1.0  0.35700  0.05030  0.61800  1.0000
  H   H11       1.0  0.07980  0.76300  0.70500  1.0000
  H   H12       1.0  0.30400  0.39300  0.77000  1.0000
  H   H13       1.0  0.31100  0.89600  0.84500  1.0000
  H   H14       1.0  0.96100  0.28200  0.87400  1.0000
  H   H15       1.0  0.43100  0.30500  0.92600  1.0000
  H   H16       1.0  0.86400  0.60700  0.93500  1.0000
  N   N1        1.0  0.90700  0.72800  0.05200  1.0000
  N   N2        1.0  0.35800  0.09960  0.19900  1.0000
  N   N3        1.0  0.83500  0.09480  0.20800  1.0000
  N   N4        1.0  0.15300  0.61400  0.31700  1.0000
  N   N5        1.0  0.84700  0.38600  0.68300  1.0000
  N   N6        1.0  0.16500  0.90500  0.79200  1.0000
  N   N7        1.0  0.64200  0.90000  0.80100  1.0000
  N   N8        1.0  0.09290  0.27200  0.94800  1.0000
  Ni  Ni1       1.0  0.50000  0.50000  0.50000  1.0000
