data_image0
_chemical_formula_structural       C2F18H4O6S2Sb2
_chemical_formula_sum              "C2 F18 H4 O6 S2 Sb2"
_cell_length_a       6.54717
_cell_length_b       7.18395
_cell_length_c       8.12876
_cell_angle_alpha    74.4359
_cell_angle_beta     73.091
_cell_angle_gamma    84.7513

_space_group_name_H-M_alt    "P 1"
_space_group_IT_number       1

loop_
  _space_group_symop_operation_xyz
  'x, y, z'

loop_
  _atom_site_type_symbol
  _atom_site_label
  _atom_site_symmetry_multiplicity
  _atom_site_fract_x
  _atom_site_fract_y
  _atom_site_fract_z
  _atom_site_occupancy
  C   C1        1.0  0.99500  0.69200  0.22100  1.0000
  C   C2        1.0  0.00524  0.30800  0.77900  1.0000
  F   F1        1.0  0.43800  0.31900  0.03540  1.0000
  F   F2        1.0  0.99800  0.82000  0.06800  1.0000
  F   F3        1.0  0.32900  0.93600  0.13800  1.0000
  F   F4        1.0  0.17700  0.58900  0.21100  1.0000
  F   F5        1.0  0.66500  0.04310  0.21300  1.0000
  F   F6        1.0  0.08180  0.18100  0.29900  1.0000
  F   F7        1.0  0.95300  0.77700  0.35400  1.0000
  F   F8        1.0  0.41000  0.30000  0.37400  1.0000
  F   F9        1.0  0.30700  0.92300  0.48000  1.0000
  F   F10       1.0  0.69300  0.07690  0.52000  1.0000
  F   F11       1.0  0.59000  0.70000  0.62600  1.0000
  F   F12       1.0  0.04690  0.22300  0.64600  1.0000
  F   F13       1.0  0.91800  0.81900  0.70100  1.0000
  F   F14       1.0  0.33500  0.95700  0.78700  1.0000
  F   F15       1.0  0.82300  0.41100  0.78900  1.0000
  F   F16       1.0  0.67100  0.06400  0.86200  1.0000
  F   F17       1.0  0.00198  0.18000  0.93200  1.0000
  F   F18       1.0  0.56200  0.68100  0.96500  1.0000
  H   H1        1.0  0.55600  0.68800  0.14100  1.0000
  H   H2        1.0  0.72800  0.26600  0.48300  1.0000
  H   H3        1.0  0.27200  0.73400  0.51700  1.0000
  H   H4        1.0  0.44400  0.31200  0.85900  1.0000
  O   O1        1.0  0.82300  0.41600  0.13100  1.0000
  O   O2        1.0  0.58600  0.65800  0.26500  1.0000
  O   O3        1.0  0.76100  0.41600  0.45100  1.0000
  O   O4        1.0  0.23900  0.58400  0.54900  1.0000
  O   O5        1.0  0.41400  0.34200  0.73500  1.0000
  O   O6        1.0  0.17700  0.58400  0.86900  1.0000
  S   S1        1.0  0.77900  0.52100  0.26200  1.0000
  S   S2        1.0  0.22100  0.47900  0.73800  1.0000
  Sb  Sb1       1.0  0.37600  0.11800  0.25400  1.0000
  Sb  Sb2       1.0  0.62400  0.88200  0.74600  1.0000
