data_image0
_chemical_formula_structural       Cs4I8O22
_chemical_formula_sum              "Cs4 I8 O22"
_cell_length_a       7.27786
_cell_length_b       7.27788
_cell_length_c       13.5414
_cell_angle_alpha    90
_cell_angle_beta     90
_cell_angle_gamma    120.001

_space_group_name_H-M_alt    "P 1"
_space_group_IT_number       1

loop_
  _space_group_symop_operation_xyz
  'x, y, z'

loop_
  _atom_site_type_symbol
  _atom_site_label
  _atom_site_symmetry_multiplicity
  _atom_site_fract_x
  _atom_site_fract_y
  _atom_site_fract_z
  _atom_site_occupancy
  Cs  Cs1       1.0  0.33300  0.66700  0.35800  1.0000
  Cs  Cs2       1.0  0.66700  0.33300  0.48400  1.0000
  Cs  Cs3       1.0  0.66700  0.33300  0.85800  1.0000
  Cs  Cs4       1.0  0.33300  0.66700  0.98400  1.0000
  I   I1        1.0  0.86300  0.66600  0.17900  1.0000
  I   I2        1.0  0.33400  0.19700  0.17900  1.0000
  I   I3        1.0  0.80300  0.13700  0.17900  1.0000
  I   I4        1.0  0.00000  0.00000  0.42800  1.0000
  I   I5        1.0  0.13700  0.33400  0.67900  1.0000
  I   I6        1.0  0.66600  0.80300  0.67900  1.0000
  I   I7        1.0  0.19700  0.86300  0.67900  1.0000
  I   I8        1.0  0.00000  0.00000  0.92800  1.0000
  O   O1        1.0  0.66700  0.33300  0.15600  1.0000
  O   O2        1.0  0.33300  0.94600  0.17200  1.0000
  O   O3        1.0  0.05430  0.38800  0.17200  1.0000
  O   O4        1.0  0.61200  0.66700  0.17200  1.0000
  O   O5        1.0  0.00000  0.00000  0.18800  1.0000
  O   O6        1.0  0.76100  0.11300  0.31100  1.0000
  O   O7        1.0  0.35200  0.23900  0.31100  1.0000
  O   O8        1.0  0.88700  0.64800  0.31100  1.0000
  O   O9        1.0  0.09110  0.25600  0.49100  1.0000
  O   O10       1.0  0.74400  0.83500  0.49100  1.0000
  O   O11       1.0  0.16500  0.90900  0.49100  1.0000
  O   O12       1.0  0.33300  0.66700  0.65600  1.0000
  O   O13       1.0  0.66700  0.05430  0.67200  1.0000
  O   O14       1.0  0.94600  0.61200  0.67200  1.0000
  O   O15       1.0  0.38800  0.33300  0.67200  1.0000
  O   O16       1.0  0.00000  0.00000  0.68800  1.0000
  O   O17       1.0  0.23900  0.88700  0.81100  1.0000
  O   O18       1.0  0.64800  0.76100  0.81100  1.0000
  O   O19       1.0  0.11300  0.35200  0.81100  1.0000
  O   O20       1.0  0.90900  0.74400  0.99100  1.0000
  O   O21       1.0  0.25600  0.16500  0.99100  1.0000
  O   O22       1.0  0.83500  0.09110  0.99100  1.0000
