data_image0
_chemical_formula_structural       K2Mn2Na2O20Si8
_chemical_formula_sum              "K2 Mn2 Na2 O20 Si8"
_cell_length_a       6.97296
_cell_length_b       8.09087
_cell_length_c       9.91333
_cell_angle_alpha    105.22
_cell_angle_beta     98.9891
_cell_angle_gamma    115.333

_space_group_name_H-M_alt    "P 1"
_space_group_IT_number       1

loop_
  _space_group_symop_operation_xyz
  'x, y, z'

loop_
  _atom_site_type_symbol
  _atom_site_label
  _atom_site_symmetry_multiplicity
  _atom_site_fract_x
  _atom_site_fract_y
  _atom_site_fract_z
  _atom_site_occupancy
  K   K1        1.0  0.83700  0.20500  0.00698  1.0000
  K   K2        1.0  0.16300  0.79500  0.99300  1.0000
  Mn  Mn1       1.0  0.66200  0.11000  0.40800  1.0000
  Mn  Mn2       1.0  0.33800  0.89000  0.59200  1.0000
  Na  Na1       1.0  0.16300  0.13600  0.41100  1.0000
  Na  Na2       1.0  0.83700  0.86400  0.58900  1.0000
  O   O1        1.0  0.31000  0.18000  0.03710  1.0000
  O   O2        1.0  0.46700  0.67000  0.13300  1.0000
  O   O3        1.0  0.88300  0.74000  0.16100  1.0000
  O   O4        1.0  0.10900  0.57100  0.20600  1.0000
  O   O5        1.0  0.71700  0.41700  0.22700  1.0000
  O   O6        1.0  0.81000  0.04750  0.24200  1.0000
  O   O7        1.0  0.40700  0.11900  0.27700  1.0000
  O   O8        1.0  0.37000  0.43900  0.29300  1.0000
  O   O9        1.0  0.50400  0.82300  0.42000  1.0000
  O   O10       1.0  0.02670  0.77300  0.43800  1.0000
  O   O11       1.0  0.97300  0.22700  0.56200  1.0000
  O   O12       1.0  0.49600  0.17700  0.58000  1.0000
  O   O13       1.0  0.63000  0.56100  0.70700  1.0000
  O   O14       1.0  0.59300  0.88100  0.72300  1.0000
  O   O15       1.0  0.19000  0.95300  0.75800  1.0000
  O   O16       1.0  0.28300  0.58300  0.77300  1.0000
  O   O17       1.0  0.89100  0.42900  0.79400  1.0000
  O   O18       1.0  0.11700  0.26000  0.83900  1.0000
  O   O19       1.0  0.53300  0.33000  0.86700  1.0000
  O   O20       1.0  0.69000  0.82000  0.96300  1.0000
  Si  Si1       1.0  0.71400  0.82800  0.13200  1.0000
  Si  Si2       1.0  0.45400  0.28800  0.21200  1.0000
  Si  Si3       1.0  0.93500  0.63300  0.27000  1.0000
  Si  Si4       1.0  0.37100  0.63400  0.27100  1.0000
  Si  Si5       1.0  0.62900  0.36600  0.72900  1.0000
  Si  Si6       1.0  0.06480  0.36700  0.73000  1.0000
  Si  Si7       1.0  0.54600  0.71200  0.78800  1.0000
  Si  Si8       1.0  0.28600  0.17200  0.86800  1.0000
