data_image0
_chemical_formula_structural       As2F12H12Li2O6
_chemical_formula_sum              "As2 F12 H12 Li2 O6"
_cell_length_a       8.01746
_cell_length_b       8.01727
_cell_length_c       4.9785
_cell_angle_alpha    90
_cell_angle_beta     90
_cell_angle_gamma    120.001

_space_group_name_H-M_alt    "P 1"
_space_group_IT_number       1

loop_
  _space_group_symop_operation_xyz
  'x, y, z'

loop_
  _atom_site_type_symbol
  _atom_site_label
  _atom_site_symmetry_multiplicity
  _atom_site_fract_x
  _atom_site_fract_y
  _atom_site_fract_z
  _atom_site_occupancy
  As  As1       1.0  0.33300  0.66700  0.42600  1.0000
  As  As2       1.0  0.66700  0.33300  0.92600  1.0000
  F   F1        1.0  0.45900  0.23000  0.12800  1.0000
  F   F2        1.0  0.77000  0.23000  0.12800  1.0000
  F   F3        1.0  0.77000  0.54100  0.12800  1.0000
  F   F4        1.0  0.12500  0.56200  0.22000  1.0000
  F   F5        1.0  0.43800  0.56200  0.22000  1.0000
  F   F6        1.0  0.43800  0.87500  0.22000  1.0000
  F   F7        1.0  0.23000  0.77000  0.62800  1.0000
  F   F8        1.0  0.54100  0.77000  0.62800  1.0000
  F   F9        1.0  0.23000  0.45900  0.62800  1.0000
  F   F10       1.0  0.56200  0.43800  0.72000  1.0000
  F   F11       1.0  0.87500  0.43800  0.72000  1.0000
  F   F12       1.0  0.56200  0.12500  0.72000  1.0000
  H   H1        1.0  0.05890  0.74800  0.06120  1.0000
  H   H2        1.0  0.68900  0.74800  0.06120  1.0000
  H   H3        1.0  0.05890  0.31100  0.06120  1.0000
  H   H4        1.0  0.25200  0.31100  0.06120  1.0000
  H   H5        1.0  0.25200  0.94100  0.06120  1.0000
  H   H6        1.0  0.68900  0.94100  0.06120  1.0000
  H   H7        1.0  0.31100  0.25200  0.56100  1.0000
  H   H8        1.0  0.94100  0.25200  0.56100  1.0000
  H   H9        1.0  0.74800  0.68900  0.56100  1.0000
  H   H10       1.0  0.94100  0.68900  0.56100  1.0000
  H   H11       1.0  0.31100  0.05890  0.56100  1.0000
  H   H12       1.0  0.74800  0.05890  0.56100  1.0000
  Li  Li1       1.0  0.00000  0.00000  0.30500  1.0000
  Li  Li2       1.0  0.00000  0.00000  0.80500  1.0000
  O   O1        1.0  0.11300  0.22700  0.05600  1.0000
  O   O2        1.0  0.11300  0.88700  0.05600  1.0000
  O   O3        1.0  0.77300  0.88700  0.05600  1.0000
  O   O4        1.0  0.88700  0.77300  0.55600  1.0000
  O   O5        1.0  0.22700  0.11300  0.55600  1.0000
  O   O6        1.0  0.88700  0.11300  0.55600  1.0000
