data_image0
_chemical_formula_structural       As2K6Se22Ta4
_chemical_formula_sum              "As2 K6 Se22 Ta4"
_cell_length_a       10.1341
_cell_length_b       10.1341
_cell_length_c       10.0467
_cell_angle_alpha    97.0055
_cell_angle_beta     97.0055
_cell_angle_gamma    82.7018

_space_group_name_H-M_alt    "P 1"
_space_group_IT_number       1

loop_
  _space_group_symop_operation_xyz
  'x, y, z'

loop_
  _atom_site_type_symbol
  _atom_site_label
  _atom_site_symmetry_multiplicity
  _atom_site_fract_x
  _atom_site_fract_y
  _atom_site_fract_z
  _atom_site_occupancy
  As  As1       1.0  0.64800  0.95800  0.09990  1.0000
  As  As2       1.0  0.95800  0.64800  0.60000  1.0000
  K   K1        1.0  0.73200  0.56400  0.16000  1.0000
  K   K2        1.0  0.94800  0.10200  0.25900  1.0000
  K   K3        1.0  0.33400  0.19800  0.41500  1.0000
  K   K4        1.0  0.56400  0.73200  0.66000  1.0000
  K   K5        1.0  0.10200  0.94800  0.75900  1.0000
  K   K6        1.0  0.19800  0.33400  0.91500  1.0000
  Se  Se1       1.0  0.55300  0.18700  0.08770  1.0000
  Se  Se2       1.0  0.21200  0.05820  0.08880  1.0000
  Se  Se3       1.0  0.05920  0.73700  0.12500  1.0000
  Se  Se4       1.0  0.36200  0.55800  0.16700  1.0000
  Se  Se5       1.0  0.05940  0.40100  0.24500  1.0000
  Se  Se6       1.0  0.48000  0.87000  0.34400  1.0000
  Se  Se7       1.0  0.42700  0.50500  0.39300  1.0000
  Se  Se8       1.0  0.25800  0.85500  0.40500  1.0000
  Se  Se9       1.0  0.97200  0.77200  0.40500  1.0000
  Se  Se10      1.0  0.68700  0.19000  0.43700  1.0000
  Se  Se11      1.0  0.80200  0.49400  0.49300  1.0000
  Se  Se12      1.0  0.18700  0.55300  0.58800  1.0000
  Se  Se13      1.0  0.05820  0.21200  0.58900  1.0000
  Se  Se14      1.0  0.73700  0.05920  0.62500  1.0000
  Se  Se15      1.0  0.55800  0.36200  0.66700  1.0000
  Se  Se16      1.0  0.40100  0.05940  0.74500  1.0000
  Se  Se17      1.0  0.87000  0.48000  0.84400  1.0000
  Se  Se18      1.0  0.50500  0.42700  0.89300  1.0000
  Se  Se19      1.0  0.85500  0.25800  0.90500  1.0000
  Se  Se20      1.0  0.77200  0.97200  0.90500  1.0000
  Se  Se21      1.0  0.19000  0.68700  0.93700  1.0000
  Se  Se22      1.0  0.49400  0.80200  0.99300  1.0000
  Ta  Ta1       1.0  0.29300  0.83900  0.14700  1.0000
  Ta  Ta2       1.0  0.17600  0.58800  0.33100  1.0000
  Ta  Ta3       1.0  0.83900  0.29300  0.64700  1.0000
  Ta  Ta4       1.0  0.58800  0.17600  0.83100  1.0000
