data_image0
_chemical_formula_structural       O20P4Sn10
_chemical_formula_sum              "O20 P4 Sn10"
_cell_length_a       7.06844
_cell_length_b       7.08893
_cell_length_c       12.7883
_cell_angle_alpha    87.0593
_cell_angle_beta     85.368
_cell_angle_gamma    61.2276

_space_group_name_H-M_alt    "P 1"
_space_group_IT_number       1

loop_
  _space_group_symop_operation_xyz
  'x, y, z'

loop_
  _atom_site_type_symbol
  _atom_site_label
  _atom_site_symmetry_multiplicity
  _atom_site_fract_x
  _atom_site_fract_y
  _atom_site_fract_z
  _atom_site_occupancy
  O   O1        1.0  0.59200  0.14200  0.01640  1.0000
  O   O2        1.0  0.30500  0.48500  0.10500  1.0000
  O   O3        1.0  0.09850  0.91700  0.14700  1.0000
  O   O4        1.0  0.34600  0.12400  0.17000  1.0000
  O   O5        1.0  0.64300  0.22000  0.19600  1.0000
  O   O6        1.0  0.93000  0.31500  0.28500  1.0000
  O   O7        1.0  0.10900  0.61600  0.31500  1.0000
  O   O8        1.0  0.23400  0.87500  0.37400  1.0000
  O   O9        1.0  0.82700  0.97400  0.38800  1.0000
  O   O10       1.0  0.90900  0.31100  0.49300  1.0000
  O   O11       1.0  0.09060  0.68900  0.50700  1.0000
  O   O12       1.0  0.17300  0.02620  0.61200  1.0000
  O   O13       1.0  0.76600  0.12500  0.62600  1.0000
  O   O14       1.0  0.89100  0.38400  0.68500  1.0000
  O   O15       1.0  0.07050  0.68500  0.71500  1.0000
  O   O16       1.0  0.35700  0.78000  0.80400  1.0000
  O   O17       1.0  0.65400  0.87600  0.83000  1.0000
  O   O18       1.0  0.90100  0.08280  0.85300  1.0000
  O   O19       1.0  0.69500  0.51500  0.89500  1.0000
  O   O20       1.0  0.40800  0.85800  0.98400  1.0000
  P   P1        1.0  0.46900  0.24300  0.12100  1.0000
  P   P2        1.0  0.06490  0.79500  0.39400  1.0000
  P   P3        1.0  0.93500  0.20500  0.60600  1.0000
  P   P4        1.0  0.53100  0.75700  0.87900  1.0000
  Sn  Sn1       1.0  0.93600  0.25100  0.12500  1.0000
  Sn  Sn2       1.0  0.43700  0.76600  0.14700  1.0000
  Sn  Sn3       1.0  0.96900  0.70700  0.16400  1.0000
  Sn  Sn4       1.0  0.20300  0.20500  0.37700  1.0000
  Sn  Sn5       1.0  0.66200  0.32200  0.37700  1.0000
  Sn  Sn6       1.0  0.33800  0.67800  0.62300  1.0000
  Sn  Sn7       1.0  0.79700  0.79500  0.62300  1.0000
  Sn  Sn8       1.0  0.03050  0.29300  0.83600  1.0000
  Sn  Sn9       1.0  0.56300  0.23400  0.85300  1.0000
  Sn  Sn10      1.0  0.06390  0.74900  0.87500  1.0000
