data_image0
_chemical_formula_structural       As2Nb4Rb6Se22
_chemical_formula_sum              "As2 Nb4 Rb6 Se22"
_cell_length_a       10.1497
_cell_length_b       10.2693
_cell_length_c       10.2693
_cell_angle_alpha    83.2606
_cell_angle_beta     96.5139
_cell_angle_gamma    96.5139

_space_group_name_H-M_alt    "P 1"
_space_group_IT_number       1

loop_
  _space_group_symop_operation_xyz
  'x, y, z'

loop_
  _atom_site_type_symbol
  _atom_site_label
  _atom_site_symmetry_multiplicity
  _atom_site_fract_x
  _atom_site_fract_y
  _atom_site_fract_z
  _atom_site_occupancy
  As  As1       1.0  0.36400  0.87400  0.55200  1.0000
  As  As2       1.0  0.86400  0.55200  0.87400  1.0000
  Nb  Nb1       1.0  0.60000  0.49900  0.09260  1.0000
  Nb  Nb2       1.0  0.41400  0.75200  0.20600  1.0000
  Nb  Nb3       1.0  0.09960  0.09260  0.49900  1.0000
  Nb  Nb4       1.0  0.91400  0.20600  0.75200  1.0000
  Rb  Rb1       1.0  0.01710  0.85200  0.01050  1.0000
  Rb  Rb2       1.0  0.18300  0.24700  0.11100  1.0000
  Rb  Rb3       1.0  0.68300  0.11100  0.24700  1.0000
  Rb  Rb4       1.0  0.92800  0.64500  0.48700  1.0000
  Rb  Rb5       1.0  0.42800  0.48700  0.64500  1.0000
  Rb  Rb6       1.0  0.51700  0.01050  0.85200  1.0000
  Se  Se1       1.0  0.85600  0.46200  0.10100  1.0000
  Se  Se2       1.0  0.21000  0.59800  0.10500  1.0000
  Se  Se3       1.0  0.35400  0.96700  0.12800  1.0000
  Se  Se4       1.0  0.67100  0.76600  0.17700  1.0000
  Se  Se5       1.0  0.43600  0.47300  0.27600  1.0000
  Se  Se6       1.0  0.01530  0.97700  0.31600  1.0000
  Se  Se7       1.0  0.65900  0.42100  0.34200  1.0000
  Se  Se8       1.0  0.60600  0.78100  0.39400  1.0000
  Se  Se9       1.0  0.25700  0.72000  0.40200  1.0000
  Se  Se10      1.0  0.15900  0.34200  0.42100  1.0000
  Se  Se11      1.0  0.35600  0.10100  0.46200  1.0000
  Se  Se12      1.0  0.93600  0.27600  0.47300  1.0000
  Se  Se13      1.0  0.71000  0.10500  0.59800  1.0000
  Se  Se14      1.0  0.89600  0.97600  0.64600  1.0000
  Se  Se15      1.0  0.17500  0.89100  0.68100  1.0000
  Se  Se16      1.0  0.75700  0.40200  0.72000  1.0000
  Se  Se17      1.0  0.17100  0.17700  0.76600  1.0000
  Se  Se18      1.0  0.10600  0.39400  0.78100  1.0000
  Se  Se19      1.0  0.67500  0.68100  0.89100  1.0000
  Se  Se20      1.0  0.85400  0.12800  0.96700  1.0000
  Se  Se21      1.0  0.39600  0.64600  0.97600  1.0000
  Se  Se22      1.0  0.51500  0.31600  0.97700  1.0000
