data_image0
_chemical_formula_structural       Gd4O22Te8
_chemical_formula_sum              "Gd4 O22 Te8"
_cell_length_a       5.12599
_cell_length_b       6.71032
_cell_length_c       15.6437
_cell_angle_alpha    92.0419
_cell_angle_beta     99.4296
_cell_angle_gamma    112.454

_space_group_name_H-M_alt    "P 1"
_space_group_IT_number       1

loop_
  _space_group_symop_operation_xyz
  'x, y, z'

loop_
  _atom_site_type_symbol
  _atom_site_label
  _atom_site_symmetry_multiplicity
  _atom_site_fract_x
  _atom_site_fract_y
  _atom_site_fract_z
  _atom_site_occupancy
  Gd  Gd1       1.0  0.66400  0.79900  0.03700  1.0000
  Gd  Gd2       1.0  0.32800  0.70100  0.46300  1.0000
  Gd  Gd3       1.0  0.67200  0.29900  0.53700  1.0000
  Gd  Gd4       1.0  0.33600  0.20100  0.96300  1.0000
  O   O1        1.0  0.00318  0.18400  0.04610  1.0000
  O   O2        1.0  0.71900  0.47000  0.05540  1.0000
  O   O3        1.0  0.49100  0.04900  0.09870  1.0000
  O   O4        1.0  0.31800  0.63200  0.13100  1.0000
  O   O5        1.0  0.95700  0.86700  0.17200  1.0000
  O   O6        1.0  0.38600  0.25000  0.25000  1.0000
  O   O7        1.0  0.41700  0.63300  0.32800  1.0000
  O   O8        1.0  0.05470  0.86800  0.36900  1.0000
  O   O9        1.0  0.84300  0.45100  0.40100  1.0000
  O   O10       1.0  0.69300  0.02990  0.44500  1.0000
  O   O11       1.0  0.27300  0.31600  0.45400  1.0000
  O   O12       1.0  0.72700  0.68400  0.54600  1.0000
  O   O13       1.0  0.30700  0.97000  0.55500  1.0000
  O   O14       1.0  0.15700  0.54900  0.59900  1.0000
  O   O15       1.0  0.94500  0.13200  0.63100  1.0000
  O   O16       1.0  0.58300  0.36700  0.67200  1.0000
  O   O17       1.0  0.61400  0.75000  0.75000  1.0000
  O   O18       1.0  0.04320  0.13300  0.82800  1.0000
  O   O19       1.0  0.68200  0.36800  0.86900  1.0000
  O   O20       1.0  0.50900  0.95100  0.90100  1.0000
  O   O21       1.0  0.28100  0.53000  0.94500  1.0000
  O   O22       1.0  0.99700  0.81600  0.95400  1.0000
  Te  Te1       1.0  0.97100  0.37800  0.13000  1.0000
  Te  Te2       1.0  0.35400  0.95300  0.20400  1.0000
  Te  Te3       1.0  0.69800  0.54700  0.29600  1.0000
  Te  Te4       1.0  0.96300  0.12200  0.37000  1.0000
  Te  Te5       1.0  0.03680  0.87800  0.63000  1.0000
  Te  Te6       1.0  0.30200  0.45300  0.70400  1.0000
  Te  Te7       1.0  0.64600  0.04750  0.79600  1.0000
  Te  Te8       1.0  0.02880  0.62200  0.87000  1.0000
