data_image0
_chemical_formula_structural       Cs16In4O14
_chemical_formula_sum              "Cs16 In4 O14"
_cell_length_a       7.43794
_cell_length_b       18.7998
_cell_length_c       7.25476
_cell_angle_alpha    90
_cell_angle_beta     119.017
_cell_angle_gamma    90

_space_group_name_H-M_alt    "P 1"
_space_group_IT_number       1

loop_
  _space_group_symop_operation_xyz
  'x, y, z'

loop_
  _atom_site_type_symbol
  _atom_site_label
  _atom_site_symmetry_multiplicity
  _atom_site_fract_x
  _atom_site_fract_y
  _atom_site_fract_z
  _atom_site_occupancy
  Cs  Cs1       1.0  0.35900  0.91500  0.00649  1.0000
  Cs  Cs2       1.0  0.76700  0.50400  0.03350  1.0000
  Cs  Cs3       1.0  0.75800  0.70800  0.03670  1.0000
  Cs  Cs4       1.0  0.77800  0.30700  0.04390  1.0000
  Cs  Cs5       1.0  0.22200  0.80700  0.45600  1.0000
  Cs  Cs6       1.0  0.24200  0.20800  0.46300  1.0000
  Cs  Cs7       1.0  0.23300  0.00396  0.46700  1.0000
  Cs  Cs8       1.0  0.64100  0.41500  0.49400  1.0000
  Cs  Cs9       1.0  0.35900  0.58500  0.50600  1.0000
  Cs  Cs10      1.0  0.76700  0.99600  0.53300  1.0000
  Cs  Cs11      1.0  0.75800  0.79200  0.53700  1.0000
  Cs  Cs12      1.0  0.77800  0.19300  0.54400  1.0000
  Cs  Cs13      1.0  0.22200  0.69300  0.95600  1.0000
  Cs  Cs14      1.0  0.24200  0.29200  0.96300  1.0000
  Cs  Cs15      1.0  0.23300  0.49600  0.96700  1.0000
  Cs  Cs16      1.0  0.64100  0.08540  0.99400  1.0000
  In  In1       1.0  0.14700  0.09870  0.00063  1.0000
  In  In2       1.0  0.85300  0.59900  0.49900  1.0000
  In  In3       1.0  0.14700  0.40100  0.50100  1.0000
  In  In4       1.0  0.85300  0.90100  0.99900  1.0000
  O   O1        1.0  0.00000  0.00000  0.00000  1.0000
  O   O2        1.0  0.95600  0.17900  0.01240  1.0000
  O   O3        1.0  0.15800  0.39200  0.21900  1.0000
  O   O4        1.0  0.56600  0.59900  0.22900  1.0000
  O   O5        1.0  0.43400  0.09900  0.27100  1.0000
  O   O6        1.0  0.84200  0.89200  0.28100  1.0000
  O   O7        1.0  0.04390  0.67900  0.48800  1.0000
  O   O8        1.0  0.00000  0.50000  0.50000  1.0000
  O   O9        1.0  0.95600  0.32100  0.51200  1.0000
  O   O10       1.0  0.15800  0.10800  0.71900  1.0000
  O   O11       1.0  0.56600  0.90100  0.72900  1.0000
  O   O12       1.0  0.43400  0.40100  0.77100  1.0000
  O   O13       1.0  0.84200  0.60800  0.78100  1.0000
  O   O14       1.0  0.04390  0.82100  0.98800  1.0000
