data_image0
_chemical_formula_structural       Ba2H6N6Na2O12P6
_chemical_formula_sum              "Ba2 H6 N6 Na2 O12 P6"
_cell_length_a       7.40673
_cell_length_b       7.40673
_cell_length_c       7.84592
_cell_angle_alpha    107.996
_cell_angle_beta     72.0035
_cell_angle_gamma    92.7043

_space_group_name_H-M_alt    "P 1"
_space_group_IT_number       1

loop_
  _space_group_symop_operation_xyz
  'x, y, z'

loop_
  _atom_site_type_symbol
  _atom_site_label
  _atom_site_symmetry_multiplicity
  _atom_site_fract_x
  _atom_site_fract_y
  _atom_site_fract_z
  _atom_site_occupancy
  Ba  Ba1       1.0  0.43000  0.57000  0.31000  1.0000
  Ba  Ba2       1.0  0.57000  0.43000  0.69000  1.0000
  H   H1        1.0  0.26200  0.11100  0.08100  1.0000
  H   H2        1.0  0.88900  0.73800  0.08100  1.0000
  H   H3        1.0  0.93700  0.06270  0.29700  1.0000
  H   H4        1.0  0.06270  0.93700  0.70300  1.0000
  H   H5        1.0  0.11100  0.26200  0.91900  1.0000
  H   H6        1.0  0.73800  0.88900  0.91900  1.0000
  N   N1        1.0  0.71200  0.02690  0.00738  1.0000
  N   N2        1.0  0.97300  0.28800  0.00738  1.0000
  N   N3        1.0  0.83700  0.16300  0.31100  1.0000
  N   N4        1.0  0.16300  0.83700  0.68900  1.0000
  N   N5        1.0  0.02690  0.71200  0.99300  1.0000
  N   N6        1.0  0.28800  0.97300  0.99300  1.0000
  Na  Na1       1.0  0.17800  0.17800  0.50000  1.0000
  Na  Na2       1.0  0.82200  0.82200  0.50000  1.0000
  O   O1        1.0  0.35300  0.64700  0.02620  1.0000
  O   O2        1.0  0.13300  0.35800  0.26900  1.0000
  O   O3        1.0  0.64200  0.86700  0.26900  1.0000
  O   O4        1.0  0.10800  0.89200  0.29800  1.0000
  O   O5        1.0  0.48800  0.20600  0.34100  1.0000
  O   O6        1.0  0.79400  0.51200  0.34100  1.0000
  O   O7        1.0  0.20600  0.48800  0.65900  1.0000
  O   O8        1.0  0.51200  0.79400  0.65900  1.0000
  O   O9        1.0  0.89200  0.10800  0.70200  1.0000
  O   O10       1.0  0.35800  0.13300  0.73100  1.0000
  O   O11       1.0  0.86700  0.64200  0.73100  1.0000
  O   O12       1.0  0.64700  0.35300  0.97400  1.0000
  P   P1        1.0  0.19900  0.80100  0.08720  1.0000
  P   P2        1.0  0.65300  0.05960  0.23900  1.0000
  P   P3        1.0  0.94000  0.34700  0.23900  1.0000
  P   P4        1.0  0.05960  0.65300  0.76100  1.0000
  P   P5        1.0  0.34700  0.94000  0.76100  1.0000
  P   P6        1.0  0.80100  0.19900  0.91300  1.0000
