data_image0
_chemical_formula_structural       Dy4O22Te8
_chemical_formula_sum              "Dy4 O22 Te8"
_cell_length_a       5.09448
_cell_length_b       6.67274
_cell_length_c       15.5596
_cell_angle_alpha    91.9802
_cell_angle_beta     99.4222
_cell_angle_gamma    112.441

_space_group_name_H-M_alt    "P 1"
_space_group_IT_number       1

loop_
  _space_group_symop_operation_xyz
  'x, y, z'

loop_
  _atom_site_type_symbol
  _atom_site_label
  _atom_site_symmetry_multiplicity
  _atom_site_fract_x
  _atom_site_fract_y
  _atom_site_fract_z
  _atom_site_occupancy
  Dy  Dy1       1.0  0.66400  0.79800  0.03680  1.0000
  Dy  Dy2       1.0  0.32900  0.70200  0.46300  1.0000
  Dy  Dy3       1.0  0.67100  0.29800  0.53700  1.0000
  Dy  Dy4       1.0  0.33600  0.20200  0.96300  1.0000
  O   O1        1.0  0.00511  0.18200  0.04560  1.0000
  O   O2        1.0  0.71600  0.46900  0.05440  1.0000
  O   O3        1.0  0.49300  0.04820  0.09740  1.0000
  O   O4        1.0  0.31900  0.63200  0.13100  1.0000
  O   O5        1.0  0.95400  0.86600  0.17100  1.0000
  O   O6        1.0  0.38500  0.25000  0.25000  1.0000
  O   O7        1.0  0.41700  0.63400  0.32900  1.0000
  O   O8        1.0  0.05620  0.86800  0.36900  1.0000
  O   O9        1.0  0.84700  0.45200  0.40300  1.0000
  O   O10       1.0  0.69300  0.03060  0.44600  1.0000
  O   O11       1.0  0.27800  0.31800  0.45400  1.0000
  O   O12       1.0  0.72200  0.68200  0.54600  1.0000
  O   O13       1.0  0.30700  0.96900  0.55400  1.0000
  O   O14       1.0  0.15300  0.54800  0.59700  1.0000
  O   O15       1.0  0.94400  0.13200  0.63100  1.0000
  O   O16       1.0  0.58300  0.36600  0.67100  1.0000
  O   O17       1.0  0.61500  0.75000  0.75000  1.0000
  O   O18       1.0  0.04570  0.13400  0.82900  1.0000
  O   O19       1.0  0.68100  0.36800  0.86900  1.0000
  O   O20       1.0  0.50700  0.95200  0.90300  1.0000
  O   O21       1.0  0.28400  0.53100  0.94600  1.0000
  O   O22       1.0  0.99500  0.81800  0.95400  1.0000
  Te  Te1       1.0  0.97000  0.37600  0.13000  1.0000
  Te  Te2       1.0  0.35400  0.95100  0.20300  1.0000
  Te  Te3       1.0  0.70000  0.54900  0.29700  1.0000
  Te  Te4       1.0  0.96400  0.12400  0.37000  1.0000
  Te  Te5       1.0  0.03610  0.87600  0.63000  1.0000
  Te  Te6       1.0  0.30000  0.45100  0.70300  1.0000
  Te  Te7       1.0  0.64600  0.04910  0.79700  1.0000
  Te  Te8       1.0  0.03030  0.62400  0.87000  1.0000
