data_image0
_chemical_formula_structural       O22Tb4Te8
_chemical_formula_sum              "O22 Tb4 Te8"
_cell_length_a       5.10916
_cell_length_b       6.691
_cell_length_c       15.6013
_cell_angle_alpha    92.0226
_cell_angle_beta     99.4241
_cell_angle_gamma    112.445

_space_group_name_H-M_alt    "P 1"
_space_group_IT_number       1

loop_
  _space_group_symop_operation_xyz
  'x, y, z'

loop_
  _atom_site_type_symbol
  _atom_site_label
  _atom_site_symmetry_multiplicity
  _atom_site_fract_x
  _atom_site_fract_y
  _atom_site_fract_z
  _atom_site_occupancy
  O   O1        1.0  0.00402  0.18300  0.04580  1.0000
  O   O2        1.0  0.71700  0.47000  0.05500  1.0000
  O   O3        1.0  0.49200  0.04880  0.09810  1.0000
  O   O4        1.0  0.31800  0.63200  0.13100  1.0000
  O   O5        1.0  0.95500  0.86700  0.17100  1.0000
  O   O6        1.0  0.38600  0.25000  0.25000  1.0000
  O   O7        1.0  0.41700  0.63300  0.32900  1.0000
  O   O8        1.0  0.05500  0.86800  0.36900  1.0000
  O   O9        1.0  0.84500  0.45100  0.40200  1.0000
  O   O10       1.0  0.69200  0.03020  0.44500  1.0000
  O   O11       1.0  0.27500  0.31700  0.45400  1.0000
  O   O12       1.0  0.72500  0.68300  0.54600  1.0000
  O   O13       1.0  0.30800  0.97000  0.55500  1.0000
  O   O14       1.0  0.15500  0.54900  0.59800  1.0000
  O   O15       1.0  0.94500  0.13200  0.63100  1.0000
  O   O16       1.0  0.58300  0.36700  0.67100  1.0000
  O   O17       1.0  0.61400  0.75000  0.75000  1.0000
  O   O18       1.0  0.04460  0.13300  0.82900  1.0000
  O   O19       1.0  0.68200  0.36800  0.86900  1.0000
  O   O20       1.0  0.50800  0.95100  0.90200  1.0000
  O   O21       1.0  0.28300  0.53000  0.94500  1.0000
  O   O22       1.0  0.99600  0.81700  0.95400  1.0000
  Tb  Tb1       1.0  0.66400  0.79900  0.03690  1.0000
  Tb  Tb2       1.0  0.32800  0.70100  0.46300  1.0000
  Tb  Tb3       1.0  0.67200  0.29900  0.53700  1.0000
  Tb  Tb4       1.0  0.33600  0.20100  0.96300  1.0000
  Te  Te1       1.0  0.97000  0.37700  0.13000  1.0000
  Te  Te2       1.0  0.35400  0.95200  0.20300  1.0000
  Te  Te3       1.0  0.69800  0.54800  0.29700  1.0000
  Te  Te4       1.0  0.96300  0.12300  0.37000  1.0000
  Te  Te5       1.0  0.03660  0.87700  0.63000  1.0000
  Te  Te6       1.0  0.30200  0.45200  0.70300  1.0000
  Te  Te7       1.0  0.64600  0.04820  0.79700  1.0000
  Te  Te8       1.0  0.02960  0.62300  0.87000  1.0000
