data_image0
_chemical_formula_structural       Mo6O24Sm4
_chemical_formula_sum              "Mo6 O24 Sm4"
_cell_length_a       6.84045
_cell_length_b       6.84045
_cell_length_c       11.5018
_cell_angle_alpha    100.402
_cell_angle_beta     100.402
_cell_angle_gamma    113.126

_space_group_name_H-M_alt    "P 1"
_space_group_IT_number       1

loop_
  _space_group_symop_operation_xyz
  'x, y, z'

loop_
  _atom_site_type_symbol
  _atom_site_label
  _atom_site_symmetry_multiplicity
  _atom_site_fract_x
  _atom_site_fract_y
  _atom_site_fract_z
  _atom_site_occupancy
  Mo  Mo1       1.0  0.29900  0.52400  0.06130  1.0000
  Mo  Mo2       1.0  0.37900  0.12100  0.25000  1.0000
  Mo  Mo3       1.0  0.97600  0.20100  0.43900  1.0000
  Mo  Mo4       1.0  0.02410  0.79900  0.56100  1.0000
  Mo  Mo5       1.0  0.62100  0.87900  0.75000  1.0000
  Mo  Mo6       1.0  0.70100  0.47600  0.93900  1.0000
  O   O1        1.0  0.14000  0.22500  0.04380  1.0000
  O   O2        1.0  0.82300  0.39000  0.05500  1.0000
  O   O3        1.0  0.59900  0.67100  0.09150  1.0000
  O   O4        1.0  0.44400  0.02580  0.11000  1.0000
  O   O5        1.0  0.26900  0.65200  0.20200  1.0000
  O   O6        1.0  0.08870  0.00855  0.22200  1.0000
  O   O7        1.0  0.49100  0.41100  0.27800  1.0000
  O   O8        1.0  0.84800  0.23100  0.29800  1.0000
  O   O9        1.0  0.47400  0.05600  0.39000  1.0000
  O   O10       1.0  0.82900  0.90100  0.40900  1.0000
  O   O11       1.0  0.11000  0.67700  0.44500  1.0000
  O   O12       1.0  0.27500  0.36000  0.45600  1.0000
  O   O13       1.0  0.72500  0.64000  0.54400  1.0000
  O   O14       1.0  0.89000  0.32300  0.55500  1.0000
  O   O15       1.0  0.17100  0.09920  0.59100  1.0000
  O   O16       1.0  0.52600  0.94400  0.61000  1.0000
  O   O17       1.0  0.15200  0.76900  0.70200  1.0000
  O   O18       1.0  0.50900  0.58900  0.72200  1.0000
  O   O19       1.0  0.91100  0.99100  0.77800  1.0000
  O   O20       1.0  0.73100  0.34800  0.79800  1.0000
  O   O21       1.0  0.55600  0.97400  0.89000  1.0000
  O   O22       1.0  0.40100  0.32900  0.90900  1.0000
  O   O23       1.0  0.17700  0.61000  0.94500  1.0000
  O   O24       1.0  0.86000  0.77500  0.95600  1.0000
  Sm  Sm1       1.0  0.80100  0.04830  0.09300  1.0000
  Sm  Sm2       1.0  0.45200  0.69900  0.40700  1.0000
  Sm  Sm3       1.0  0.54800  0.30100  0.59300  1.0000
  Sm  Sm4       1.0  0.19900  0.95200  0.90700  1.0000
