data_image0
_chemical_formula_structural       Cr4O22Te8
_chemical_formula_sum              "Cr4 O22 Te8"
_cell_length_a       6.92014
_cell_length_b       7.56567
_cell_length_c       9.73464
_cell_angle_alpha    90
_cell_angle_beta     99.8187
_cell_angle_gamma    90

_space_group_name_H-M_alt    "P 1"
_space_group_IT_number       1

loop_
  _space_group_symop_operation_xyz
  'x, y, z'

loop_
  _atom_site_type_symbol
  _atom_site_label
  _atom_site_symmetry_multiplicity
  _atom_site_fract_x
  _atom_site_fract_y
  _atom_site_fract_z
  _atom_site_occupancy
  Cr  Cr1       1.0  0.68100  0.00000  0.11700  1.0000
  Cr  Cr2       1.0  0.31900  0.50000  0.38300  1.0000
  Cr  Cr3       1.0  0.68100  0.50000  0.61700  1.0000
  Cr  Cr4       1.0  0.31900  0.00010  0.88300  1.0000
  O   O1        1.0  0.50000  0.50000  0.00000  1.0000
  O   O2        1.0  0.85200  0.15000  0.01980  1.0000
  O   O3        1.0  0.43200  0.13800  0.05180  1.0000
  O   O4        1.0  0.87300  0.80600  0.16200  1.0000
  O   O5        1.0  0.20600  0.61500  0.20300  1.0000
  O   O6        1.0  0.52500  0.86500  0.23600  1.0000
  O   O7        1.0  0.47500  0.36500  0.26400  1.0000
  O   O8        1.0  0.79400  0.11500  0.29700  1.0000
  O   O9        1.0  0.12700  0.30600  0.33800  1.0000
  O   O10       1.0  0.56800  0.63800  0.44800  1.0000
  O   O11       1.0  0.14800  0.65000  0.48000  1.0000
  O   O12       1.0  0.50000  0.00000  0.50000  1.0000
  O   O13       1.0  0.85200  0.35000  0.52000  1.0000
  O   O14       1.0  0.43200  0.36200  0.55200  1.0000
  O   O15       1.0  0.87300  0.69400  0.66200  1.0000
  O   O16       1.0  0.20600  0.88500  0.70300  1.0000
  O   O17       1.0  0.52500  0.63500  0.73600  1.0000
  O   O18       1.0  0.47500  0.13500  0.76400  1.0000
  O   O19       1.0  0.79400  0.38500  0.79700  1.0000
  O   O20       1.0  0.12700  0.19400  0.83800  1.0000
  O   O21       1.0  0.56800  0.86200  0.94800  1.0000
  O   O22       1.0  0.14800  0.85000  0.98000  1.0000
  Te  Te1       1.0  0.31800  0.36300  0.08590  1.0000
  Te  Te2       1.0  0.14600  0.85900  0.17400  1.0000
  Te  Te3       1.0  0.85400  0.35900  0.32600  1.0000
  Te  Te4       1.0  0.68200  0.86300  0.41400  1.0000
  Te  Te5       1.0  0.31800  0.13700  0.58600  1.0000
  Te  Te6       1.0  0.14600  0.64100  0.67400  1.0000
  Te  Te7       1.0  0.85400  0.14100  0.82600  1.0000
  Te  Te8       1.0  0.68200  0.63700  0.91400  1.0000
