data_image0
_chemical_formula_structural       O26Re4S4
_chemical_formula_sum              "O26 Re4 S4"
_cell_length_a       9.5764
_cell_length_b       8.19452
_cell_length_c       5.7059
_cell_angle_alpha    90
_cell_angle_beta     90
_cell_angle_gamma    90

_space_group_name_H-M_alt    "P 1"
_space_group_IT_number       1

loop_
  _space_group_symop_operation_xyz
  'x, y, z'

loop_
  _atom_site_type_symbol
  _atom_site_label
  _atom_site_symmetry_multiplicity
  _atom_site_fract_x
  _atom_site_fract_y
  _atom_site_fract_z
  _atom_site_occupancy
  O   O1        1.0  0.50000  0.00000  0.13400  1.0000
  O   O2        1.0  0.00000  0.50000  0.13400  1.0000
  O   O3        1.0  0.76100  0.11200  0.14900  1.0000
  O   O4        1.0  0.26100  0.38800  0.14900  1.0000
  O   O5        1.0  0.73900  0.61200  0.14900  1.0000
  O   O6        1.0  0.23900  0.88800  0.14900  1.0000
  O   O7        1.0  0.04980  0.18400  0.25800  1.0000
  O   O8        1.0  0.55000  0.31600  0.25800  1.0000
  O   O9        1.0  0.45000  0.68400  0.25800  1.0000
  O   O10       1.0  0.95000  0.81600  0.25800  1.0000
  O   O11       1.0  0.30700  0.17900  0.46200  1.0000
  O   O12       1.0  0.80700  0.32100  0.46200  1.0000
  O   O13       1.0  0.19300  0.67900  0.46200  1.0000
  O   O14       1.0  0.69300  0.82100  0.46200  1.0000
  O   O15       1.0  0.64200  0.04310  0.72500  1.0000
  O   O16       1.0  0.14200  0.45700  0.72500  1.0000
  O   O17       1.0  0.85800  0.54300  0.72500  1.0000
  O   O18       1.0  0.35800  0.95700  0.72500  1.0000
  O   O19       1.0  0.42600  0.23700  0.83000  1.0000
  O   O20       1.0  0.92600  0.26300  0.83000  1.0000
  O   O21       1.0  0.07420  0.73700  0.83000  1.0000
  O   O22       1.0  0.57400  0.76300  0.83000  1.0000
  O   O23       1.0  0.18400  0.14900  0.83900  1.0000
  O   O24       1.0  0.68400  0.35100  0.83900  1.0000
  O   O25       1.0  0.31600  0.64900  0.83900  1.0000
  O   O26       1.0  0.81600  0.85100  0.83900  1.0000
  Re  Re1       1.0  0.60500  0.18500  0.04510  1.0000
  Re  Re2       1.0  0.10500  0.31500  0.04510  1.0000
  Re  Re3       1.0  0.89500  0.68500  0.04510  1.0000
  Re  Re4       1.0  0.39500  0.81500  0.04510  1.0000
  S   S1        1.0  0.32400  0.13300  0.70000  1.0000
  S   S2        1.0  0.82400  0.36700  0.70000  1.0000
  S   S3        1.0  0.17600  0.63300  0.70000  1.0000
  S   S4        1.0  0.67600  0.86700  0.70000  1.0000
