data_image0
_chemical_formula_structural       F20Na8Sn6
_chemical_formula_sum              "F20 Na8 Sn6"
_cell_length_a       5.28012
_cell_length_b       10.4192
_cell_length_c       10.4192
_cell_angle_alpha    111.654
_cell_angle_beta     90.1872
_cell_angle_gamma    90.1872

_space_group_name_H-M_alt    "P 1"
_space_group_IT_number       1

loop_
  _space_group_symop_operation_xyz
  'x, y, z'

loop_
  _atom_site_type_symbol
  _atom_site_label
  _atom_site_symmetry_multiplicity
  _atom_site_fract_x
  _atom_site_fract_y
  _atom_site_fract_z
  _atom_site_occupancy
  F   F1        1.0  0.06620  0.65700  0.00671  1.0000
  F   F2        1.0  0.40700  0.42400  0.09160  1.0000
  F   F3        1.0  0.49200  0.72800  0.20100  1.0000
  F   F4        1.0  0.95600  0.49800  0.25700  1.0000
  F   F5        1.0  0.00815  0.79900  0.27200  1.0000
  F   F6        1.0  0.43400  0.99300  0.34300  1.0000
  F   F7        1.0  0.40300  0.43500  0.34600  1.0000
  F   F8        1.0  0.90700  0.09160  0.42400  1.0000
  F   F9        1.0  0.90300  0.34600  0.43500  1.0000
  F   F10       1.0  0.45600  0.25700  0.49800  1.0000
  F   F11       1.0  0.54400  0.74300  0.50200  1.0000
  F   F12       1.0  0.09690  0.65400  0.56500  1.0000
  F   F13       1.0  0.09330  0.90800  0.57600  1.0000
  F   F14       1.0  0.59700  0.56500  0.65400  1.0000
  F   F15       1.0  0.56600  0.00671  0.65700  1.0000
  F   F16       1.0  0.99200  0.20100  0.72800  1.0000
  F   F17       1.0  0.04420  0.50200  0.74300  1.0000
  F   F18       1.0  0.50800  0.27200  0.79900  1.0000
  F   F19       1.0  0.59300  0.57600  0.90800  1.0000
  F   F20       1.0  0.93400  0.34300  0.99300  1.0000
  Na  Na1       1.0  0.75300  0.55800  0.09980  1.0000
  Na  Na2       1.0  0.25000  0.65800  0.34200  1.0000
  Na  Na3       1.0  0.74700  0.90000  0.44200  1.0000
  Na  Na4       1.0  0.75000  0.54900  0.45100  1.0000
  Na  Na5       1.0  0.25000  0.45100  0.54900  1.0000
  Na  Na6       1.0  0.25300  0.09980  0.55800  1.0000
  Na  Na7       1.0  0.75000  0.34200  0.65800  1.0000
  Na  Na8       1.0  0.24700  0.44200  0.90000  1.0000
  Sn  Sn1       1.0  0.25000  0.85500  0.14500  1.0000
  Sn  Sn2       1.0  0.16900  0.31600  0.17100  1.0000
  Sn  Sn3       1.0  0.66900  0.17100  0.31600  1.0000
  Sn  Sn4       1.0  0.33100  0.82900  0.68400  1.0000
  Sn  Sn5       1.0  0.83100  0.68400  0.82900  1.0000
  Sn  Sn6       1.0  0.75000  0.14500  0.85500  1.0000
