data_image0
_chemical_formula_structural       O22Te8Y4
_chemical_formula_sum              "O22 Te8 Y4"
_cell_length_a       5.09644
_cell_length_b       6.67691
_cell_length_c       15.561
_cell_angle_alpha    92.0003
_cell_angle_beta     99.425
_cell_angle_gamma    112.436

_space_group_name_H-M_alt    "P 1"
_space_group_IT_number       1

loop_
  _space_group_symop_operation_xyz
  'x, y, z'

loop_
  _atom_site_type_symbol
  _atom_site_label
  _atom_site_symmetry_multiplicity
  _atom_site_fract_x
  _atom_site_fract_y
  _atom_site_fract_z
  _atom_site_occupancy
  O   O1        1.0  0.00539  0.18200  0.04600  1.0000
  O   O2        1.0  0.71700  0.46900  0.05470  1.0000
  O   O3        1.0  0.49300  0.04800  0.09790  1.0000
  O   O4        1.0  0.31900  0.63200  0.13100  1.0000
  O   O5        1.0  0.95500  0.86600  0.17200  1.0000
  O   O6        1.0  0.38600  0.25000  0.25000  1.0000
  O   O7        1.0  0.41700  0.63400  0.32800  1.0000
  O   O8        1.0  0.05570  0.86800  0.36900  1.0000
  O   O9        1.0  0.84700  0.45200  0.40200  1.0000
  O   O10       1.0  0.69300  0.03120  0.44500  1.0000
  O   O11       1.0  0.27700  0.31800  0.45400  1.0000
  O   O12       1.0  0.72300  0.68200  0.54600  1.0000
  O   O13       1.0  0.30700  0.96900  0.55500  1.0000
  O   O14       1.0  0.15300  0.54800  0.59800  1.0000
  O   O15       1.0  0.94400  0.13200  0.63100  1.0000
  O   O16       1.0  0.58300  0.36600  0.67200  1.0000
  O   O17       1.0  0.61400  0.75000  0.75000  1.0000
  O   O18       1.0  0.04510  0.13400  0.82800  1.0000
  O   O19       1.0  0.68100  0.36800  0.86900  1.0000
  O   O20       1.0  0.50700  0.95200  0.90200  1.0000
  O   O21       1.0  0.28300  0.53100  0.94500  1.0000
  O   O22       1.0  0.99500  0.81800  0.95400  1.0000
  Te  Te1       1.0  0.97000  0.37600  0.13000  1.0000
  Te  Te2       1.0  0.35400  0.95100  0.20400  1.0000
  Te  Te3       1.0  0.70000  0.54900  0.29600  1.0000
  Te  Te4       1.0  0.96400  0.12400  0.37000  1.0000
  Te  Te5       1.0  0.03600  0.87600  0.63000  1.0000
  Te  Te6       1.0  0.30000  0.45100  0.70400  1.0000
  Te  Te7       1.0  0.64600  0.04900  0.79600  1.0000
  Te  Te8       1.0  0.02990  0.62400  0.87000  1.0000
  Y   Y1        1.0  0.66400  0.79800  0.03700  1.0000
  Y   Y2        1.0  0.32900  0.70200  0.46300  1.0000
  Y   Y3        1.0  0.67100  0.29800  0.53700  1.0000
  Y   Y4        1.0  0.33600  0.20200  0.96300  1.0000
