data_image0
_chemical_formula_structural       C4Ca2H8Na4O16
_chemical_formula_sum              "C4 Ca2 H8 Na4 O16"
_cell_length_a       5.9566
_cell_length_b       6.33549
_cell_length_c       10.3404
_cell_angle_alpha    97.7818
_cell_angle_beta     73.2602
_cell_angle_gamma    118.041

_space_group_name_H-M_alt    "P 1"
_space_group_IT_number       1

loop_
  _space_group_symop_operation_xyz
  'x, y, z'

loop_
  _atom_site_type_symbol
  _atom_site_label
  _atom_site_symmetry_multiplicity
  _atom_site_fract_x
  _atom_site_fract_y
  _atom_site_fract_z
  _atom_site_occupancy
  C   C1        1.0  0.31300  0.33400  0.22800  1.0000
  C   C2        1.0  0.79100  0.83400  0.27200  1.0000
  C   C3        1.0  0.22900  0.16600  0.72800  1.0000
  C   C4        1.0  0.20700  0.66600  0.77200  1.0000
  Ca  Ca1       1.0  0.99700  0.00000  0.00000  1.0000
  Ca  Ca2       1.0  0.24700  0.50000  0.50000  1.0000
  H   H1        1.0  0.47200  0.54900  0.02270  1.0000
  H   H2        1.0  0.64500  0.27600  0.04520  1.0000
  H   H3        1.0  0.94000  0.77600  0.45500  1.0000
  H   H4        1.0  0.74500  0.04940  0.47700  1.0000
  H   H5        1.0  0.17300  0.95100  0.52300  1.0000
  H   H6        1.0  0.61900  0.22400  0.54500  1.0000
  H   H7        1.0  0.41400  0.72400  0.95500  1.0000
  H   H8        1.0  0.94500  0.45100  0.97700  1.0000
  Na  Na1       1.0  0.33100  0.87000  0.22200  1.0000
  Na  Na2       1.0  0.80300  0.37000  0.27800  1.0000
  Na  Na3       1.0  0.71100  0.63000  0.72200  1.0000
  Na  Na4       1.0  0.68300  0.13000  0.77800  1.0000
  O   O1        1.0  0.82500  0.28400  0.01170  1.0000
  O   O2        1.0  0.35500  0.27200  0.09960  1.0000
  O   O3        1.0  0.92000  0.73700  0.18600  1.0000
  O   O4        1.0  0.75000  0.99300  0.23200  1.0000
  O   O5        1.0  0.23200  0.49300  0.26800  1.0000
  O   O6        1.0  0.35600  0.23700  0.31400  1.0000
  O   O7        1.0  0.70400  0.77200  0.40000  1.0000
  O   O8        1.0  0.08660  0.78400  0.48800  1.0000
  O   O9        1.0  0.79100  0.21600  0.51200  1.0000
  O   O10       1.0  0.33300  0.22800  0.60000  1.0000
  O   O11       1.0  0.43300  0.76300  0.68600  1.0000
  O   O12       1.0  0.00697  0.50700  0.73200  1.0000
  O   O13       1.0  0.98900  0.00700  0.76800  1.0000
  O   O14       1.0  0.36900  0.26300  0.81400  1.0000
  O   O15       1.0  0.18300  0.72800  0.90000  1.0000
  O   O16       1.0  0.55200  0.71600  0.98800  1.0000
