data_image0
_chemical_formula_structural       O22Sm4Te8
_chemical_formula_sum              "O22 Sm4 Te8"
_cell_length_a       5.15962
_cell_length_b       6.75682
_cell_length_c       15.734
_cell_angle_alpha    92.1091
_cell_angle_beta     99.4371
_cell_angle_gamma    112.446

_space_group_name_H-M_alt    "P 1"
_space_group_IT_number       1

loop_
  _space_group_symop_operation_xyz
  'x, y, z'

loop_
  _atom_site_type_symbol
  _atom_site_label
  _atom_site_symmetry_multiplicity
  _atom_site_fract_x
  _atom_site_fract_y
  _atom_site_fract_z
  _atom_site_occupancy
  O   O1        1.0  0.00103  0.18600  0.04680  1.0000
  O   O2        1.0  0.72100  0.47100  0.05690  1.0000
  O   O3        1.0  0.48900  0.04960  0.10000  1.0000
  O   O4        1.0  0.31600  0.63100  0.13200  1.0000
  O   O5        1.0  0.96000  0.86900  0.17300  1.0000
  O   O6        1.0  0.38600  0.25000  0.25000  1.0000
  O   O7        1.0  0.41700  0.63100  0.32700  1.0000
  O   O8        1.0  0.05290  0.86900  0.36800  1.0000
  O   O9        1.0  0.83900  0.45000  0.40000  1.0000
  O   O10       1.0  0.69300  0.02910  0.44300  1.0000
  O   O11       1.0  0.26800  0.31400  0.45300  1.0000
  O   O12       1.0  0.73200  0.68600  0.54700  1.0000
  O   O13       1.0  0.30700  0.97100  0.55700  1.0000
  O   O14       1.0  0.16100  0.55000  0.60000  1.0000
  O   O15       1.0  0.94700  0.13100  0.63200  1.0000
  O   O16       1.0  0.58300  0.36900  0.67300  1.0000
  O   O17       1.0  0.61400  0.75000  0.75000  1.0000
  O   O18       1.0  0.04050  0.13100  0.82700  1.0000
  O   O19       1.0  0.68400  0.36900  0.86800  1.0000
  O   O20       1.0  0.51100  0.95000  0.90000  1.0000
  O   O21       1.0  0.27900  0.52900  0.94300  1.0000
  O   O22       1.0  0.99900  0.81400  0.95300  1.0000
  Sm  Sm1       1.0  0.66300  0.80000  0.03730  1.0000
  Sm  Sm2       1.0  0.32600  0.70000  0.46300  1.0000
  Sm  Sm3       1.0  0.67400  0.30000  0.53700  1.0000
  Sm  Sm4       1.0  0.33700  0.20000  0.96300  1.0000
  Te  Te1       1.0  0.97300  0.38000  0.13100  1.0000
  Te  Te2       1.0  0.35400  0.95400  0.20500  1.0000
  Te  Te3       1.0  0.69500  0.54600  0.29500  1.0000
  Te  Te4       1.0  0.96200  0.12000  0.36900  1.0000
  Te  Te5       1.0  0.03770  0.88000  0.63100  1.0000
  Te  Te6       1.0  0.30500  0.45400  0.70500  1.0000
  Te  Te7       1.0  0.64600  0.04560  0.79500  1.0000
  Te  Te8       1.0  0.02700  0.62000  0.86900  1.0000
