data_image0
_chemical_formula_structural       Ho4O22Te8
_chemical_formula_sum              "Ho4 O22 Te8"
_cell_length_a       5.0842
_cell_length_b       6.66186
_cell_length_c       15.5426
_cell_angle_alpha    91.9965
_cell_angle_beta     99.4134
_cell_angle_gamma    112.432

_space_group_name_H-M_alt    "P 1"
_space_group_IT_number       1

loop_
  _space_group_symop_operation_xyz
  'x, y, z'

loop_
  _atom_site_type_symbol
  _atom_site_label
  _atom_site_symmetry_multiplicity
  _atom_site_fract_x
  _atom_site_fract_y
  _atom_site_fract_z
  _atom_site_occupancy
  Ho  Ho1       1.0  0.66500  0.79800  0.03670  1.0000
  Ho  Ho2       1.0  0.33000  0.70200  0.46300  1.0000
  Ho  Ho3       1.0  0.67000  0.29800  0.53700  1.0000
  Ho  Ho4       1.0  0.33500  0.20200  0.96300  1.0000
  O   O1        1.0  0.00577  0.18200  0.04520  1.0000
  O   O2        1.0  0.71600  0.47000  0.05390  1.0000
  O   O3        1.0  0.49300  0.04860  0.09650  1.0000
  O   O4        1.0  0.32000  0.63300  0.13000  1.0000
  O   O5        1.0  0.95500  0.86700  0.17000  1.0000
  O   O6        1.0  0.38900  0.25000  0.25000  1.0000
  O   O7        1.0  0.41800  0.63300  0.33000  1.0000
  O   O8        1.0  0.05760  0.86700  0.37000  1.0000
  O   O9        1.0  0.84800  0.45100  0.40400  1.0000
  O   O10       1.0  0.69200  0.03020  0.44600  1.0000
  O   O11       1.0  0.27900  0.31800  0.45500  1.0000
  O   O12       1.0  0.72100  0.68200  0.54500  1.0000
  O   O13       1.0  0.30800  0.97000  0.55400  1.0000
  O   O14       1.0  0.15200  0.54900  0.59600  1.0000
  O   O15       1.0  0.94200  0.13300  0.63000  1.0000
  O   O16       1.0  0.58200  0.36700  0.67000  1.0000
  O   O17       1.0  0.61100  0.75000  0.75000  1.0000
  O   O18       1.0  0.04530  0.13300  0.83000  1.0000
  O   O19       1.0  0.68000  0.36700  0.87000  1.0000
  O   O20       1.0  0.50700  0.95100  0.90400  1.0000
  O   O21       1.0  0.28400  0.53000  0.94600  1.0000
  O   O22       1.0  0.99400  0.81800  0.95500  1.0000
  Te  Te1       1.0  0.97000  0.37600  0.12900  1.0000
  Te  Te2       1.0  0.35500  0.95100  0.20200  1.0000
  Te  Te3       1.0  0.70200  0.54900  0.29800  1.0000
  Te  Te4       1.0  0.96500  0.12400  0.37100  1.0000
  Te  Te5       1.0  0.03550  0.87600  0.62900  1.0000
  Te  Te6       1.0  0.29800  0.45100  0.70200  1.0000
  Te  Te7       1.0  0.64500  0.04910  0.79800  1.0000
  Te  Te8       1.0  0.02980  0.62400  0.87100  1.0000
