data_image0
_chemical_formula_structural       O22Te8Yb4
_chemical_formula_sum              "O22 Te8 Yb4"
_cell_length_a       5.0899
_cell_length_b       6.5668
_cell_length_c       15.5356
_cell_angle_alpha    92.1956
_cell_angle_beta     99.4284
_cell_angle_gamma    112.802

_space_group_name_H-M_alt    "P 1"
_space_group_IT_number       1

loop_
  _space_group_symop_operation_xyz
  'x, y, z'

loop_
  _atom_site_type_symbol
  _atom_site_label
  _atom_site_symmetry_multiplicity
  _atom_site_fract_x
  _atom_site_fract_y
  _atom_site_fract_z
  _atom_site_occupancy
  O   O1        1.0  0.72400  0.47000  0.05200  1.0000
  O   O2        1.0  0.02100  0.18100  0.05470  1.0000
  O   O3        1.0  0.50600  0.05460  0.10400  1.0000
  O   O4        1.0  0.31500  0.64100  0.13700  1.0000
  O   O5        1.0  0.94700  0.85300  0.17800  1.0000
  O   O6        1.0  0.39500  0.25000  0.25000  1.0000
  O   O7        1.0  0.41600  0.64700  0.32200  1.0000
  O   O8        1.0  0.03650  0.85900  0.36300  1.0000
  O   O9        1.0  0.84700  0.44500  0.39600  1.0000
  O   O10       1.0  0.28600  0.31900  0.44500  1.0000
  O   O11       1.0  0.70200  0.02980  0.44800  1.0000
  O   O12       1.0  0.29800  0.97000  0.55200  1.0000
  O   O13       1.0  0.71400  0.68100  0.55500  1.0000
  O   O14       1.0  0.15300  0.55500  0.60400  1.0000
  O   O15       1.0  0.96300  0.14100  0.63700  1.0000
  O   O16       1.0  0.58400  0.35300  0.67800  1.0000
  O   O17       1.0  0.60500  0.75000  0.75000  1.0000
  O   O18       1.0  0.05280  0.14700  0.82200  1.0000
  O   O19       1.0  0.68500  0.35900  0.86300  1.0000
  O   O20       1.0  0.49400  0.94500  0.89600  1.0000
  O   O21       1.0  0.97900  0.81900  0.94500  1.0000
  O   O22       1.0  0.27600  0.53000  0.94800  1.0000
  Te  Te1       1.0  0.94800  0.36800  0.13000  1.0000
  Te  Te2       1.0  0.34900  0.93800  0.20400  1.0000
  Te  Te3       1.0  0.70700  0.56200  0.29600  1.0000
  Te  Te4       1.0  0.95000  0.13200  0.37000  1.0000
  Te  Te5       1.0  0.05040  0.86800  0.63000  1.0000
  Te  Te6       1.0  0.29300  0.43800  0.70400  1.0000
  Te  Te7       1.0  0.65100  0.06160  0.79600  1.0000
  Te  Te8       1.0  0.05180  0.63200  0.87000  1.0000
  Yb  Yb1       1.0  0.67000  0.79800  0.03680  1.0000
  Yb  Yb2       1.0  0.33500  0.70200  0.46300  1.0000
  Yb  Yb3       1.0  0.66500  0.29800  0.53700  1.0000
  Yb  Yb4       1.0  0.33000  0.20200  0.96300  1.0000
