data_image0
_chemical_formula_structural       Cr2Cs4F20H8
_chemical_formula_sum              "Cr2 Cs4 F20 H8"
_cell_length_a       7.30609
_cell_length_b       6.67958
_cell_length_c       9.41238
_cell_angle_alpha    90
_cell_angle_beta     109.67
_cell_angle_gamma    90

_space_group_name_H-M_alt    "P 1"
_space_group_IT_number       1

loop_
  _space_group_symop_operation_xyz
  'x, y, z'

loop_
  _atom_site_type_symbol
  _atom_site_label
  _atom_site_symmetry_multiplicity
  _atom_site_fract_x
  _atom_site_fract_y
  _atom_site_fract_z
  _atom_site_occupancy
  Cr  Cr1       1.0  0.00000  0.00000  0.00000  1.0000
  Cr  Cr2       1.0  0.50000  0.50000  0.50000  1.0000
  Cs  Cs1       1.0  0.53600  0.22600  0.16300  1.0000
  Cs  Cs2       1.0  0.96400  0.72600  0.33700  1.0000
  Cs  Cs3       1.0  0.03580  0.27400  0.66300  1.0000
  Cs  Cs4       1.0  0.46400  0.77400  0.83700  1.0000
  F   F1        1.0  0.75700  0.50700  0.03920  1.0000
  F   F2        1.0  0.07430  0.73900  0.05560  1.0000
  F   F3        1.0  0.79600  0.97200  0.06440  1.0000
  F   F4        1.0  0.52100  0.77800  0.17700  1.0000
  F   F5        1.0  0.15200  0.08520  0.19300  1.0000
  F   F6        1.0  0.34800  0.58500  0.30700  1.0000
  F   F7        1.0  0.97900  0.27800  0.32300  1.0000
  F   F8        1.0  0.70400  0.47200  0.43600  1.0000
  F   F9        1.0  0.42600  0.23900  0.44400  1.0000
  F   F10       1.0  0.74300  0.00716  0.46100  1.0000
  F   F11       1.0  0.25700  0.99300  0.53900  1.0000
  F   F12       1.0  0.57400  0.76100  0.55600  1.0000
  F   F13       1.0  0.29600  0.52800  0.56400  1.0000
  F   F14       1.0  0.02110  0.72200  0.67700  1.0000
  F   F15       1.0  0.65200  0.41500  0.69300  1.0000
  F   F16       1.0  0.84800  0.91500  0.80700  1.0000
  F   F17       1.0  0.47900  0.22200  0.82300  1.0000
  F   F18       1.0  0.20400  0.02770  0.93600  1.0000
  F   F19       1.0  0.92600  0.26100  0.94400  1.0000
  F   F20       1.0  0.24300  0.49300  0.96100  1.0000
  H   H1        1.0  0.83000  0.40900  0.00110  1.0000
  H   H2        1.0  0.44300  0.70600  0.22900  1.0000
  H   H3        1.0  0.05650  0.20600  0.27100  1.0000
  H   H4        1.0  0.67000  0.90900  0.49900  1.0000
  H   H5        1.0  0.33000  0.09080  0.50100  1.0000
  H   H6        1.0  0.94300  0.79400  0.72900  1.0000
  H   H7        1.0  0.55700  0.29400  0.77100  1.0000
  H   H8        1.0  0.17000  0.59100  0.99900  1.0000
