data_image0
_chemical_formula_structural       Li2Ni2O16Rb10Si4
_chemical_formula_sum              "Li2 Ni2 O16 Rb10 Si4"
_cell_length_a       6.65304
_cell_length_b       6.65304
_cell_length_c       13.7304
_cell_angle_alpha    96.9717
_cell_angle_beta     96.9717
_cell_angle_gamma    99.7113

_space_group_name_H-M_alt    "P 1"
_space_group_IT_number       1

loop_
  _space_group_symop_operation_xyz
  'x, y, z'

loop_
  _atom_site_type_symbol
  _atom_site_label
  _atom_site_symmetry_multiplicity
  _atom_site_fract_x
  _atom_site_fract_y
  _atom_site_fract_z
  _atom_site_occupancy
  Li  Li1       1.0  0.04130  0.95900  0.25000  1.0000
  Li  Li2       1.0  0.95900  0.04130  0.75000  1.0000
  Ni  Ni1       1.0  0.50000  0.50000  0.00000  1.0000
  Ni  Ni2       1.0  0.50000  0.50000  0.50000  1.0000
  O   O1        1.0  0.66100  0.77600  0.02610  1.0000
  O   O2        1.0  0.66300  0.47700  0.12300  1.0000
  O   O3        1.0  0.03400  0.75100  0.13200  1.0000
  O   O4        1.0  0.74700  0.86300  0.23000  1.0000
  O   O5        1.0  0.13700  0.25300  0.27000  1.0000
  O   O6        1.0  0.24900  0.96600  0.36800  1.0000
  O   O7        1.0  0.52300  0.33700  0.37700  1.0000
  O   O8        1.0  0.22400  0.33900  0.47400  1.0000
  O   O9        1.0  0.77600  0.66100  0.52600  1.0000
  O   O10       1.0  0.47700  0.66300  0.62300  1.0000
  O   O11       1.0  0.75100  0.03400  0.63200  1.0000
  O   O12       1.0  0.86300  0.74700  0.73000  1.0000
  O   O13       1.0  0.25300  0.13700  0.77000  1.0000
  O   O14       1.0  0.96600  0.24900  0.86800  1.0000
  O   O15       1.0  0.33700  0.52300  0.87700  1.0000
  O   O16       1.0  0.33900  0.22400  0.97400  1.0000
  Rb  Rb1       1.0  0.95700  0.24900  0.07300  1.0000
  Rb  Rb2       1.0  0.45800  0.09140  0.15100  1.0000
  Rb  Rb3       1.0  0.36700  0.63300  0.25000  1.0000
  Rb  Rb4       1.0  0.90900  0.54200  0.34900  1.0000
  Rb  Rb5       1.0  0.75100  0.04270  0.42700  1.0000
  Rb  Rb6       1.0  0.24900  0.95700  0.57300  1.0000
  Rb  Rb7       1.0  0.09140  0.45800  0.65100  1.0000
  Rb  Rb8       1.0  0.63300  0.36700  0.75000  1.0000
  Rb  Rb9       1.0  0.54200  0.90900  0.84900  1.0000
  Rb  Rb10      1.0  0.04270  0.75100  0.92700  1.0000
  Si  Si1       1.0  0.78400  0.72100  0.13100  1.0000
  Si  Si2       1.0  0.27900  0.21600  0.36900  1.0000
  Si  Si3       1.0  0.72100  0.78400  0.63100  1.0000
  Si  Si4       1.0  0.21600  0.27900  0.86900  1.0000
