data_image0
_chemical_formula_structural       Ba6P28
_chemical_formula_sum              "Ba6 P28"
_cell_length_a       10.2267
_cell_length_b       13.1595
_cell_length_c       12.1724
_cell_angle_alpha    90
_cell_angle_beta     147.453
_cell_angle_gamma    90

_space_group_name_H-M_alt    "P 1"
_space_group_IT_number       1

loop_
  _space_group_symop_operation_xyz
  'x, y, z'

loop_
  _atom_site_type_symbol
  _atom_site_label
  _atom_site_symmetry_multiplicity
  _atom_site_fract_x
  _atom_site_fract_y
  _atom_site_fract_z
  _atom_site_occupancy
  Ba  Ba1       1.0  0.00000  0.50000  0.00000  1.0000
  Ba  Ba2       1.0  0.58700  0.34800  0.20400  1.0000
  Ba  Ba3       1.0  0.41300  0.84800  0.29600  1.0000
  Ba  Ba4       1.0  0.00000  0.00000  0.50000  1.0000
  Ba  Ba5       1.0  0.58700  0.15200  0.70400  1.0000
  Ba  Ba6       1.0  0.41300  0.65200  0.79600  1.0000
  P   P1        1.0  0.41400  0.08640  0.05550  1.0000
  P   P2        1.0  0.77500  0.43600  0.09020  1.0000
  P   P3        1.0  0.91000  0.99000  0.09690  1.0000
  P   P4        1.0  0.24900  0.15000  0.09830  1.0000
  P   P5        1.0  0.97700  0.72500  0.11800  1.0000
  P   P6        1.0  0.91600  0.28500  0.14400  1.0000
  P   P7        1.0  0.72300  0.81600  0.17100  1.0000
  P   P8        1.0  0.27700  0.31600  0.32900  1.0000
  P   P9        1.0  0.08430  0.78500  0.35600  1.0000
  P   P10       1.0  0.02300  0.22500  0.38200  1.0000
  P   P11       1.0  0.75100  0.65000  0.40200  1.0000
  P   P12       1.0  0.09000  0.49000  0.40300  1.0000
  P   P13       1.0  0.22500  0.93600  0.41000  1.0000
  P   P14       1.0  0.58600  0.58600  0.44500  1.0000
  P   P15       1.0  0.41400  0.41400  0.55500  1.0000
  P   P16       1.0  0.77500  0.06380  0.59000  1.0000
  P   P17       1.0  0.91000  0.51000  0.59700  1.0000
  P   P18       1.0  0.24900  0.35000  0.59800  1.0000
  P   P19       1.0  0.97700  0.77500  0.61800  1.0000
  P   P20       1.0  0.91600  0.21500  0.64400  1.0000
  P   P21       1.0  0.72300  0.68400  0.67100  1.0000
  P   P22       1.0  0.27700  0.18400  0.82900  1.0000
  P   P23       1.0  0.08430  0.71500  0.85600  1.0000
  P   P24       1.0  0.02300  0.27500  0.88200  1.0000
  P   P25       1.0  0.75100  0.85000  0.90200  1.0000
  P   P26       1.0  0.09000  0.01030  0.90300  1.0000
  P   P27       1.0  0.22500  0.56400  0.91000  1.0000
  P   P28       1.0  0.58600  0.91400  0.94500  1.0000
