data_image0
_chemical_formula_structural       C12Fe2H8N12
_chemical_formula_sum              "C12 Fe2 H8 N12"
_cell_length_a       6.84957
_cell_length_b       11.0855
_cell_length_c       6.03517
_cell_angle_alpha    90
_cell_angle_beta     104.875
_cell_angle_gamma    90

_space_group_name_H-M_alt    "P 1"
_space_group_IT_number       1

loop_
  _space_group_symop_operation_xyz
  'x, y, z'

loop_
  _atom_site_type_symbol
  _atom_site_label
  _atom_site_symmetry_multiplicity
  _atom_site_fract_x
  _atom_site_fract_y
  _atom_site_fract_z
  _atom_site_occupancy
  C   C1        1.0  0.30000  0.55000  0.13400  1.0000
  C   C2        1.0  0.80000  0.95000  0.13400  1.0000
  C   C3        1.0  0.04090  0.13600  0.18400  1.0000
  C   C4        1.0  0.54100  0.36400  0.18400  1.0000
  C   C5        1.0  0.19600  0.92000  0.22500  1.0000
  C   C6        1.0  0.69600  0.58000  0.22500  1.0000
  C   C7        1.0  0.30400  0.42000  0.77500  1.0000
  C   C8        1.0  0.80400  0.07970  0.77500  1.0000
  C   C9        1.0  0.45900  0.63600  0.81600  1.0000
  C   C10       1.0  0.95900  0.86400  0.81600  1.0000
  C   C11       1.0  0.20000  0.05030  0.86600  1.0000
  C   C12       1.0  0.70000  0.45000  0.86600  1.0000
  Fe  Fe1       1.0  0.00000  0.00000  0.00000  1.0000
  Fe  Fe2       1.0  0.50000  0.50000  0.00000  1.0000
  H   H1        1.0  0.05220  0.60200  0.28700  1.0000
  H   H2        1.0  0.55200  0.89800  0.28700  1.0000
  H   H3        1.0  0.10900  0.28900  0.43800  1.0000
  H   H4        1.0  0.60900  0.21100  0.43800  1.0000
  H   H5        1.0  0.39100  0.78900  0.56200  1.0000
  H   H6        1.0  0.89100  0.71100  0.56200  1.0000
  H   H7        1.0  0.44800  0.10200  0.71300  1.0000
  H   H8        1.0  0.94800  0.39800  0.71300  1.0000
  N   N1        1.0  0.17400  0.58200  0.22000  1.0000
  N   N2        1.0  0.67400  0.91800  0.22000  1.0000
  N   N3        1.0  0.06910  0.22200  0.30200  1.0000
  N   N4        1.0  0.56900  0.27800  0.30200  1.0000
  N   N5        1.0  0.82800  0.62500  0.36400  1.0000
  N   N6        1.0  0.32800  0.87500  0.36400  1.0000
  N   N7        1.0  0.17200  0.37500  0.63600  1.0000
  N   N8        1.0  0.67200  0.12500  0.63600  1.0000
  N   N9        1.0  0.43100  0.72200  0.69800  1.0000
  N   N10       1.0  0.93100  0.77800  0.69800  1.0000
  N   N11       1.0  0.32600  0.08210  0.78000  1.0000
  N   N12       1.0  0.82600  0.41800  0.78000  1.0000
