data_image0
_chemical_formula_structural       Nb6O21Sr7
_chemical_formula_sum              "Nb6 O21 Sr7"
_cell_length_a       5.69388
_cell_length_b       5.69388
_cell_length_c       16.4963
_cell_angle_alpha    99.9379
_cell_angle_beta     80.0621
_cell_angle_gamma    120

_space_group_name_H-M_alt    "P 1"
_space_group_IT_number       1

loop_
  _space_group_symop_operation_xyz
  'x, y, z'

loop_
  _atom_site_type_symbol
  _atom_site_label
  _atom_site_symmetry_multiplicity
  _atom_site_fract_x
  _atom_site_fract_y
  _atom_site_fract_z
  _atom_site_occupancy
  Nb  Nb1       1.0  0.30900  0.69100  0.07210  1.0000
  Nb  Nb2       1.0  0.92700  0.07320  0.22000  1.0000
  Nb  Nb3       1.0  0.54200  0.45800  0.37300  1.0000
  Nb  Nb4       1.0  0.45800  0.54200  0.62700  1.0000
  Nb  Nb5       1.0  0.07320  0.92700  0.78000  1.0000
  Nb  Nb6       1.0  0.69100  0.30900  0.92800  1.0000
  O   O1        1.0  0.50000  0.00000  0.00000  1.0000
  O   O2        1.0  0.50000  0.50000  0.00000  1.0000
  O   O3        1.0  0.00000  0.50000  0.00000  1.0000
  O   O4        1.0  0.14300  0.37500  0.14200  1.0000
  O   O5        1.0  0.08970  0.85700  0.14200  1.0000
  O   O6        1.0  0.62500  0.91000  0.14200  1.0000
  O   O7        1.0  0.24600  0.21900  0.28200  1.0000
  O   O8        1.0  0.78100  0.31000  0.28200  1.0000
  O   O9        1.0  0.69000  0.75400  0.28200  1.0000
  O   O10       1.0  0.42200  0.13800  0.42300  1.0000
  O   O11       1.0  0.29300  0.57800  0.42300  1.0000
  O   O12       1.0  0.86200  0.70700  0.42300  1.0000
  O   O13       1.0  0.13800  0.29300  0.57700  1.0000
  O   O14       1.0  0.70700  0.42200  0.57700  1.0000
  O   O15       1.0  0.57800  0.86200  0.57700  1.0000
  O   O16       1.0  0.31000  0.24600  0.71800  1.0000
  O   O17       1.0  0.21900  0.69000  0.71800  1.0000
  O   O18       1.0  0.75400  0.78100  0.71800  1.0000
  O   O19       1.0  0.37500  0.08970  0.85800  1.0000
  O   O20       1.0  0.91000  0.14300  0.85800  1.0000
  O   O21       1.0  0.85700  0.62500  0.85800  1.0000
  Sr  Sr1       1.0  0.00000  0.00000  0.00000  1.0000
  Sr  Sr2       1.0  0.61600  0.38400  0.15300  1.0000
  Sr  Sr3       1.0  0.23200  0.76800  0.30400  1.0000
  Sr  Sr4       1.0  0.84800  0.15200  0.45600  1.0000
  Sr  Sr5       1.0  0.15200  0.84800  0.54400  1.0000
  Sr  Sr6       1.0  0.76800  0.23200  0.69600  1.0000
  Sr  Sr7       1.0  0.38400  0.61600  0.84700  1.0000
