data_image0
_chemical_formula_structural       Cl14Cs4Nb6O10
_chemical_formula_sum              "Cl14 Cs4 Nb6 O10"
_cell_length_a       9.01676
_cell_length_b       9.72887
_cell_length_c       11.2016
_cell_angle_alpha    107.258
_cell_angle_beta     90
_cell_angle_gamma    117.607

_space_group_name_H-M_alt    "P 1"
_space_group_IT_number       1

loop_
  _space_group_symop_operation_xyz
  'x, y, z'

loop_
  _atom_site_type_symbol
  _atom_site_label
  _atom_site_symmetry_multiplicity
  _atom_site_fract_x
  _atom_site_fract_y
  _atom_site_fract_z
  _atom_site_occupancy
  Cl  Cl1       1.0  0.36800  0.30200  0.03840  1.0000
  Cl  Cl2       1.0  0.93800  0.29400  0.11700  1.0000
  Cl  Cl3       1.0  0.28800  0.70400  0.17500  1.0000
  Cl  Cl4       1.0  0.90700  0.00000  0.25000  1.0000
  Cl  Cl5       1.0  0.58400  0.29600  0.32500  1.0000
  Cl  Cl6       1.0  0.64400  0.70600  0.38300  1.0000
  Cl  Cl7       1.0  0.06530  0.69800  0.46200  1.0000
  Cl  Cl8       1.0  0.93500  0.30200  0.53800  1.0000
  Cl  Cl9       1.0  0.35600  0.29400  0.61700  1.0000
  Cl  Cl10      1.0  0.41600  0.70400  0.67500  1.0000
  Cl  Cl11      1.0  0.09310  0.00000  0.75000  1.0000
  Cl  Cl12      1.0  0.71200  0.29600  0.82500  1.0000
  Cl  Cl13      1.0  0.06190  0.70600  0.88300  1.0000
  Cl  Cl14      1.0  0.63200  0.69800  0.96200  1.0000
  Cs  Cs1       1.0  0.84200  0.59500  0.14500  1.0000
  Cs  Cs2       1.0  0.24700  0.40500  0.35500  1.0000
  Cs  Cs3       1.0  0.75300  0.59500  0.64500  1.0000
  Cs  Cs4       1.0  0.15800  0.40500  0.85500  1.0000
  Nb  Nb1       1.0  0.78500  0.99500  0.02580  1.0000
  Nb  Nb2       1.0  0.46400  0.00000  0.25000  1.0000
  Nb  Nb3       1.0  0.79000  0.00518  0.47400  1.0000
  Nb  Nb4       1.0  0.21000  0.99500  0.52600  1.0000
  Nb  Nb5       1.0  0.53600  0.00000  0.75000  1.0000
  Nb  Nb6       1.0  0.21500  0.00518  0.97400  1.0000
  O   O1        1.0  0.00000  0.00000  0.00000  1.0000
  O   O2        1.0  0.28700  0.00093  0.12400  1.0000
  O   O3        1.0  0.60200  0.99900  0.12500  1.0000
  O   O4        1.0  0.60300  0.00093  0.37500  1.0000
  O   O5        1.0  0.28600  0.99900  0.37600  1.0000
  O   O6        1.0  0.00000  0.00000  0.50000  1.0000
  O   O7        1.0  0.71400  0.00093  0.62400  1.0000
  O   O8        1.0  0.39700  0.99900  0.62500  1.0000
  O   O9        1.0  0.39800  0.00093  0.87500  1.0000
  O   O10       1.0  0.71300  0.99900  0.87600  1.0000
