data_image0
_chemical_formula_structural       Cu2Na4O20Si8
_chemical_formula_sum              "Cu2 Na4 O20 Si8"
_cell_length_a       10.59
_cell_length_b       7.71567
_cell_length_c       6.91171
_cell_angle_alpha    118.42
_cell_angle_beta     116.142
_cell_angle_gamma    93.7315

_space_group_name_H-M_alt    "P 1"
_space_group_IT_number       1

loop_
  _space_group_symop_operation_xyz
  'x, y, z'

loop_
  _atom_site_type_symbol
  _atom_site_label
  _atom_site_symmetry_multiplicity
  _atom_site_fract_x
  _atom_site_fract_y
  _atom_site_fract_z
  _atom_site_occupancy
  Cu  Cu1       1.0  0.42700  0.28700  0.47400  1.0000
  Cu  Cu2       1.0  0.57300  0.71300  0.52600  1.0000
  Na  Na1       1.0  0.57700  0.72400  0.03920  1.0000
  Na  Na2       1.0  0.98000  0.74800  0.06620  1.0000
  Na  Na3       1.0  0.02000  0.25200  0.93400  1.0000
  Na  Na4       1.0  0.42300  0.27600  0.96100  1.0000
  O   O1        1.0  0.20400  0.80100  0.00667  1.0000
  O   O2        1.0  0.26700  0.19900  0.12200  1.0000
  O   O3        1.0  0.42200  0.64400  0.17600  1.0000
  O   O4        1.0  0.86000  0.61300  0.22000  1.0000
  O   O5        1.0  0.18100  0.63200  0.23100  1.0000
  O   O6        1.0  0.73400  0.11300  0.27700  1.0000
  O   O7        1.0  0.98700  0.09160  0.27800  1.0000
  O   O8        1.0  0.56800  0.34600  0.38200  1.0000
  O   O9        1.0  0.71700  0.79400  0.45500  1.0000
  O   O10       1.0  0.14500  0.47000  0.45500  1.0000
  O   O11       1.0  0.85500  0.53000  0.54500  1.0000
  O   O12       1.0  0.28300  0.20600  0.54500  1.0000
  O   O13       1.0  0.43200  0.65400  0.61800  1.0000
  O   O14       1.0  0.01340  0.90800  0.72200  1.0000
  O   O15       1.0  0.26600  0.88700  0.72300  1.0000
  O   O16       1.0  0.81900  0.36800  0.76900  1.0000
  O   O17       1.0  0.14000  0.38700  0.78000  1.0000
  O   O18       1.0  0.57800  0.35600  0.82400  1.0000
  O   O19       1.0  0.73300  0.80100  0.87800  1.0000
  O   O20       1.0  0.79600  0.19900  0.99300  1.0000
  Si  Si1       1.0  0.25000  0.62100  0.05620  1.0000
  Si  Si2       1.0  0.80700  0.04760  0.09710  1.0000
  Si  Si3       1.0  0.73400  0.33900  0.48500  1.0000
  Si  Si4       1.0  0.85400  0.71300  0.48500  1.0000
  Si  Si5       1.0  0.14600  0.28700  0.51500  1.0000
  Si  Si6       1.0  0.26600  0.66100  0.51500  1.0000
  Si  Si7       1.0  0.19300  0.95200  0.90300  1.0000
  Si  Si8       1.0  0.75000  0.37900  0.94400  1.0000
