data_image0
_chemical_formula_structural       O22Te8Tm4
_chemical_formula_sum              "O22 Te8 Tm4"
_cell_length_a       5.05339
_cell_length_b       6.62263
_cell_length_c       15.4561
_cell_angle_alpha    91.8905
_cell_angle_beta     99.4087
_cell_angle_gamma    112.428

_space_group_name_H-M_alt    "P 1"
_space_group_IT_number       1

loop_
  _space_group_symop_operation_xyz
  'x, y, z'

loop_
  _atom_site_type_symbol
  _atom_site_label
  _atom_site_symmetry_multiplicity
  _atom_site_fract_x
  _atom_site_fract_y
  _atom_site_fract_z
  _atom_site_occupancy
  O   O1        1.0  0.00741  0.18000  0.04480  1.0000
  O   O2        1.0  0.71300  0.46800  0.05330  1.0000
  O   O3        1.0  0.49500  0.04700  0.09550  1.0000
  O   O4        1.0  0.32100  0.63200  0.13000  1.0000
  O   O5        1.0  0.95100  0.86400  0.17000  1.0000
  O   O6        1.0  0.38500  0.25000  0.25000  1.0000
  O   O7        1.0  0.41700  0.63600  0.33000  1.0000
  O   O8        1.0  0.05810  0.86800  0.37000  1.0000
  O   O9        1.0  0.85200  0.45300  0.40500  1.0000
  O   O10       1.0  0.69100  0.03160  0.44700  1.0000
  O   O11       1.0  0.28300  0.32000  0.45500  1.0000
  O   O12       1.0  0.71700  0.68000  0.54500  1.0000
  O   O13       1.0  0.30900  0.96800  0.55300  1.0000
  O   O14       1.0  0.14800  0.54700  0.59500  1.0000
  O   O15       1.0  0.94200  0.13200  0.63000  1.0000
  O   O16       1.0  0.58300  0.36400  0.67000  1.0000
  O   O17       1.0  0.61500  0.75000  0.75000  1.0000
  O   O18       1.0  0.04920  0.13600  0.83000  1.0000
  O   O19       1.0  0.67900  0.36800  0.87000  1.0000
  O   O20       1.0  0.50500  0.95300  0.90500  1.0000
  O   O21       1.0  0.28700  0.53200  0.94700  1.0000
  O   O22       1.0  0.99300  0.82000  0.95500  1.0000
  Te  Te1       1.0  0.96800  0.37400  0.12900  1.0000
  Te  Te2       1.0  0.35400  0.94900  0.20200  1.0000
  Te  Te3       1.0  0.70300  0.55100  0.29800  1.0000
  Te  Te4       1.0  0.96500  0.12600  0.37100  1.0000
  Te  Te5       1.0  0.03480  0.87400  0.62900  1.0000
  Te  Te6       1.0  0.29700  0.44900  0.70200  1.0000
  Te  Te7       1.0  0.64600  0.05110  0.79800  1.0000
  Te  Te8       1.0  0.03210  0.62600  0.87100  1.0000
  Tm  Tm1       1.0  0.66500  0.79700  0.03650  1.0000
  Tm  Tm2       1.0  0.33100  0.70300  0.46400  1.0000
  Tm  Tm3       1.0  0.66900  0.29700  0.53600  1.0000
  Tm  Tm4       1.0  0.33500  0.20300  0.96400  1.0000
