data_image0
_chemical_formula_structural       Gd4Mo6O24
_chemical_formula_sum              "Gd4 Mo6 O24"
_cell_length_a       7.36368
_cell_length_b       7.36368
_cell_length_c       10.572
_cell_angle_alpha    90
_cell_angle_beta     90
_cell_angle_gamma    90

_space_group_name_H-M_alt    "P 1"
_space_group_IT_number       1

loop_
  _space_group_symop_operation_xyz
  'x, y, z'

loop_
  _atom_site_type_symbol
  _atom_site_label
  _atom_site_symmetry_multiplicity
  _atom_site_fract_x
  _atom_site_fract_y
  _atom_site_fract_z
  _atom_site_occupancy
  Gd  Gd1       1.0  0.31500  0.31500  0.26000  1.0000
  Gd  Gd2       1.0  0.68500  0.68500  0.26000  1.0000
  Gd  Gd3       1.0  0.81500  0.18500  0.74000  1.0000
  Gd  Gd4       1.0  0.18500  0.81500  0.74000  1.0000
  Mo  Mo1       1.0  0.50000  0.00000  0.00000  1.0000
  Mo  Mo2       1.0  0.00000  0.50000  0.00000  1.0000
  Mo  Mo3       1.0  0.79400  0.20600  0.35400  1.0000
  Mo  Mo4       1.0  0.20600  0.79400  0.35400  1.0000
  Mo  Mo5       1.0  0.29400  0.29400  0.64600  1.0000
  Mo  Mo6       1.0  0.70600  0.70600  0.64600  1.0000
  O   O1        1.0  0.46900  0.19700  0.09520  1.0000
  O   O2        1.0  0.19700  0.46900  0.09520  1.0000
  O   O3        1.0  0.80300  0.53100  0.09520  1.0000
  O   O4        1.0  0.53100  0.80300  0.09520  1.0000
  O   O5        1.0  0.27700  0.00564  0.29200  1.0000
  O   O6        1.0  0.00564  0.27700  0.29200  1.0000
  O   O7        1.0  0.99400  0.72300  0.29200  1.0000
  O   O8        1.0  0.72300  0.99400  0.29200  1.0000
  O   O9        1.0  0.62500  0.37500  0.31100  1.0000
  O   O10       1.0  0.37500  0.62500  0.31100  1.0000
  O   O11       1.0  0.30700  0.30700  0.47900  1.0000
  O   O12       1.0  0.69300  0.69300  0.47900  1.0000
  O   O13       1.0  0.80700  0.19300  0.52100  1.0000
  O   O14       1.0  0.19300  0.80700  0.52100  1.0000
  O   O15       1.0  0.12500  0.12500  0.68900  1.0000
  O   O16       1.0  0.87500  0.87500  0.68900  1.0000
  O   O17       1.0  0.50600  0.22300  0.70800  1.0000
  O   O18       1.0  0.77700  0.49400  0.70800  1.0000
  O   O19       1.0  0.22300  0.50600  0.70800  1.0000
  O   O20       1.0  0.49400  0.77700  0.70800  1.0000
  O   O21       1.0  0.69700  0.03080  0.90500  1.0000
  O   O22       1.0  0.96900  0.30300  0.90500  1.0000
  O   O23       1.0  0.03080  0.69700  0.90500  1.0000
  O   O24       1.0  0.30300  0.96900  0.90500  1.0000
