data_image0
_chemical_formula_structural       La4O22Te8
_chemical_formula_sum              "La4 O22 Te8"
_cell_length_a       5.25769
_cell_length_b       6.89414
_cell_length_c       15.9935
_cell_angle_alpha    92.3503
_cell_angle_beta     99.4606
_cell_angle_gamma    112.415

_space_group_name_H-M_alt    "P 1"
_space_group_IT_number       1

loop_
  _space_group_symop_operation_xyz
  'x, y, z'

loop_
  _atom_site_type_symbol
  _atom_site_label
  _atom_site_symmetry_multiplicity
  _atom_site_fract_x
  _atom_site_fract_y
  _atom_site_fract_z
  _atom_site_occupancy
  La  La1       1.0  0.66200  0.80000  0.03820  1.0000
  La  La2       1.0  0.32400  0.70000  0.46200  1.0000
  La  La3       1.0  0.67600  0.30000  0.53800  1.0000
  La  La4       1.0  0.33800  0.20000  0.96200  1.0000
  O   O1        1.0  0.99800  0.19400  0.04800  1.0000
  O   O2        1.0  0.72600  0.47300  0.06050  1.0000
  O   O3        1.0  0.48500  0.05140  0.10400  1.0000
  O   O4        1.0  0.31100  0.63100  0.13300  1.0000
  O   O5        1.0  0.96700  0.87500  0.17500  1.0000
  O   O6        1.0  0.38700  0.25000  0.25000  1.0000
  O   O7        1.0  0.41600  0.62500  0.32500  1.0000
  O   O8        1.0  0.04660  0.86900  0.36700  1.0000
  O   O9        1.0  0.82900  0.44900  0.39600  1.0000
  O   O10       1.0  0.69200  0.02740  0.44000  1.0000
  O   O11       1.0  0.25600  0.30600  0.45200  1.0000
  O   O12       1.0  0.74400  0.69400  0.54800  1.0000
  O   O13       1.0  0.30800  0.97300  0.56000  1.0000
  O   O14       1.0  0.17100  0.55100  0.60400  1.0000
  O   O15       1.0  0.95300  0.13100  0.63300  1.0000
  O   O16       1.0  0.58400  0.37500  0.67500  1.0000
  O   O17       1.0  0.61300  0.75000  0.75000  1.0000
  O   O18       1.0  0.03340  0.12500  0.82500  1.0000
  O   O19       1.0  0.68900  0.36900  0.86700  1.0000
  O   O20       1.0  0.51500  0.94900  0.89600  1.0000
  O   O21       1.0  0.27400  0.52700  0.94000  1.0000
  O   O22       1.0  0.00178  0.80600  0.95200  1.0000
  Te  Te1       1.0  0.97700  0.38500  0.13200  1.0000
  Te  Te2       1.0  0.35300  0.96000  0.20600  1.0000
  Te  Te3       1.0  0.68800  0.54000  0.29400  1.0000
  Te  Te4       1.0  0.96000  0.11500  0.36800  1.0000
  Te  Te5       1.0  0.04020  0.88500  0.63200  1.0000
  Te  Te6       1.0  0.31200  0.46000  0.70600  1.0000
  Te  Te7       1.0  0.64700  0.04030  0.79400  1.0000
  Te  Te8       1.0  0.02320  0.61500  0.86800  1.0000
