data_image0
_chemical_formula_structural       Cl4Cu10O16Se4
_chemical_formula_sum              "Cl4 Cu10 O16 Se4"
_cell_length_a       5.37809
_cell_length_b       8.01532
_cell_length_c       11.107
_cell_angle_alpha    90
_cell_angle_beta     98.8
_cell_angle_gamma    90

_space_group_name_H-M_alt    "P 1"
_space_group_IT_number       1

loop_
  _space_group_symop_operation_xyz
  'x, y, z'

loop_
  _atom_site_type_symbol
  _atom_site_label
  _atom_site_symmetry_multiplicity
  _atom_site_fract_x
  _atom_site_fract_y
  _atom_site_fract_z
  _atom_site_occupancy
  Cl  Cl1       1.0  0.27500  0.35100  0.02540  1.0000
  Cl  Cl2       1.0  0.72500  0.85100  0.47500  1.0000
  Cl  Cl3       1.0  0.27500  0.14900  0.52500  1.0000
  Cl  Cl4       1.0  0.72500  0.64900  0.97500  1.0000
  Cu  Cu1       1.0  0.00000  0.00000  0.00000  1.0000
  Cu  Cu2       1.0  0.47900  0.71300  0.11300  1.0000
  Cu  Cu3       1.0  0.51900  0.07680  0.12100  1.0000
  Cu  Cu4       1.0  0.48100  0.57700  0.37900  1.0000
  Cu  Cu5       1.0  0.52100  0.21300  0.38700  1.0000
  Cu  Cu6       1.0  0.00000  0.50000  0.50000  1.0000
  Cu  Cu7       1.0  0.47900  0.78700  0.61300  1.0000
  Cu  Cu8       1.0  0.51900  0.42300  0.62100  1.0000
  Cu  Cu9       1.0  0.48100  0.92300  0.87900  1.0000
  Cu  Cu10      1.0  0.52100  0.28700  0.88700  1.0000
  O   O1        1.0  0.32300  0.89800  0.02430  1.0000
  O   O2        1.0  0.91300  0.93100  0.15400  1.0000
  O   O3        1.0  0.65200  0.56100  0.23800  1.0000
  O   O4        1.0  0.71500  0.22800  0.24900  1.0000
  O   O5        1.0  0.28500  0.72800  0.25100  1.0000
  O   O6        1.0  0.34800  0.06130  0.26200  1.0000
  O   O7        1.0  0.08740  0.43100  0.34600  1.0000
  O   O8        1.0  0.67700  0.39800  0.47600  1.0000
  O   O9        1.0  0.32300  0.60200  0.52400  1.0000
  O   O10       1.0  0.91300  0.56900  0.65400  1.0000
  O   O11       1.0  0.65200  0.93900  0.73800  1.0000
  O   O12       1.0  0.71500  0.27200  0.74900  1.0000
  O   O13       1.0  0.28500  0.77200  0.75100  1.0000
  O   O14       1.0  0.34800  0.43900  0.76200  1.0000
  O   O15       1.0  0.08740  0.06930  0.84600  1.0000
  O   O16       1.0  0.67700  0.10200  0.97600  1.0000
  Se  Se1       1.0  0.87500  0.40900  0.21400  1.0000
  Se  Se2       1.0  0.12500  0.90900  0.28600  1.0000
  Se  Se3       1.0  0.87500  0.09150  0.71400  1.0000
  Se  Se4       1.0  0.12500  0.59100  0.78600  1.0000
