data_image0
_chemical_formula_structural       As2Li2O6
_chemical_formula_sum              "As2 Li2 O6"
_cell_length_a       4.82771
_cell_length_b       4.82771
_cell_length_c       5.44097
_cell_angle_alpha    116.337
_cell_angle_beta     116.337
_cell_angle_gamma    60

_space_group_name_H-M_alt    "P 1"
_space_group_IT_number       1

loop_
  _space_group_symop_operation_xyz
  'x, y, z'

loop_
  _atom_site_type_symbol
  _atom_site_label
  _atom_site_symmetry_multiplicity
  _atom_site_fract_x
  _atom_site_fract_y
  _atom_site_fract_z
  _atom_site_occupancy
  As  As1       1.0  0.33900  0.33900  0.01820  1.0000
  As  As2       1.0  0.66100  0.66100  0.98200  1.0000
  Li  Li1       1.0  0.13800  0.13800  0.41400  1.0000
  Li  Li2       1.0  0.86200  0.86200  0.58600  1.0000
  O   O1        1.0  0.70900  0.06540  0.22400  1.0000
  O   O2        1.0  0.06540  0.44900  0.22400  1.0000
  O   O3        1.0  0.44900  0.70900  0.22400  1.0000
  O   O4        1.0  0.55100  0.29100  0.77600  1.0000
  O   O5        1.0  0.93500  0.55100  0.77600  1.0000
  O   O6        1.0  0.29100  0.93500  0.77600  1.0000
