data_image0
_chemical_formula_structural       B2Fe2H4O20P4Sr2
_chemical_formula_sum              "B2 Fe2 H4 O20 P4 Sr2"
_cell_length_a       6.58503
_cell_length_b       6.62584
_cell_length_c       9.25163
_cell_angle_alpha    109.999
_cell_angle_beta     101.944
_cell_angle_gamma    103.611

_space_group_name_H-M_alt    "P 1"
_space_group_IT_number       1

loop_
  _space_group_symop_operation_xyz
  'x, y, z'

loop_
  _atom_site_type_symbol
  _atom_site_label
  _atom_site_symmetry_multiplicity
  _atom_site_fract_x
  _atom_site_fract_y
  _atom_site_fract_z
  _atom_site_occupancy
  B   B1        1.0  0.03080  0.27700  0.24500  1.0000
  B   B2        1.0  0.96900  0.72300  0.75500  1.0000
  Fe  Fe1       1.0  0.00000  0.50000  0.00000  1.0000
  Fe  Fe2       1.0  0.50000  0.50000  0.50000  1.0000
  H   H1        1.0  0.20900  0.25000  0.08090  1.0000
  H   H2        1.0  0.16100  0.61700  0.41100  1.0000
  H   H3        1.0  0.83900  0.38300  0.58900  1.0000
  H   H4        1.0  0.79100  0.75000  0.91900  1.0000
  O   O1        1.0  0.43000  0.19800  0.04630  1.0000
  O   O2        1.0  0.07430  0.28900  0.09980  1.0000
  O   O3        1.0  0.77000  0.53700  0.10700  1.0000
  O   O4        1.0  0.23700  0.77500  0.18400  1.0000
  O   O5        1.0  0.80000  0.26500  0.23700  1.0000
  O   O6        1.0  0.03430  0.05700  0.25100  1.0000
  O   O7        1.0  0.58900  0.53700  0.31500  1.0000
  O   O8        1.0  0.18400  0.46600  0.39400  1.0000
  O   O9        1.0  0.43500  0.16200  0.40200  1.0000
  O   O10       1.0  0.13800  0.87400  0.44100  1.0000
  O   O11       1.0  0.86200  0.12600  0.55900  1.0000
  O   O12       1.0  0.56500  0.83800  0.59800  1.0000
  O   O13       1.0  0.81600  0.53400  0.60600  1.0000
  O   O14       1.0  0.41100  0.46300  0.68500  1.0000
  O   O15       1.0  0.96600  0.94300  0.74900  1.0000
  O   O16       1.0  0.20000  0.73500  0.76300  1.0000
  O   O17       1.0  0.76300  0.22500  0.81600  1.0000
  O   O18       1.0  0.23000  0.46300  0.89300  1.0000
  O   O19       1.0  0.92600  0.71100  0.90000  1.0000
  O   O20       1.0  0.57000  0.80200  0.95400  1.0000
  P   P1        1.0  0.64000  0.37800  0.17100  1.0000
  P   P2        1.0  0.21100  0.96500  0.32400  1.0000
  P   P3        1.0  0.78900  0.03470  0.67600  1.0000
  P   P4        1.0  0.36000  0.62200  0.82900  1.0000
  Sr  Sr1       1.0  0.65200  0.89100  0.25800  1.0000
  Sr  Sr2       1.0  0.34800  0.10900  0.74200  1.0000
