data_image0
_chemical_formula_structural       C8Mn6W20
_chemical_formula_sum              "C8 Mn6 W20"
_cell_length_a       8.01428
_cell_length_b       8.01428
_cell_length_c       7.9853
_cell_angle_alpha    90
_cell_angle_beta     90
_cell_angle_gamma    119.995

_space_group_name_H-M_alt    "P 1"
_space_group_IT_number       1

loop_
  _space_group_symop_operation_xyz
  'x, y, z'

loop_
  _atom_site_type_symbol
  _atom_site_label
  _atom_site_symmetry_multiplicity
  _atom_site_fract_x
  _atom_site_fract_y
  _atom_site_fract_z
  _atom_site_occupancy
  C   C1        1.0  0.50000  0.00000  0.00000  1.0000
  C   C2        1.0  0.50000  0.50000  0.00000  1.0000
  C   C3        1.0  0.00000  0.50000  0.00000  1.0000
  C   C4        1.0  0.33300  0.66700  0.25000  1.0000
  C   C5        1.0  0.50000  0.00000  0.50000  1.0000
  C   C6        1.0  0.50000  0.50000  0.50000  1.0000
  C   C7        1.0  0.00000  0.50000  0.50000  1.0000
  C   C8        1.0  0.66700  0.33300  0.75000  1.0000
  Mn  Mn1       1.0  0.06430  0.53200  0.25000  1.0000
  Mn  Mn2       1.0  0.46800  0.53200  0.25000  1.0000
  Mn  Mn3       1.0  0.46800  0.93600  0.25000  1.0000
  Mn  Mn4       1.0  0.53200  0.06430  0.75000  1.0000
  Mn  Mn5       1.0  0.53200  0.46800  0.75000  1.0000
  Mn  Mn6       1.0  0.93600  0.46800  0.75000  1.0000
  W   W1        1.0  0.00000  0.00000  0.00000  1.0000
  W   W2        1.0  0.79000  0.21000  0.05750  1.0000
  W   W3        1.0  0.41900  0.21000  0.05760  1.0000
  W   W4        1.0  0.79000  0.58100  0.05760  1.0000
  W   W5        1.0  0.11800  0.23600  0.25000  1.0000
  W   W6        1.0  0.11800  0.88200  0.25000  1.0000
  W   W7        1.0  0.76400  0.88200  0.25000  1.0000
  W   W8        1.0  0.41900  0.21000  0.44200  1.0000
  W   W9        1.0  0.79000  0.58100  0.44200  1.0000
  W   W10       1.0  0.79000  0.21000  0.44200  1.0000
  W   W11       1.0  0.00000  0.00000  0.50000  1.0000
  W   W12       1.0  0.21000  0.79000  0.55800  1.0000
  W   W13       1.0  0.21000  0.41900  0.55800  1.0000
  W   W14       1.0  0.58100  0.79000  0.55800  1.0000
  W   W15       1.0  0.23600  0.11800  0.75000  1.0000
  W   W16       1.0  0.88200  0.11800  0.75000  1.0000
  W   W17       1.0  0.88200  0.76400  0.75000  1.0000
  W   W18       1.0  0.21000  0.41900  0.94200  1.0000
  W   W19       1.0  0.58100  0.79000  0.94200  1.0000
  W   W20       1.0  0.21000  0.79000  0.94200  1.0000
