data_image0
_chemical_formula_structural       Ba6F24In4
_chemical_formula_sum              "Ba6 F24 In4"
_cell_length_a       5.56787
_cell_length_b       9.39022
_cell_length_c       9.39022
_cell_angle_alpha    90
_cell_angle_beta     90
_cell_angle_gamma    90

_space_group_name_H-M_alt    "P 1"
_space_group_IT_number       1

loop_
  _space_group_symop_operation_xyz
  'x, y, z'

loop_
  _atom_site_type_symbol
  _atom_site_label
  _atom_site_symmetry_multiplicity
  _atom_site_fract_x
  _atom_site_fract_y
  _atom_site_fract_z
  _atom_site_occupancy
  Ba  Ba1       1.0  0.00000  0.00000  0.00000  1.0000
  Ba  Ba2       1.0  0.50000  0.32000  0.18000  1.0000
  Ba  Ba3       1.0  0.50000  0.82000  0.32000  1.0000
  Ba  Ba4       1.0  0.00000  0.50000  0.50000  1.0000
  Ba  Ba5       1.0  0.50000  0.18000  0.68000  1.0000
  Ba  Ba6       1.0  0.50000  0.68000  0.82000  1.0000
  F   F1        1.0  0.23000  0.50000  0.00000  1.0000
  F   F2        1.0  0.77000  0.50000  0.00000  1.0000
  F   F3        1.0  0.26400  0.77700  0.05810  1.0000
  F   F4        1.0  0.73600  0.77700  0.05810  1.0000
  F   F5        1.0  0.00000  0.30000  0.20000  1.0000
  F   F6        1.0  0.26400  0.05810  0.22300  1.0000
  F   F7        1.0  0.73600  0.05810  0.22300  1.0000
  F   F8        1.0  0.26400  0.55800  0.27700  1.0000
  F   F9        1.0  0.73600  0.55800  0.27700  1.0000
  F   F10       1.0  0.00000  0.80000  0.30000  1.0000
  F   F11       1.0  0.26400  0.27700  0.44200  1.0000
  F   F12       1.0  0.73600  0.27700  0.44200  1.0000
  F   F13       1.0  0.23000  0.00000  0.50000  1.0000
  F   F14       1.0  0.77000  0.00000  0.50000  1.0000
  F   F15       1.0  0.26400  0.72300  0.55800  1.0000
  F   F16       1.0  0.73600  0.72300  0.55800  1.0000
  F   F17       1.0  0.00000  0.20000  0.70000  1.0000
  F   F18       1.0  0.26400  0.44200  0.72300  1.0000
  F   F19       1.0  0.73600  0.44200  0.72300  1.0000
  F   F20       1.0  0.26400  0.94200  0.77700  1.0000
  F   F21       1.0  0.73600  0.94200  0.77700  1.0000
  F   F22       1.0  0.00000  0.70000  0.80000  1.0000
  F   F23       1.0  0.26400  0.22300  0.94200  1.0000
  F   F24       1.0  0.73600  0.22300  0.94200  1.0000
  In  In1       1.0  0.00000  0.63400  0.13400  1.0000
  In  In2       1.0  0.00000  0.13400  0.36600  1.0000
  In  In3       1.0  0.00000  0.86600  0.63400  1.0000
  In  In4       1.0  0.00000  0.36600  0.86600  1.0000
