data_image0
_chemical_formula_structural       Eu4O22Te8
_chemical_formula_sum              "Eu4 O22 Te8"
_cell_length_a       5.17545
_cell_length_b       6.66554
_cell_length_c       15.8572
_cell_angle_alpha    92.1927
_cell_angle_beta     99.3921
_cell_angle_gamma    112.844

_space_group_name_H-M_alt    "P 1"
_space_group_IT_number       1

loop_
  _space_group_symop_operation_xyz
  'x, y, z'

loop_
  _atom_site_type_symbol
  _atom_site_label
  _atom_site_symmetry_multiplicity
  _atom_site_fract_x
  _atom_site_fract_y
  _atom_site_fract_z
  _atom_site_occupancy
  Eu  Eu1       1.0  0.66600  0.80200  0.03650  1.0000
  Eu  Eu2       1.0  0.32700  0.69800  0.46300  1.0000
  Eu  Eu3       1.0  0.67300  0.30200  0.53700  1.0000
  Eu  Eu4       1.0  0.33400  0.19800  0.96300  1.0000
  O   O1        1.0  0.72900  0.47400  0.05630  1.0000
  O   O2        1.0  0.02010  0.19300  0.05660  1.0000
  O   O3        1.0  0.50600  0.06170  0.10900  1.0000
  O   O4        1.0  0.31100  0.64700  0.13900  1.0000
  O   O5        1.0  0.95500  0.85800  0.18000  1.0000
  O   O6        1.0  0.39000  0.25000  0.25000  1.0000
  O   O7        1.0  0.41700  0.64200  0.32000  1.0000
  O   O8        1.0  0.02530  0.85300  0.36100  1.0000
  O   O9        1.0  0.83600  0.43800  0.39100  1.0000
  O   O10       1.0  0.27000  0.30700  0.44300  1.0000
  O   O11       1.0  0.69800  0.02560  0.44400  1.0000
  O   O12       1.0  0.30200  0.97400  0.55600  1.0000
  O   O13       1.0  0.73000  0.69300  0.55700  1.0000
  O   O14       1.0  0.16400  0.56200  0.60900  1.0000
  O   O15       1.0  0.97500  0.14700  0.63900  1.0000
  O   O16       1.0  0.58300  0.35800  0.68000  1.0000
  O   O17       1.0  0.61000  0.75000  0.75000  1.0000
  O   O18       1.0  0.04510  0.14200  0.82000  1.0000
  O   O19       1.0  0.68900  0.35300  0.86100  1.0000
  O   O20       1.0  0.49400  0.93800  0.89100  1.0000
  O   O21       1.0  0.98000  0.80700  0.94300  1.0000
  O   O22       1.0  0.27100  0.52600  0.94400  1.0000
  Te  Te1       1.0  0.95400  0.37800  0.13300  1.0000
  Te  Te2       1.0  0.34900  0.94400  0.20500  1.0000
  Te  Te3       1.0  0.70100  0.55600  0.29500  1.0000
  Te  Te4       1.0  0.94400  0.12200  0.36700  1.0000
  Te  Te5       1.0  0.05580  0.87800  0.63300  1.0000
  Te  Te6       1.0  0.29900  0.44400  0.70500  1.0000
  Te  Te7       1.0  0.65100  0.05640  0.79500  1.0000
  Te  Te8       1.0  0.04570  0.62200  0.86700  1.0000
