data_image0
_chemical_formula_structural       Ag4O22Te8
_chemical_formula_sum              "Ag4 O22 Te8"
_cell_length_a       7.30033
_cell_length_b       7.41179
_cell_length_c       9.63631
_cell_angle_alpha    95.6603
_cell_angle_beta     94.4299
_cell_angle_gamma    119.464

_space_group_name_H-M_alt    "P 1"
_space_group_IT_number       1

loop_
  _space_group_symop_operation_xyz
  'x, y, z'

loop_
  _atom_site_type_symbol
  _atom_site_label
  _atom_site_symmetry_multiplicity
  _atom_site_fract_x
  _atom_site_fract_y
  _atom_site_fract_z
  _atom_site_occupancy
  Ag  Ag1       1.0  0.77600  0.28400  0.01580  1.0000
  Ag  Ag2       1.0  0.99900  0.18200  0.35900  1.0000
  Ag  Ag3       1.0  0.00058  0.81800  0.64100  1.0000
  Ag  Ag4       1.0  0.22400  0.71600  0.98400  1.0000
  O   O1        1.0  0.93000  0.06350  0.10600  1.0000
  O   O2        1.0  0.39300  0.08140  0.11300  1.0000
  O   O3        1.0  0.53400  0.68600  0.11600  1.0000
  O   O4        1.0  0.93300  0.68800  0.13400  1.0000
  O   O5        1.0  0.20500  0.60400  0.23300  1.0000
  O   O6        1.0  0.77800  0.36000  0.26800  1.0000
  O   O7        1.0  0.38500  0.38400  0.29300  1.0000
  O   O8        1.0  0.60000  0.99300  0.33900  1.0000
  O   O9        1.0  0.22000  0.00160  0.36300  1.0000
  O   O10       1.0  0.77600  0.76100  0.38500  1.0000
  O   O11       1.0  0.38200  0.67300  0.49400  1.0000
  O   O12       1.0  0.61800  0.32700  0.50600  1.0000
  O   O13       1.0  0.22400  0.23900  0.61500  1.0000
  O   O14       1.0  0.78000  0.99800  0.63700  1.0000
  O   O15       1.0  0.40000  0.00714  0.66100  1.0000
  O   O16       1.0  0.61500  0.61600  0.70700  1.0000
  O   O17       1.0  0.22200  0.64000  0.73200  1.0000
  O   O18       1.0  0.79500  0.39600  0.76700  1.0000
  O   O19       1.0  0.06700  0.31200  0.86600  1.0000
  O   O20       1.0  0.46600  0.31400  0.88400  1.0000
  O   O21       1.0  0.60700  0.91900  0.88700  1.0000
  O   O22       1.0  0.07050  0.93700  0.89400  1.0000
  Te  Te1       1.0  0.22400  0.21400  0.00209  1.0000
  Te  Te2       1.0  0.49200  0.18400  0.31100  1.0000
  Te  Te3       1.0  0.49300  0.68900  0.31300  1.0000
  Te  Te4       1.0  0.00443  0.68000  0.32900  1.0000
  Te  Te5       1.0  0.99600  0.32000  0.67100  1.0000
  Te  Te6       1.0  0.50700  0.31100  0.68700  1.0000
  Te  Te7       1.0  0.50800  0.81600  0.68900  1.0000
  Te  Te8       1.0  0.77600  0.78600  0.99800  1.0000
