data_image0
_chemical_formula_structural       P28Sr6
_chemical_formula_sum              "P28 Sr6"
_cell_length_a       11.7135
_cell_length_b       12.8168
_cell_length_c       6.35692
_cell_angle_alpha    90
_cell_angle_beta     122.985
_cell_angle_gamma    90

_space_group_name_H-M_alt    "P 1"
_space_group_IT_number       1

loop_
  _space_group_symop_operation_xyz
  'x, y, z'

loop_
  _atom_site_type_symbol
  _atom_site_label
  _atom_site_symmetry_multiplicity
  _atom_site_fract_x
  _atom_site_fract_y
  _atom_site_fract_z
  _atom_site_occupancy
  P   P1        1.0  0.63700  0.77400  0.02650  1.0000
  P   P2        1.0  0.13700  0.72600  0.02650  1.0000
  P   P3        1.0  0.22800  0.28900  0.08380  1.0000
  P   P4        1.0  0.72800  0.21100  0.08380  1.0000
  P   P5        1.0  0.68600  0.50200  0.10900  1.0000
  P   P6        1.0  0.18600  0.99800  0.10900  1.0000
  P   P7        1.0  0.31900  0.44600  0.22200  1.0000
  P   P8        1.0  0.81900  0.05430  0.22200  1.0000
  P   P9        1.0  0.14600  0.85300  0.26300  1.0000
  P   P10       1.0  0.64600  0.64700  0.26300  1.0000
  P   P11       1.0  0.45600  0.82100  0.29000  1.0000
  P   P12       1.0  0.95600  0.67900  0.29000  1.0000
  P   P13       1.0  0.86400  0.58200  0.43700  1.0000
  P   P14       1.0  0.36400  0.91800  0.43700  1.0000
  P   P15       1.0  0.13600  0.41800  0.56300  1.0000
  P   P16       1.0  0.63600  0.08240  0.56300  1.0000
  P   P17       1.0  0.54400  0.17900  0.71000  1.0000
  P   P18       1.0  0.04440  0.32100  0.71000  1.0000
  P   P19       1.0  0.85400  0.14700  0.73700  1.0000
  P   P20       1.0  0.35400  0.35300  0.73700  1.0000
  P   P21       1.0  0.18100  0.94600  0.77800  1.0000
  P   P22       1.0  0.68100  0.55400  0.77800  1.0000
  P   P23       1.0  0.31400  0.49800  0.89100  1.0000
  P   P24       1.0  0.81400  0.00209  0.89100  1.0000
  P   P25       1.0  0.27200  0.78900  0.91600  1.0000
  P   P26       1.0  0.77200  0.71100  0.91600  1.0000
  P   P27       1.0  0.36300  0.22600  0.97300  1.0000
  P   P28       1.0  0.86300  0.27400  0.97300  1.0000
  Sr  Sr1       1.0  0.50000  0.00000  0.00000  1.0000
  Sr  Sr2       1.0  0.00000  0.50000  0.00000  1.0000
  Sr  Sr3       1.0  0.11600  0.15800  0.42100  1.0000
  Sr  Sr4       1.0  0.61600  0.34200  0.42100  1.0000
  Sr  Sr5       1.0  0.88400  0.84200  0.57900  1.0000
  Sr  Sr6       1.0  0.38400  0.65800  0.57900  1.0000
