data_image0
_chemical_formula_structural       F28Sb4Xe2
_chemical_formula_sum              "F28 Sb4 Xe2"
_cell_length_a       7.50976
_cell_length_b       7.68625
_cell_length_c       8.89927
_cell_angle_alpha    68.7845
_cell_angle_beta     88.4176
_cell_angle_gamma    64.9517

_space_group_name_H-M_alt    "P 1"
_space_group_IT_number       1

loop_
  _space_group_symop_operation_xyz
  'x, y, z'

loop_
  _atom_site_type_symbol
  _atom_site_label
  _atom_site_symmetry_multiplicity
  _atom_site_fract_x
  _atom_site_fract_y
  _atom_site_fract_z
  _atom_site_occupancy
  F   F1        1.0  0.67600  0.30000  0.01730  1.0000
  F   F2        1.0  0.97200  0.65900  0.05790  1.0000
  F   F3        1.0  0.31100  0.34800  0.07760  1.0000
  F   F4        1.0  0.32800  0.99400  0.08420  1.0000
  F   F5        1.0  0.01610  0.95300  0.15200  1.0000
  F   F6        1.0  0.65800  0.96500  0.20800  1.0000
  F   F7        1.0  0.64600  0.61700  0.21900  1.0000
  F   F8        1.0  0.94200  0.27700  0.24400  1.0000
  F   F9        1.0  0.58100  0.27700  0.31400  1.0000
  F   F10       1.0  0.99100  0.62100  0.35500  1.0000
  F   F11       1.0  0.35600  0.03520  0.37200  1.0000
  F   F12       1.0  0.32900  0.68400  0.39100  1.0000
  F   F13       1.0  0.90800  0.92100  0.44500  1.0000
  F   F14       1.0  0.67500  0.68500  0.48400  1.0000
  F   F15       1.0  0.32500  0.31500  0.51600  1.0000
  F   F16       1.0  0.09160  0.07900  0.55500  1.0000
  F   F17       1.0  0.67100  0.31600  0.60900  1.0000
  F   F18       1.0  0.64400  0.96500  0.62800  1.0000
  F   F19       1.0  0.00933  0.37900  0.64500  1.0000
  F   F20       1.0  0.41900  0.72300  0.68600  1.0000
  F   F21       1.0  0.05830  0.72300  0.75600  1.0000
  F   F22       1.0  0.35400  0.38300  0.78100  1.0000
  F   F23       1.0  0.34200  0.03500  0.79200  1.0000
  F   F24       1.0  0.98400  0.04720  0.84800  1.0000
  F   F25       1.0  0.67200  0.00575  0.91600  1.0000
  F   F26       1.0  0.68900  0.65200  0.92200  1.0000
  F   F27       1.0  0.02770  0.34100  0.94200  1.0000
  F   F28       1.0  0.32400  0.70000  0.98300  1.0000
  Sb  Sb1       1.0  0.80800  0.12200  0.23200  1.0000
  Sb  Sb2       1.0  0.48100  0.82400  0.29000  1.0000
  Sb  Sb3       1.0  0.51900  0.17600  0.71000  1.0000
  Sb  Sb4       1.0  0.19200  0.87800  0.76800  1.0000
  Xe  Xe1       1.0  0.18600  0.46700  0.24100  1.0000
  Xe  Xe2       1.0  0.81400  0.53300  0.75900  1.0000
