data_image0
_chemical_formula_structural       B6K2O18Zn8
_chemical_formula_sum              "B6 K2 O18 Zn8"
_cell_length_a       6.82122
_cell_length_b       4.99044
_cell_length_c       12.4482
_cell_angle_alpha    90
_cell_angle_beta     92.0574
_cell_angle_gamma    90

_space_group_name_H-M_alt    "P 1"
_space_group_IT_number       1

loop_
  _space_group_symop_operation_xyz
  'x, y, z'

loop_
  _atom_site_type_symbol
  _atom_site_label
  _atom_site_symmetry_multiplicity
  _atom_site_fract_x
  _atom_site_fract_y
  _atom_site_fract_z
  _atom_site_occupancy
  B   B1        1.0  0.81300  0.34600  0.05400  1.0000
  B   B2        1.0  0.50000  0.15900  0.25000  1.0000
  B   B3        1.0  0.18700  0.34600  0.44600  1.0000
  B   B4        1.0  0.81300  0.65400  0.55400  1.0000
  B   B5        1.0  0.50000  0.84100  0.75000  1.0000
  B   B6        1.0  0.18700  0.65400  0.94600  1.0000
  K   K1        1.0  0.00000  0.71200  0.25000  1.0000
  K   K2        1.0  0.00000  0.28800  0.75000  1.0000
  O   O1        1.0  0.27200  0.79300  0.03290  1.0000
  O   O2        1.0  0.75100  0.61300  0.06840  1.0000
  O   O3        1.0  0.95300  0.23700  0.12000  1.0000
  O   O4        1.0  0.40600  0.29600  0.16800  1.0000
  O   O5        1.0  0.50000  0.88300  0.25000  1.0000
  O   O6        1.0  0.59400  0.29600  0.33200  1.0000
  O   O7        1.0  0.04740  0.23700  0.38000  1.0000
  O   O8        1.0  0.24900  0.61300  0.43200  1.0000
  O   O9        1.0  0.72800  0.79300  0.46700  1.0000
  O   O10       1.0  0.27200  0.20700  0.53300  1.0000
  O   O11       1.0  0.75100  0.38700  0.56800  1.0000
  O   O12       1.0  0.95300  0.76300  0.62000  1.0000
  O   O13       1.0  0.40600  0.70400  0.66800  1.0000
  O   O14       1.0  0.50000  0.11700  0.75000  1.0000
  O   O15       1.0  0.59400  0.70400  0.83200  1.0000
  O   O16       1.0  0.04740  0.76300  0.88000  1.0000
  O   O17       1.0  0.24900  0.38700  0.93200  1.0000
  O   O18       1.0  0.72800  0.20700  0.96700  1.0000
  Zn  Zn1       1.0  0.20300  0.16400  0.06150  1.0000
  Zn  Zn2       1.0  0.48800  0.65500  0.12200  1.0000
  Zn  Zn3       1.0  0.51200  0.65500  0.37800  1.0000
  Zn  Zn4       1.0  0.79700  0.16400  0.43900  1.0000
  Zn  Zn5       1.0  0.20300  0.83600  0.56100  1.0000
  Zn  Zn6       1.0  0.48800  0.34500  0.62200  1.0000
  Zn  Zn7       1.0  0.51200  0.34500  0.87800  1.0000
  Zn  Zn8       1.0  0.79700  0.83600  0.93900  1.0000
