data_image0
_chemical_formula_structural       Au4Li8O11
_chemical_formula_sum              "Au4 Li8 O11"
_cell_length_a       10.8192
_cell_length_b       5.30686
_cell_length_c       5.13211
_cell_angle_alpha    101.911
_cell_angle_beta     97.5965
_cell_angle_gamma    120.681

_space_group_name_H-M_alt    "P 1"
_space_group_IT_number       1

loop_
  _space_group_symop_operation_xyz
  'x, y, z'

loop_
  _atom_site_type_symbol
  _atom_site_label
  _atom_site_symmetry_multiplicity
  _atom_site_fract_x
  _atom_site_fract_y
  _atom_site_fract_z
  _atom_site_occupancy
  Au  Au1       1.0  0.57100  0.81000  0.00248  1.0000
  Au  Au2       1.0  0.08270  0.84300  0.01490  1.0000
  Au  Au3       1.0  0.42500  0.17500  0.05710  1.0000
  Au  Au4       1.0  0.90400  0.17200  0.97200  1.0000
  Li  Li1       1.0  0.96600  0.99000  0.46700  1.0000
  Li  Li2       1.0  0.67500  0.70200  0.48600  1.0000
  Li  Li3       1.0  0.83300  0.37900  0.48800  1.0000
  Li  Li4       1.0  0.20400  0.65400  0.50700  1.0000
  Li  Li5       1.0  0.51100  0.01460  0.54400  1.0000
  Li  Li6       1.0  0.33400  0.25900  0.55000  1.0000
  Li  Li7       1.0  0.74800  0.50300  0.95800  1.0000
  Li  Li8       1.0  0.24600  0.50800  0.98000  1.0000
  O   O1        1.0  0.78100  0.94400  0.21200  1.0000
  O   O2        1.0  0.94600  0.58400  0.22400  1.0000
  O   O3        1.0  0.08760  0.21900  0.22600  1.0000
  O   O4        1.0  0.61600  0.22600  0.24100  1.0000
  O   O5        1.0  0.32900  0.91200  0.29500  1.0000
  O   O6        1.0  0.84800  0.77300  0.70300  1.0000
  O   O7        1.0  0.73100  0.13000  0.71200  1.0000
  O   O8        1.0  0.38100  0.67100  0.71900  1.0000
  O   O9        1.0  0.04880  0.43800  0.77000  1.0000
  O   O10       1.0  0.53500  0.40200  0.79800  1.0000
  O   O11       1.0  0.23100  0.09630  0.82900  1.0000
