data_image0
_chemical_formula_structural       Li8Nb4O11
_chemical_formula_sum              "Li8 Nb4 O11"
_cell_length_a       10.3259
_cell_length_b       5.08012
_cell_length_c       5.22563
_cell_angle_alpha    98.5505
_cell_angle_beta     98.9897
_cell_angle_gamma    119.238

_space_group_name_H-M_alt    "P 1"
_space_group_IT_number       1

loop_
  _space_group_symop_operation_xyz
  'x, y, z'

loop_
  _atom_site_type_symbol
  _atom_site_label
  _atom_site_symmetry_multiplicity
  _atom_site_fract_x
  _atom_site_fract_y
  _atom_site_fract_z
  _atom_site_occupancy
  Li  Li1       1.0  0.68100  0.66100  0.49800  1.0000
  Li  Li2       1.0  0.99800  0.99800  0.49900  1.0000
  Li  Li3       1.0  0.83000  0.33200  0.50000  1.0000
  Li  Li4       1.0  0.17200  0.66000  0.50200  1.0000
  Li  Li5       1.0  0.31500  0.32000  0.51800  1.0000
  Li  Li6       1.0  0.50400  0.04090  0.51800  1.0000
  Li  Li7       1.0  0.23700  0.49100  0.97700  1.0000
  Li  Li8       1.0  0.75000  0.49700  0.99800  1.0000
  Nb  Nb1       1.0  0.92100  0.14100  0.00124  1.0000
  Nb  Nb2       1.0  0.07550  0.84900  0.00138  1.0000
  Nb  Nb3       1.0  0.42800  0.17300  0.00881  1.0000
  Nb  Nb4       1.0  0.57000  0.84600  0.98700  1.0000
  O   O1        1.0  0.96700  0.58600  0.23300  1.0000
  O   O2        1.0  0.79500  0.92600  0.23600  1.0000
  O   O3        1.0  0.29900  0.95400  0.24100  1.0000
  O   O4        1.0  0.13100  0.26300  0.26100  1.0000
  O   O5        1.0  0.62600  0.23800  0.26800  1.0000
  O   O6        1.0  0.37500  0.74500  0.72900  1.0000
  O   O7        1.0  0.87300  0.73700  0.73600  1.0000
  O   O8        1.0  0.53600  0.41500  0.75800  1.0000
  O   O9        1.0  0.70900  0.05890  0.76200  1.0000
  O   O10       1.0  0.03430  0.41000  0.76800  1.0000
  O   O11       1.0  0.20600  0.07010  0.76800  1.0000
