data_image0
_chemical_formula_structural       Li8Lu4O11
_chemical_formula_sum              "Li8 Lu4 O11"
_cell_length_a       10.933
_cell_length_b       5.47307
_cell_length_c       5.15433
_cell_angle_alpha    100.442
_cell_angle_beta     100.314
_cell_angle_gamma    119.051

_space_group_name_H-M_alt    "P 1"
_space_group_IT_number       1

loop_
  _space_group_symop_operation_xyz
  'x, y, z'

loop_
  _atom_site_type_symbol
  _atom_site_label
  _atom_site_symmetry_multiplicity
  _atom_site_fract_x
  _atom_site_fract_y
  _atom_site_fract_z
  _atom_site_occupancy
  Li  Li1       1.0  0.19600  0.74800  0.49800  1.0000
  Li  Li2       1.0  0.49800  0.99800  0.50100  1.0000
  Li  Li3       1.0  0.36300  0.37800  0.50400  1.0000
  Li  Li4       1.0  0.80900  0.33100  0.50500  1.0000
  Li  Li5       1.0  0.67700  0.64300  0.50700  1.0000
  Li  Li6       1.0  0.97200  0.94500  0.51500  1.0000
  Li  Li7       1.0  0.25100  0.48000  0.91100  1.0000
  Li  Li8       1.0  0.74200  0.49700  0.99000  1.0000
  Lu  Lu1       1.0  0.90200  0.15200  0.00000  1.0000
  Lu  Lu2       1.0  0.41700  0.17400  0.00179  1.0000
  Lu  Lu3       1.0  0.58100  0.83600  0.00751  1.0000
  Lu  Lu4       1.0  0.07990  0.78300  0.96900  1.0000
  O   O1        1.0  0.44700  0.58300  0.23400  1.0000
  O   O2        1.0  0.62100  0.24700  0.25300  1.0000
  O   O3        1.0  0.29200  0.96500  0.26100  1.0000
  O   O4        1.0  0.79100  0.91700  0.26100  1.0000
  O   O5        1.0  0.98100  0.59300  0.27000  1.0000
  O   O6        1.0  0.37500  0.75900  0.73700  1.0000
  O   O7        1.0  0.20400  0.07690  0.75500  1.0000
  O   O8        1.0  0.54300  0.42700  0.75600  1.0000
  O   O9        1.0  0.71000  0.08730  0.76300  1.0000
  O   O10       1.0  0.04810  0.38500  0.77800  1.0000
  O   O11       1.0  0.88000  0.75200  0.77900  1.0000
