data_image0
_chemical_formula_structural       As28Ba6
_chemical_formula_sum              "As28 Ba6"
_cell_length_a       10.1993
_cell_length_b       13.8944
_cell_length_c       6.92658
_cell_angle_alpha    90
_cell_angle_beta     89.845
_cell_angle_gamma    90

_space_group_name_H-M_alt    "P 1"
_space_group_IT_number       1

loop_
  _space_group_symop_operation_xyz
  'x, y, z'

loop_
  _atom_site_type_symbol
  _atom_site_label
  _atom_site_symmetry_multiplicity
  _atom_site_fract_x
  _atom_site_fract_y
  _atom_site_fract_z
  _atom_site_occupancy
  As  As1       1.0  0.37400  0.42100  0.05420  1.0000
  As  As2       1.0  0.67600  0.06060  0.06430  1.0000
  As  As3       1.0  0.13900  0.35700  0.10200  1.0000
  As  As4       1.0  0.81500  0.49800  0.10800  1.0000
  As  As5       1.0  0.87000  0.77800  0.12200  1.0000
  As  As6       1.0  0.77800  0.22000  0.12300  1.0000
  As  As7       1.0  0.52700  0.68700  0.17800  1.0000
  As  As8       1.0  0.97300  0.18700  0.32200  1.0000
  As  As9       1.0  0.72200  0.72000  0.37700  1.0000
  As  As10      1.0  0.63000  0.27800  0.37800  1.0000
  As  As11      1.0  0.68500  0.99800  0.39200  1.0000
  As  As12      1.0  0.36100  0.85700  0.39800  1.0000
  As  As13      1.0  0.82400  0.56100  0.43600  1.0000
  As  As14      1.0  0.12600  0.92100  0.44600  1.0000
  As  As15      1.0  0.87400  0.07890  0.55400  1.0000
  As  As16      1.0  0.17600  0.43900  0.56400  1.0000
  As  As17      1.0  0.63900  0.14300  0.60200  1.0000
  As  As18      1.0  0.31500  0.00219  0.60800  1.0000
  As  As19      1.0  0.37000  0.72200  0.62200  1.0000
  As  As20      1.0  0.27800  0.28000  0.62300  1.0000
  As  As21      1.0  0.02650  0.81300  0.67800  1.0000
  As  As22      1.0  0.47300  0.31300  0.82200  1.0000
  As  As23      1.0  0.22200  0.78000  0.87700  1.0000
  As  As24      1.0  0.13000  0.22200  0.87800  1.0000
  As  As25      1.0  0.18500  0.50200  0.89200  1.0000
  As  As26      1.0  0.86100  0.64300  0.89800  1.0000
  As  As27      1.0  0.32400  0.93900  0.93600  1.0000
  As  As28      1.0  0.62600  0.57900  0.94600  1.0000
  Ba  Ba1       1.0  0.00000  0.00000  0.00000  1.0000
  Ba  Ba2       1.0  0.37600  0.15900  0.18800  1.0000
  Ba  Ba3       1.0  0.12400  0.65900  0.31200  1.0000
  Ba  Ba4       1.0  0.50000  0.50000  0.50000  1.0000
  Ba  Ba5       1.0  0.87600  0.34100  0.68800  1.0000
  Ba  Ba6       1.0  0.62400  0.84100  0.81200  1.0000
