data_image0
_chemical_formula_structural       O24S6Sc4
_chemical_formula_sum              "O24 S6 Sc4"
_cell_length_a       8.74161
_cell_length_b       8.74151
_cell_length_c       8.88667
_cell_angle_alpha    119.464
_cell_angle_beta     60.5359
_cell_angle_gamma    119.997

_space_group_name_H-M_alt    "P 1"
_space_group_IT_number       1

loop_
  _space_group_symop_operation_xyz
  'x, y, z'

loop_
  _atom_site_type_symbol
  _atom_site_label
  _atom_site_symmetry_multiplicity
  _atom_site_fract_x
  _atom_site_fract_y
  _atom_site_fract_z
  _atom_site_occupancy
  O   O1        1.0  0.29400  0.49400  0.08440  1.0000
  O   O2        1.0  0.11600  0.70600  0.08440  1.0000
  O   O3        1.0  0.50600  0.88400  0.08450  1.0000
  O   O4        1.0  0.78500  0.59000  0.24500  1.0000
  O   O5        1.0  0.41000  0.44100  0.24500  1.0000
  O   O6        1.0  0.55900  0.21500  0.24500  1.0000
  O   O7        1.0  0.71500  0.06010  0.25500  1.0000
  O   O8        1.0  0.94000  0.91000  0.25500  1.0000
  O   O9        1.0  0.08990  0.28500  0.25500  1.0000
  O   O10       1.0  0.38400  0.00545  0.41500  1.0000
  O   O11       1.0  0.99500  0.79400  0.41600  1.0000
  O   O12       1.0  0.20600  0.61600  0.41600  1.0000
  O   O13       1.0  0.79400  0.38400  0.58400  1.0000
  O   O14       1.0  0.00545  0.20600  0.58400  1.0000
  O   O15       1.0  0.61600  0.99500  0.58500  1.0000
  O   O16       1.0  0.91000  0.71500  0.74500  1.0000
  O   O17       1.0  0.06010  0.08990  0.74500  1.0000
  O   O18       1.0  0.28500  0.94000  0.74500  1.0000
  O   O19       1.0  0.44100  0.78500  0.75500  1.0000
  O   O20       1.0  0.59000  0.55900  0.75500  1.0000
  O   O21       1.0  0.21500  0.41000  0.75500  1.0000
  O   O22       1.0  0.49400  0.11600  0.91600  1.0000
  O   O23       1.0  0.88400  0.29400  0.91600  1.0000
  O   O24       1.0  0.70600  0.50600  0.91600  1.0000
  S   S1        1.0  0.25000  0.46000  0.25000  1.0000
  S   S2        1.0  0.96000  0.75000  0.25000  1.0000
  S   S3        1.0  0.54000  0.04020  0.25000  1.0000
  S   S4        1.0  0.04020  0.25000  0.75000  1.0000
  S   S5        1.0  0.46000  0.96000  0.75000  1.0000
  S   S6        1.0  0.75000  0.54000  0.75000  1.0000
  Sc  Sc1       1.0  0.64100  0.35900  0.07630  1.0000
  Sc  Sc2       1.0  0.85900  0.14100  0.42400  1.0000
  Sc  Sc3       1.0  0.14100  0.85900  0.57600  1.0000
  Sc  Sc4       1.0  0.35900  0.64100  0.92400  1.0000
