data_image0
_chemical_formula_structural       Er4O22Te8
_chemical_formula_sum              "Er4 O22 Te8"
_cell_length_a       5.07114
_cell_length_b       6.64287
_cell_length_c       15.5025
_cell_angle_alpha    91.9223
_cell_angle_beta     99.4135
_cell_angle_gamma    112.439

_space_group_name_H-M_alt    "P 1"
_space_group_IT_number       1

loop_
  _space_group_symop_operation_xyz
  'x, y, z'

loop_
  _atom_site_type_symbol
  _atom_site_label
  _atom_site_symmetry_multiplicity
  _atom_site_fract_x
  _atom_site_fract_y
  _atom_site_fract_z
  _atom_site_occupancy
  Er  Er1       1.0  0.66500  0.79800  0.03650  1.0000
  Er  Er2       1.0  0.33000  0.70200  0.46400  1.0000
  Er  Er3       1.0  0.67000  0.29800  0.53600  1.0000
  Er  Er4       1.0  0.33500  0.20200  0.96400  1.0000
  O   O1        1.0  0.00652  0.18100  0.04500  1.0000
  O   O2        1.0  0.71500  0.46900  0.05370  1.0000
  O   O3        1.0  0.49400  0.04810  0.09600  1.0000
  O   O4        1.0  0.32000  0.63200  0.13000  1.0000
  O   O5        1.0  0.95300  0.86500  0.17000  1.0000
  O   O6        1.0  0.38700  0.25000  0.25000  1.0000
  O   O7        1.0  0.41700  0.63500  0.33000  1.0000
  O   O8        1.0  0.05730  0.86800  0.37000  1.0000
  O   O9        1.0  0.85000  0.45200  0.40400  1.0000
  O   O10       1.0  0.69200  0.03090  0.44600  1.0000
  O   O11       1.0  0.28100  0.31900  0.45500  1.0000
  O   O12       1.0  0.71900  0.68100  0.54500  1.0000
  O   O13       1.0  0.30800  0.96900  0.55400  1.0000
  O   O14       1.0  0.15000  0.54800  0.59600  1.0000
  O   O15       1.0  0.94300  0.13200  0.63000  1.0000
  O   O16       1.0  0.58300  0.36500  0.67000  1.0000
  O   O17       1.0  0.61300  0.75000  0.75000  1.0000
  O   O18       1.0  0.04700  0.13500  0.83000  1.0000
  O   O19       1.0  0.68000  0.36800  0.87000  1.0000
  O   O20       1.0  0.50600  0.95200  0.90400  1.0000
  O   O21       1.0  0.28500  0.53100  0.94600  1.0000
  O   O22       1.0  0.99300  0.81900  0.95500  1.0000
  Te  Te1       1.0  0.96900  0.37500  0.12900  1.0000
  Te  Te2       1.0  0.35400  0.95000  0.20200  1.0000
  Te  Te3       1.0  0.70200  0.55000  0.29800  1.0000
  Te  Te4       1.0  0.96500  0.12500  0.37100  1.0000
  Te  Te5       1.0  0.03530  0.87500  0.62900  1.0000
  Te  Te6       1.0  0.29800  0.45000  0.70200  1.0000
  Te  Te7       1.0  0.64600  0.05020  0.79800  1.0000
  Te  Te8       1.0  0.03120  0.62500  0.87100  1.0000
