data_image0
_chemical_formula_structural       Cu4H8O16S4Zn2
_chemical_formula_sum              "Cu4 H8 O16 S4 Zn2"
_cell_length_a       5.69118
_cell_length_b       7.78398
_cell_length_c       7.92107
_cell_angle_alpha    90
_cell_angle_beta     90.9931
_cell_angle_gamma    90

_space_group_name_H-M_alt    "P 1"
_space_group_IT_number       1

loop_
  _space_group_symop_operation_xyz
  'x, y, z'

loop_
  _atom_site_type_symbol
  _atom_site_label
  _atom_site_symmetry_multiplicity
  _atom_site_fract_x
  _atom_site_fract_y
  _atom_site_fract_z
  _atom_site_occupancy
  Cu  Cu1       1.0  0.22900  0.63200  0.05500  1.0000
  Cu  Cu2       1.0  0.27100  0.13200  0.44500  1.0000
  Cu  Cu3       1.0  0.72900  0.86800  0.55500  1.0000
  Cu  Cu4       1.0  0.77100  0.36800  0.94500  1.0000
  H   H1        1.0  0.61500  0.88300  0.08500  1.0000
  H   H2        1.0  0.75000  0.41500  0.24400  1.0000
  H   H3        1.0  0.75000  0.91500  0.25600  1.0000
  H   H4        1.0  0.88500  0.38300  0.41500  1.0000
  H   H5        1.0  0.11500  0.61700  0.58500  1.0000
  H   H6        1.0  0.25000  0.08460  0.74400  1.0000
  H   H7        1.0  0.25000  0.58500  0.75600  1.0000
  H   H8        1.0  0.38500  0.11700  0.91500  1.0000
  O   O1        1.0  0.45900  0.28000  0.05410  1.0000
  O   O2        1.0  0.03620  0.26100  0.09810  1.0000
  O   O3        1.0  0.71300  0.96900  0.14700  1.0000
  O   O4        1.0  0.21000  0.86200  0.17600  1.0000
  O   O5        1.0  0.29000  0.36200  0.32400  1.0000
  O   O6        1.0  0.78700  0.46900  0.35300  1.0000
  O   O7        1.0  0.46400  0.76100  0.40200  1.0000
  O   O8        1.0  0.04110  0.78000  0.44600  1.0000
  O   O9        1.0  0.95900  0.22000  0.55400  1.0000
  O   O10       1.0  0.53600  0.23900  0.59800  1.0000
  O   O11       1.0  0.21300  0.53100  0.64700  1.0000
  O   O12       1.0  0.71000  0.63800  0.67600  1.0000
  O   O13       1.0  0.79000  0.13800  0.82400  1.0000
  O   O14       1.0  0.28700  0.03060  0.85300  1.0000
  O   O15       1.0  0.96400  0.73900  0.90200  1.0000
  O   O16       1.0  0.54100  0.72000  0.94600  1.0000
  S   S1        1.0  0.25500  0.37400  0.13200  1.0000
  S   S2        1.0  0.24500  0.87400  0.36800  1.0000
  S   S3        1.0  0.75500  0.12600  0.63200  1.0000
  S   S4        1.0  0.74500  0.62600  0.86800  1.0000
  Zn  Zn1       1.0  0.00000  0.00000  0.00000  1.0000
  Zn  Zn2       1.0  0.50000  0.50000  0.50000  1.0000
