data_image0
_chemical_formula_structural       Ba8Mn6O20
_chemical_formula_sum              "Ba8 Mn6 O20"
_cell_length_a       5.69736
_cell_length_b       7.16316
_cell_length_c       12.7951
_cell_angle_alpha    90
_cell_angle_beta     90
_cell_angle_gamma    66.5665

_space_group_name_H-M_alt    "P 1"
_space_group_IT_number       1

loop_
  _space_group_symop_operation_xyz
  'x, y, z'

loop_
  _atom_site_type_symbol
  _atom_site_label
  _atom_site_symmetry_multiplicity
  _atom_site_fract_x
  _atom_site_fract_y
  _atom_site_fract_z
  _atom_site_occupancy
  Ba  Ba1       1.0  0.24200  0.51700  0.11100  1.0000
  Ba  Ba2       1.0  0.53600  0.92900  0.14200  1.0000
  Ba  Ba3       1.0  0.03570  0.92900  0.35800  1.0000
  Ba  Ba4       1.0  0.74200  0.51700  0.38900  1.0000
  Ba  Ba5       1.0  0.25800  0.48300  0.61100  1.0000
  Ba  Ba6       1.0  0.96400  0.07150  0.64200  1.0000
  Ba  Ba7       1.0  0.46400  0.07150  0.85800  1.0000
  Ba  Ba8       1.0  0.75800  0.48300  0.88900  1.0000
  Mn  Mn1       1.0  0.00000  0.00000  0.00000  1.0000
  Mn  Mn2       1.0  0.87200  0.25500  0.15200  1.0000
  Mn  Mn3       1.0  0.37200  0.25500  0.34800  1.0000
  Mn  Mn4       1.0  0.50000  0.00000  0.50000  1.0000
  Mn  Mn5       1.0  0.62800  0.74500  0.65200  1.0000
  Mn  Mn6       1.0  0.12800  0.74500  0.84800  1.0000
  O   O1        1.0  0.11700  0.20900  0.03690  1.0000
  O   O2        1.0  0.67400  0.20900  0.03690  1.0000
  O   O3        1.0  0.03340  0.93300  0.14500  1.0000
  O   O4        1.0  0.73400  0.53200  0.14800  1.0000
  O   O5        1.0  0.13300  0.23300  0.25000  1.0000
  O   O6        1.0  0.63300  0.23300  0.25000  1.0000
  O   O7        1.0  0.23400  0.53200  0.35200  1.0000
  O   O8        1.0  0.53300  0.93300  0.35500  1.0000
  O   O9        1.0  0.17400  0.20900  0.46300  1.0000
  O   O10       1.0  0.61700  0.20900  0.46300  1.0000
  O   O11       1.0  0.38300  0.79100  0.53700  1.0000
  O   O12       1.0  0.82600  0.79100  0.53700  1.0000
  O   O13       1.0  0.46700  0.06680  0.64500  1.0000
  O   O14       1.0  0.76600  0.46800  0.64800  1.0000
  O   O15       1.0  0.36700  0.76700  0.75000  1.0000
  O   O16       1.0  0.86700  0.76700  0.75000  1.0000
  O   O17       1.0  0.26600  0.46800  0.85200  1.0000
  O   O18       1.0  0.96700  0.06680  0.85500  1.0000
  O   O19       1.0  0.32600  0.79100  0.96300  1.0000
  O   O20       1.0  0.88300  0.79100  0.96300  1.0000
