data_image0
_chemical_formula_structural       Np2O5Tc2
_chemical_formula_sum              "Np2 O5 Tc2"
_cell_length_a       6.92557
_cell_length_b       4.0173
_cell_length_c       4.0173
_cell_angle_alpha    90
_cell_angle_beta     90
_cell_angle_gamma    90

_space_group_name_H-M_alt    "P 1"
_space_group_IT_number       1

loop_
  _space_group_symop_operation_xyz
  'x, y, z'

loop_
  _atom_site_type_symbol
  _atom_site_label
  _atom_site_symmetry_multiplicity
  _atom_site_fract_x
  _atom_site_fract_y
  _atom_site_fract_z
  _atom_site_occupancy
  Np  Np1       1.0  0.00000  0.00000  0.00000  1.0000
  Np  Np2       1.0  0.50000  0.00000  0.00000  1.0000
  O   O1        1.0  0.23400  0.50000  0.00000  1.0000
  O   O2        1.0  0.76600  0.50000  0.00000  1.0000
  O   O3        1.0  0.23400  0.00000  0.50000  1.0000
  O   O4        1.0  0.76600  0.00000  0.50000  1.0000
  O   O5        1.0  0.50000  0.50000  0.50000  1.0000
  Tc  Tc1       1.0  0.17700  0.50000  0.50000  1.0000
  Tc  Tc2       1.0  0.82300  0.50000  0.50000  1.0000
