data_image0
_chemical_formula_structural       Ag4Nb8O22
_chemical_formula_sum              "Ag4 Nb8 O22"
_cell_length_a       12.8691
_cell_length_b       12.8691
_cell_length_c       12.8691
_cell_angle_alpha    27.7331
_cell_angle_beta     27.7331
_cell_angle_gamma    27.7331

_space_group_name_H-M_alt    "P 1"
_space_group_IT_number       1

loop_
  _space_group_symop_operation_xyz
  'x, y, z'

loop_
  _atom_site_type_symbol
  _atom_site_label
  _atom_site_symmetry_multiplicity
  _atom_site_fract_x
  _atom_site_fract_y
  _atom_site_fract_z
  _atom_site_occupancy
  Ag  Ag1       1.0  0.32700  0.32700  0.32700  1.0000
  Ag  Ag2       1.0  0.17300  0.17300  0.17300  1.0000
  Ag  Ag3       1.0  0.67300  0.67300  0.67300  1.0000
  Ag  Ag4       1.0  0.82700  0.82700  0.82700  1.0000
  Nb  Nb1       1.0  0.00000  0.00000  0.00000  1.0000
  Nb  Nb2       1.0  0.50000  0.50000  0.50000  1.0000
  Nb  Nb3       1.0  0.62100  0.87900  0.25000  1.0000
  Nb  Nb4       1.0  0.25000  0.62100  0.87900  1.0000
  Nb  Nb5       1.0  0.87900  0.25000  0.62100  1.0000
  Nb  Nb6       1.0  0.37900  0.12100  0.75000  1.0000
  Nb  Nb7       1.0  0.75000  0.37900  0.12100  1.0000
  Nb  Nb8       1.0  0.12100  0.75000  0.37900  1.0000
  O   O1        1.0  0.40300  0.40300  0.40300  1.0000
  O   O2        1.0  0.09720  0.09720  0.09720  1.0000
  O   O3        1.0  0.59700  0.59700  0.59700  1.0000
  O   O4        1.0  0.90300  0.90300  0.90300  1.0000
  O   O5        1.0  0.99200  0.50800  0.25000  1.0000
  O   O6        1.0  0.25000  0.99200  0.50800  1.0000
  O   O7        1.0  0.50800  0.25000  0.99200  1.0000
  O   O8        1.0  0.00799  0.49200  0.75000  1.0000
  O   O9        1.0  0.75000  0.00799  0.49200  1.0000
  O   O10       1.0  0.49200  0.75000  0.00799  1.0000
  O   O11       1.0  0.25700  0.54600  0.78900  1.0000
  O   O12       1.0  0.78900  0.25700  0.54600  1.0000
  O   O13       1.0  0.54600  0.78900  0.25700  1.0000
  O   O14       1.0  0.95400  0.24300  0.71100  1.0000
  O   O15       1.0  0.24300  0.71100  0.95400  1.0000
  O   O16       1.0  0.71100  0.95400  0.24300  1.0000
  O   O17       1.0  0.74300  0.45400  0.21100  1.0000
  O   O18       1.0  0.21100  0.74300  0.45400  1.0000
  O   O19       1.0  0.45400  0.21100  0.74300  1.0000
  O   O20       1.0  0.04610  0.75700  0.28900  1.0000
  O   O21       1.0  0.75700  0.28900  0.04610  1.0000
  O   O22       1.0  0.28900  0.04610  0.75700  1.0000
