data_image0
_chemical_formula_structural       Bi4Cl16Te14
_chemical_formula_sum              "Bi4 Cl16 Te14"
_cell_length_a       5.54451
_cell_length_b       13.4296
_cell_length_c       15.1896
_cell_angle_alpha    103.036
_cell_angle_beta     95.1776
_cell_angle_gamma    96.4888

_space_group_name_H-M_alt    "P 1"
_space_group_IT_number       1

loop_
  _space_group_symop_operation_xyz
  'x, y, z'

loop_
  _atom_site_type_symbol
  _atom_site_label
  _atom_site_symmetry_multiplicity
  _atom_site_fract_x
  _atom_site_fract_y
  _atom_site_fract_z
  _atom_site_occupancy
  Bi  Bi1       1.0  0.79500  0.25900  0.27500  1.0000
  Bi  Bi2       1.0  0.91100  0.59200  0.38900  1.0000
  Bi  Bi3       1.0  0.08920  0.40800  0.61100  1.0000
  Bi  Bi4       1.0  0.20500  0.74100  0.72500  1.0000
  Cl  Cl1       1.0  0.80000  0.15100  0.10900  1.0000
  Cl  Cl2       1.0  0.90300  0.45100  0.22200  1.0000
  Cl  Cl3       1.0  0.35100  0.27500  0.22900  1.0000
  Cl  Cl4       1.0  0.64500  0.07930  0.31000  1.0000
  Cl  Cl5       1.0  0.00775  0.75900  0.31100  1.0000
  Cl  Cl6       1.0  0.46800  0.60400  0.32900  1.0000
  Cl  Cl7       1.0  0.72300  0.42300  0.44300  1.0000
  Cl  Cl8       1.0  0.15500  0.26200  0.46300  1.0000
  Cl  Cl9       1.0  0.84500  0.73800  0.53700  1.0000
  Cl  Cl10      1.0  0.27700  0.57700  0.55700  1.0000
  Cl  Cl11      1.0  0.53200  0.39600  0.67100  1.0000
  Cl  Cl12      1.0  0.99200  0.24100  0.68900  1.0000
  Cl  Cl13      1.0  0.35500  0.92100  0.69000  1.0000
  Cl  Cl14      1.0  0.64900  0.72500  0.77100  1.0000
  Cl  Cl15      1.0  0.09670  0.54900  0.77800  1.0000
  Cl  Cl16      1.0  0.20000  0.84900  0.89100  1.0000
  Te  Te1       1.0  0.77600  0.83800  0.03370  1.0000
  Te  Te2       1.0  0.05730  0.65100  0.04660  1.0000
  Te  Te3       1.0  0.35600  0.49100  0.07050  1.0000
  Te  Te4       1.0  0.16900  0.95900  0.15100  1.0000
  Te  Te5       1.0  0.46800  0.80900  0.16800  1.0000
  Te  Te6       1.0  0.18600  0.01760  0.43500  1.0000
  Te  Te7       1.0  0.44300  0.85200  0.43600  1.0000
  Te  Te8       1.0  0.55700  0.14800  0.56400  1.0000
  Te  Te9       1.0  0.81400  0.98200  0.56500  1.0000
  Te  Te10      1.0  0.53200  0.19100  0.83200  1.0000
  Te  Te11      1.0  0.83100  0.04140  0.84900  1.0000
  Te  Te12      1.0  0.64400  0.50900  0.93000  1.0000
  Te  Te13      1.0  0.94300  0.34900  0.95300  1.0000
  Te  Te14      1.0  0.22400  0.16200  0.96600  1.0000
