data_image0
_chemical_formula_structural       Al10MnO20Pb3
_chemical_formula_sum              "Al10 Mn1 O20 Pb3"
_cell_length_a       4.95753
_cell_length_b       9.49062
_cell_length_c       9.49062
_cell_angle_alpha    106.796
_cell_angle_beta     75.0163
_cell_angle_gamma    104.984

_space_group_name_H-M_alt    "P 1"
_space_group_IT_number       1

loop_
  _space_group_symop_operation_xyz
  'x, y, z'

loop_
  _atom_site_type_symbol
  _atom_site_label
  _atom_site_symmetry_multiplicity
  _atom_site_fract_x
  _atom_site_fract_y
  _atom_site_fract_z
  _atom_site_occupancy
  Al  Al1       1.0  0.34100  0.71900  0.00565  1.0000
  Al  Al2       1.0  0.17000  0.42400  0.15200  1.0000
  Al  Al3       1.0  0.34100  0.99400  0.28100  1.0000
  Al  Al4       1.0  0.50000  0.36600  0.36600  1.0000
  Al  Al5       1.0  0.83000  0.15200  0.42400  1.0000
  Al  Al6       1.0  0.17000  0.84800  0.57600  1.0000
  Al  Al7       1.0  0.50000  0.63400  0.63400  1.0000
  Al  Al8       1.0  0.65900  0.00565  0.71900  1.0000
  Al  Al9       1.0  0.83000  0.57600  0.84800  1.0000
  Al  Al10      1.0  0.65900  0.28100  0.99400  1.0000
  Mn  Mn1       1.0  0.00000  0.50000  0.50000  1.0000
  O   O1        1.0  0.00631  0.28800  0.01210  1.0000
  O   O2        1.0  0.48200  0.90100  0.09870  1.0000
  O   O3        1.0  0.33700  0.60100  0.11900  1.0000
  O   O4        1.0  0.43600  0.33900  0.17200  1.0000
  O   O5        1.0  0.99400  0.01210  0.28800  1.0000
  O   O6        1.0  0.89000  0.45000  0.31000  1.0000
  O   O7        1.0  0.56400  0.17200  0.33900  1.0000
  O   O8        1.0  0.33700  0.88100  0.39900  1.0000
  O   O9        1.0  0.39600  0.56700  0.43300  1.0000
  O   O10       1.0  0.11000  0.31000  0.45000  1.0000
  O   O11       1.0  0.89000  0.69000  0.55000  1.0000
  O   O12       1.0  0.60400  0.43300  0.56700  1.0000
  O   O13       1.0  0.66300  0.11900  0.60100  1.0000
  O   O14       1.0  0.43600  0.82800  0.66100  1.0000
  O   O15       1.0  0.11000  0.55000  0.69000  1.0000
  O   O16       1.0  0.00631  0.98800  0.71200  1.0000
  O   O17       1.0  0.56400  0.66100  0.82800  1.0000
  O   O18       1.0  0.66300  0.39900  0.88100  1.0000
  O   O19       1.0  0.51800  0.09870  0.90100  1.0000
  O   O20       1.0  0.99400  0.71200  0.98800  1.0000
  Pb  Pb1       1.0  0.00000  0.00000  0.00000  1.0000
  Pb  Pb2       1.0  0.69100  0.72600  0.27400  1.0000
  Pb  Pb3       1.0  0.30900  0.27400  0.72600  1.0000
