data_image0
_chemical_formula_structural       Li8Mg4O11
_chemical_formula_sum              "Li8 Mg4 O11"
_cell_length_a       10.2423
_cell_length_b       5.13399
_cell_length_c       4.82621
_cell_angle_alpha    100.586
_cell_angle_beta     99.0523
_cell_angle_gamma    119.43

_space_group_name_H-M_alt    "P 1"
_space_group_IT_number       1

loop_
  _space_group_symop_operation_xyz
  'x, y, z'

loop_
  _atom_site_type_symbol
  _atom_site_label
  _atom_site_symmetry_multiplicity
  _atom_site_fract_x
  _atom_site_fract_y
  _atom_site_fract_z
  _atom_site_occupancy
  Li  Li1       1.0  0.74900  0.50500  0.00357  1.0000
  Li  Li2       1.0  0.49800  0.99700  0.49700  1.0000
  Li  Li3       1.0  0.82600  0.35100  0.50000  1.0000
  Li  Li4       1.0  0.67100  0.65600  0.50300  1.0000
  Li  Li5       1.0  0.17900  0.70200  0.51400  1.0000
  Li  Li6       1.0  0.98600  0.97100  0.51600  1.0000
  Li  Li7       1.0  0.34800  0.34100  0.51900  1.0000
  Li  Li8       1.0  0.25600  0.50900  0.96500  1.0000
  Mg  Mg1       1.0  0.41600  0.16200  0.00042  1.0000
  Mg  Mg2       1.0  0.58200  0.83300  0.00311  1.0000
  Mg  Mg3       1.0  0.08260  0.79700  0.97900  1.0000
  Mg  Mg4       1.0  0.90100  0.17100  0.98500  1.0000
  O   O1        1.0  0.28600  0.90600  0.23900  1.0000
  O   O2        1.0  0.62300  0.24800  0.24000  1.0000
  O   O3        1.0  0.44900  0.57000  0.24100  1.0000
  O   O4        1.0  0.79300  0.92700  0.25500  1.0000
  O   O5        1.0  0.96800  0.59100  0.25700  1.0000
  O   O6        1.0  0.04180  0.39700  0.73400  1.0000
  O   O7        1.0  0.37600  0.74800  0.73800  1.0000
  O   O8        1.0  0.70200  0.08170  0.74300  1.0000
  O   O9        1.0  0.54300  0.42000  0.75900  1.0000
  O   O10       1.0  0.20800  0.08970  0.76400  1.0000
  O   O11       1.0  0.89100  0.78200  0.80700  1.0000
