data_image0
_chemical_formula_structural       Li8Mn4O11
_chemical_formula_sum              "Li8 Mn4 O11"
_cell_length_a       9.96535
_cell_length_b       4.9723
_cell_length_c       4.99791
_cell_angle_alpha    99.7353
_cell_angle_beta     100.026
_cell_angle_gamma    119.882

_space_group_name_H-M_alt    "P 1"
_space_group_IT_number       1

loop_
  _space_group_symop_operation_xyz
  'x, y, z'

loop_
  _atom_site_type_symbol
  _atom_site_label
  _atom_site_symmetry_multiplicity
  _atom_site_fract_x
  _atom_site_fract_y
  _atom_site_fract_z
  _atom_site_occupancy
  Li  Li1       1.0  0.99700  0.99800  0.49200  1.0000
  Li  Li2       1.0  0.83100  0.33200  0.49600  1.0000
  Li  Li3       1.0  0.17200  0.65700  0.49800  1.0000
  Li  Li4       1.0  0.69200  0.67000  0.51000  1.0000
  Li  Li5       1.0  0.31300  0.30700  0.52900  1.0000
  Li  Li6       1.0  0.50700  0.04470  0.52900  1.0000
  Li  Li7       1.0  0.23500  0.49300  0.97800  1.0000
  Li  Li8       1.0  0.75100  0.50200  0.99900  1.0000
  Mn  Mn1       1.0  0.08310  0.83700  0.00325  1.0000
  Mn  Mn2       1.0  0.58600  0.84000  0.98600  1.0000
  Mn  Mn3       1.0  0.91600  0.17100  0.99400  1.0000
  Mn  Mn4       1.0  0.41200  0.14800  0.00000  1.0000
  O   O1        1.0  0.78900  0.93400  0.22000  1.0000
  O   O2        1.0  0.96500  0.57800  0.22500  1.0000
  O   O3        1.0  0.11300  0.22700  0.23100  1.0000
  O   O4        1.0  0.28800  0.93300  0.23800  1.0000
  O   O5        1.0  0.60800  0.22100  0.23900  1.0000
  O   O6        1.0  0.72100  0.08090  0.74500  1.0000
  O   O7        1.0  0.38400  0.74000  0.74900  1.0000
  O   O8        1.0  0.89200  0.78400  0.77000  1.0000
  O   O9        1.0  0.03660  0.43200  0.77300  1.0000
  O   O10       1.0  0.21100  0.07560  0.78400  1.0000
  O   O11       1.0  0.53200  0.42000  0.78500  1.0000
