data_image0
_chemical_formula_structural       Hg10O20Re4
_chemical_formula_sum              "Hg10 O20 Re4"
_cell_length_a       6.44371
_cell_length_b       7.97588
_cell_length_c       11.6712
_cell_angle_alpha    90
_cell_angle_beta     90
_cell_angle_gamma    98.3767

_space_group_name_H-M_alt    "P 1"
_space_group_IT_number       1

loop_
  _space_group_symop_operation_xyz
  'x, y, z'

loop_
  _atom_site_type_symbol
  _atom_site_label
  _atom_site_symmetry_multiplicity
  _atom_site_fract_x
  _atom_site_fract_y
  _atom_site_fract_z
  _atom_site_occupancy
  Hg  Hg1       1.0  0.50000  0.50000  0.00000  1.0000
  Hg  Hg2       1.0  0.00114  0.30400  0.08630  1.0000
  Hg  Hg3       1.0  0.87700  0.66900  0.22000  1.0000
  Hg  Hg4       1.0  0.87700  0.16900  0.28000  1.0000
  Hg  Hg5       1.0  0.00114  0.80400  0.41400  1.0000
  Hg  Hg6       1.0  0.50000  0.00000  0.50000  1.0000
  Hg  Hg7       1.0  0.99900  0.19600  0.58600  1.0000
  Hg  Hg8       1.0  0.12300  0.83100  0.72000  1.0000
  Hg  Hg9       1.0  0.12300  0.33100  0.78000  1.0000
  Hg  Hg10      1.0  0.99900  0.69600  0.91400  1.0000
  O   O1        1.0  0.80900  0.55800  0.05170  1.0000
  O   O2        1.0  0.45800  0.17100  0.07720  1.0000
  O   O3        1.0  0.17600  0.85600  0.08960  1.0000
  O   O4        1.0  0.60300  0.88100  0.17600  1.0000
  O   O5        1.0  0.30000  0.54100  0.20600  1.0000
  O   O6        1.0  0.30000  0.04060  0.29400  1.0000
  O   O7        1.0  0.60300  0.38100  0.32400  1.0000
  O   O8        1.0  0.17600  0.35600  0.41000  1.0000
  O   O9        1.0  0.45800  0.67100  0.42300  1.0000
  O   O10       1.0  0.80900  0.05800  0.44800  1.0000
  O   O11       1.0  0.19100  0.94200  0.55200  1.0000
  O   O12       1.0  0.54200  0.32900  0.57700  1.0000
  O   O13       1.0  0.82400  0.64400  0.59000  1.0000
  O   O14       1.0  0.39700  0.61900  0.67600  1.0000
  O   O15       1.0  0.70000  0.95900  0.70600  1.0000
  O   O16       1.0  0.70000  0.45900  0.79400  1.0000
  O   O17       1.0  0.39700  0.11900  0.82400  1.0000
  O   O18       1.0  0.82400  0.14400  0.91000  1.0000
  O   O19       1.0  0.54200  0.82900  0.92300  1.0000
  O   O20       1.0  0.19100  0.44200  0.94800  1.0000
  Re  Re1       1.0  0.38500  0.98600  0.15700  1.0000
  Re  Re2       1.0  0.38500  0.48600  0.34300  1.0000
  Re  Re3       1.0  0.61500  0.51400  0.65700  1.0000
  Re  Re4       1.0  0.61500  0.01430  0.84300  1.0000
