data_image0
_chemical_formula_structural       Ag8Ca19N7
_chemical_formula_sum              "Ag8 Ca19 N7"
_cell_length_a       10.4306
_cell_length_b       10.4306
_cell_length_c       10.4306
_cell_angle_alpha    120
_cell_angle_beta     90
_cell_angle_gamma    120

_space_group_name_H-M_alt    "P 1"
_space_group_IT_number       1

loop_
  _space_group_symop_operation_xyz
  'x, y, z'

loop_
  _atom_site_type_symbol
  _atom_site_label
  _atom_site_symmetry_multiplicity
  _atom_site_fract_x
  _atom_site_fract_y
  _atom_site_fract_z
  _atom_site_occupancy
  Ag  Ag1       1.0  0.52800  0.35200  0.17600  1.0000
  Ag  Ag2       1.0  0.82400  0.35200  0.17600  1.0000
  Ag  Ag3       1.0  0.82400  0.64800  0.17600  1.0000
  Ag  Ag4       1.0  0.82400  0.64800  0.47200  1.0000
  Ag  Ag5       1.0  0.17600  0.35200  0.52800  1.0000
  Ag  Ag6       1.0  0.17600  0.35200  0.82400  1.0000
  Ag  Ag7       1.0  0.17600  0.64800  0.82400  1.0000
  Ag  Ag8       1.0  0.47200  0.64800  0.82400  1.0000
  Ca  Ca1       1.0  0.16500  0.00000  0.16500  1.0000
  Ca  Ca2       1.0  0.16500  0.33000  0.16500  1.0000
  Ca  Ca3       1.0  0.83500  0.00000  0.16500  1.0000
  Ca  Ca4       1.0  0.50000  0.00000  0.17300  1.0000
  Ca  Ca5       1.0  0.17300  0.67300  0.17300  1.0000
  Ca  Ca6       1.0  0.50000  0.67300  0.17300  1.0000
  Ca  Ca7       1.0  0.17300  0.00000  0.50000  1.0000
  Ca  Ca8       1.0  0.50000  0.00000  0.50000  1.0000
  Ca  Ca9       1.0  0.50000  0.32700  0.50000  1.0000
  Ca  Ca10      1.0  0.82700  0.32700  0.50000  1.0000
  Ca  Ca11      1.0  0.17300  0.67300  0.50000  1.0000
  Ca  Ca12      1.0  0.50000  0.67300  0.50000  1.0000
  Ca  Ca13      1.0  0.82700  0.00000  0.50000  1.0000
  Ca  Ca14      1.0  0.50000  0.32700  0.82700  1.0000
  Ca  Ca15      1.0  0.50000  0.00000  0.82700  1.0000
  Ca  Ca16      1.0  0.82700  0.32700  0.82700  1.0000
  Ca  Ca17      1.0  0.16500  0.00000  0.83500  1.0000
  Ca  Ca18      1.0  0.83500  0.67000  0.83500  1.0000
  Ca  Ca19      1.0  0.83500  0.00000  0.83500  1.0000
  N   N1        1.0  0.00000  0.00000  0.00000  1.0000
  N   N2        1.0  0.67400  0.00000  0.32600  1.0000
  N   N3        1.0  0.32600  0.00000  0.32600  1.0000
  N   N4        1.0  0.32600  0.65200  0.32600  1.0000
  N   N5        1.0  0.32600  0.00000  0.67400  1.0000
  N   N6        1.0  0.67400  0.00000  0.67400  1.0000
  N   N7        1.0  0.67400  0.34800  0.67400  1.0000
