data_image0
_chemical_formula_structural       LiMo3O8Y
_chemical_formula_sum              "Li1 Mo3 O8 Y1"
_cell_length_a       5.80115
_cell_length_b       5.8011
_cell_length_c       5.15454
_cell_angle_alpha    90
_cell_angle_beta     90.0015
_cell_angle_gamma    120

_space_group_name_H-M_alt    "P 1"
_space_group_IT_number       1

loop_
  _space_group_symop_operation_xyz
  'x, y, z'

loop_
  _atom_site_type_symbol
  _atom_site_label
  _atom_site_symmetry_multiplicity
  _atom_site_fract_x
  _atom_site_fract_y
  _atom_site_fract_z
  _atom_site_occupancy
  Li  Li1       1.0  0.66700  0.33300  0.69600  1.0000
  Mo  Mo1       1.0  0.85300  0.70700  0.25400  1.0000
  Mo  Mo2       1.0  0.85300  0.14700  0.25400  1.0000
  Mo  Mo3       1.0  0.29300  0.14700  0.25400  1.0000
  O   O1        1.0  0.67200  0.83600  0.02080  1.0000
  O   O2        1.0  0.16400  0.83600  0.02090  1.0000
  O   O3        1.0  0.16400  0.32800  0.02090  1.0000
  O   O4        1.0  0.66700  0.33300  0.05450  1.0000
  O   O5        1.0  0.51100  0.48900  0.47200  1.0000
  O   O6        1.0  0.51100  0.02180  0.47200  1.0000
  O   O7        1.0  0.97800  0.48900  0.47200  1.0000
  O   O8        1.0  0.00001  0.00000  0.53400  1.0000
  Y   Y1        1.0  0.33300  0.66700  0.72800  1.0000
