data_image0
_chemical_formula_structural       Ir4Li8O11
_chemical_formula_sum              "Ir4 Li8 O11"
_cell_length_a       10.177
_cell_length_b       5.01823
_cell_length_c       5.08248
_cell_angle_alpha    99.5522
_cell_angle_beta     99.8172
_cell_angle_gamma    119.272

_space_group_name_H-M_alt    "P 1"
_space_group_IT_number       1

loop_
  _space_group_symop_operation_xyz
  'x, y, z'

loop_
  _atom_site_type_symbol
  _atom_site_label
  _atom_site_symmetry_multiplicity
  _atom_site_fract_x
  _atom_site_fract_y
  _atom_site_fract_z
  _atom_site_occupancy
  Ir  Ir1       1.0  0.07720  0.85600  0.00123  1.0000
  Ir  Ir2       1.0  0.42400  0.21200  0.00785  1.0000
  Ir  Ir3       1.0  0.57100  0.79100  0.01250  1.0000
  Ir  Ir4       1.0  0.92200  0.15000  0.99900  1.0000
  Li  Li1       1.0  0.82900  0.31900  0.49200  1.0000
  Li  Li2       1.0  0.67500  0.65100  0.49400  1.0000
  Li  Li3       1.0  0.99700  0.99500  0.49400  1.0000
  Li  Li4       1.0  0.17200  0.67800  0.51300  1.0000
  Li  Li5       1.0  0.32400  0.33400  0.51300  1.0000
  Li  Li6       1.0  0.51000  0.01540  0.52300  1.0000
  Li  Li7       1.0  0.24800  0.52000  0.98800  1.0000
  Li  Li8       1.0  0.74800  0.47800  0.98900  1.0000
  O   O1        1.0  0.95700  0.55800  0.22500  1.0000
  O   O2        1.0  0.28700  0.95400  0.22500  1.0000
  O   O3        1.0  0.60900  0.20500  0.23300  1.0000
  O   O4        1.0  0.78800  0.89900  0.23600  1.0000
  O   O5        1.0  0.13500  0.28000  0.25900  1.0000
  O   O6        1.0  0.87100  0.73300  0.73500  1.0000
  O   O7        1.0  0.54200  0.41100  0.74000  1.0000
  O   O8        1.0  0.38300  0.76000  0.76500  1.0000
  O   O9        1.0  0.21200  0.10700  0.76700  1.0000
  O   O10       1.0  0.71700  0.06540  0.77200  1.0000
  O   O11       1.0  0.04300  0.44800  0.77600  1.0000
