data_image0
_chemical_formula_structural       Hf4Li8O11
_chemical_formula_sum              "Hf4 Li8 O11"
_cell_length_a       10.7065
_cell_length_b       5.31228
_cell_length_c       5.19949
_cell_angle_alpha    99.8612
_cell_angle_beta     100.288
_cell_angle_gamma    119.951

_space_group_name_H-M_alt    "P 1"
_space_group_IT_number       1

loop_
  _space_group_symop_operation_xyz
  'x, y, z'

loop_
  _atom_site_type_symbol
  _atom_site_label
  _atom_site_symmetry_multiplicity
  _atom_site_fract_x
  _atom_site_fract_y
  _atom_site_fract_z
  _atom_site_occupancy
  Hf  Hf1       1.0  0.08430  0.83600  0.00078  1.0000
  Hf  Hf2       1.0  0.41600  0.16500  0.00243  1.0000
  Hf  Hf3       1.0  0.58200  0.82700  0.99100  1.0000
  Hf  Hf4       1.0  0.91500  0.16800  0.99900  1.0000
  Li  Li1       1.0  0.99700  0.99800  0.49600  1.0000
  Li  Li2       1.0  0.67700  0.65600  0.49700  1.0000
  Li  Li3       1.0  0.82500  0.33600  0.49800  1.0000
  Li  Li4       1.0  0.17200  0.65000  0.50100  1.0000
  Li  Li5       1.0  0.50300  0.02460  0.51100  1.0000
  Li  Li6       1.0  0.31900  0.33300  0.51300  1.0000
  Li  Li7       1.0  0.24300  0.49500  0.99500  1.0000
  Li  Li8       1.0  0.74900  0.50200  1.00000  1.0000
  O   O1        1.0  0.79000  0.92800  0.23200  1.0000
  O   O2        1.0  0.96500  0.58200  0.23300  1.0000
  O   O3        1.0  0.29200  0.94400  0.24100  1.0000
  O   O4        1.0  0.61200  0.21500  0.24100  1.0000
  O   O5        1.0  0.11400  0.23100  0.24100  1.0000
  O   O6        1.0  0.38800  0.76900  0.75500  1.0000
  O   O7        1.0  0.88700  0.77300  0.75800  1.0000
  O   O8        1.0  0.71300  0.06860  0.75900  1.0000
  O   O9        1.0  0.53700  0.41400  0.76400  1.0000
  O   O10       1.0  0.03960  0.42600  0.76900  1.0000
  O   O11       1.0  0.21400  0.07800  0.77000  1.0000
