data_image0
_chemical_formula_structural       CrF8H2Na2
_chemical_formula_sum              "Cr1 F8 H2 Na2"
_cell_length_a       5.18971
_cell_length_b       5.19837
_cell_length_c       5.19837
_cell_angle_alpha    93.2613
_cell_angle_beta     107.02
_cell_angle_gamma    107.02

_space_group_name_H-M_alt    "P 1"
_space_group_IT_number       1

loop_
  _space_group_symop_operation_xyz
  'x, y, z'

loop_
  _atom_site_type_symbol
  _atom_site_label
  _atom_site_symmetry_multiplicity
  _atom_site_fract_x
  _atom_site_fract_y
  _atom_site_fract_z
  _atom_site_occupancy
  Cr  Cr1       1.0  0.00000  0.00000  0.00000  1.0000
  F   F1        1.0  0.77200  0.66300  0.00256  1.0000
  F   F2        1.0  0.77000  0.14500  0.14500  1.0000
  F   F3        1.0  0.22800  0.99700  0.33700  1.0000
  F   F4        1.0  0.73900  0.46900  0.46900  1.0000
  F   F5        1.0  0.26100  0.53100  0.53100  1.0000
  F   F6        1.0  0.77200  0.00256  0.66300  1.0000
  F   F7        1.0  0.23000  0.85500  0.85500  1.0000
  F   F8        1.0  0.22800  0.33700  0.99700  1.0000
  H   H1        1.0  0.78400  0.34800  0.34800  1.0000
  H   H2        1.0  0.21600  0.65200  0.65200  1.0000
  Na  Na1       1.0  0.50000  0.73800  0.26200  1.0000
  Na  Na2       1.0  0.50000  0.26200  0.73800  1.0000
