data_image0
_chemical_formula_structural       F26Rb2Th6
_chemical_formula_sum              "F26 Rb2 Th6"
_cell_length_a       8.53994
_cell_length_b       8.03655
_cell_length_c       7.31469
_cell_angle_alpha    90
_cell_angle_beta     90
_cell_angle_gamma    90

_space_group_name_H-M_alt    "P 1"
_space_group_IT_number       1

loop_
  _space_group_symop_operation_xyz
  'x, y, z'

loop_
  _atom_site_type_symbol
  _atom_site_label
  _atom_site_symmetry_multiplicity
  _atom_site_fract_x
  _atom_site_fract_y
  _atom_site_fract_z
  _atom_site_occupancy
  F   F1        1.0  0.73500  0.00000  0.03060  1.0000
  F   F2        1.0  0.45900  0.20000  0.11300  1.0000
  F   F3        1.0  0.45900  0.80000  0.11300  1.0000
  F   F4        1.0  0.13900  0.26300  0.17600  1.0000
  F   F5        1.0  0.13900  0.73700  0.17600  1.0000
  F   F6        1.0  0.37000  0.50000  0.22200  1.0000
  F   F7        1.0  0.85700  0.17700  0.29900  1.0000
  F   F8        1.0  0.85700  0.82300  0.29900  1.0000
  F   F9        1.0  0.18000  0.00000  0.36600  1.0000
  F   F10       1.0  0.46500  0.00000  0.40200  1.0000
  F   F11       1.0  0.85600  0.50000  0.42900  1.0000
  F   F12       1.0  0.59900  0.31100  0.44900  1.0000
  F   F13       1.0  0.59900  0.68900  0.44900  1.0000
  F   F14       1.0  0.09850  0.31100  0.55100  1.0000
  F   F15       1.0  0.09850  0.68900  0.55100  1.0000
  F   F16       1.0  0.35600  0.50000  0.57100  1.0000
  F   F17       1.0  0.96500  0.00000  0.59800  1.0000
  F   F18       1.0  0.68000  0.00000  0.63400  1.0000
  F   F19       1.0  0.35700  0.17700  0.70100  1.0000
  F   F20       1.0  0.35700  0.82300  0.70100  1.0000
  F   F21       1.0  0.87000  0.50000  0.77800  1.0000
  F   F22       1.0  0.63900  0.26300  0.82400  1.0000
  F   F23       1.0  0.63900  0.73700  0.82400  1.0000
  F   F24       1.0  0.95900  0.20000  0.88700  1.0000
  F   F25       1.0  0.95900  0.80000  0.88700  1.0000
  F   F26       1.0  0.23500  0.00000  0.96900  1.0000
  Rb  Rb1       1.0  0.69600  0.50000  0.10400  1.0000
  Rb  Rb2       1.0  0.19600  0.50000  0.89600  1.0000
  Th  Th1       1.0  0.99900  0.00000  0.11000  1.0000
  Th  Th2       1.0  0.33500  0.25500  0.39700  1.0000
  Th  Th3       1.0  0.33500  0.74500  0.39700  1.0000
  Th  Th4       1.0  0.83500  0.25500  0.60300  1.0000
  Th  Th5       1.0  0.83500  0.74500  0.60300  1.0000
  Th  Th6       1.0  0.49900  0.00000  0.89000  1.0000
