data_image0
_chemical_formula_structural       Li8Mo4O11
_chemical_formula_sum              "Li8 Mo4 O11"
_cell_length_a       9.90764
_cell_length_b       4.95064
_cell_length_c       5.1887
_cell_angle_alpha    99.3012
_cell_angle_beta     99.4586
_cell_angle_gamma    117.3

_space_group_name_H-M_alt    "P 1"
_space_group_IT_number       1

loop_
  _space_group_symop_operation_xyz
  'x, y, z'

loop_
  _atom_site_type_symbol
  _atom_site_label
  _atom_site_symmetry_multiplicity
  _atom_site_fract_x
  _atom_site_fract_y
  _atom_site_fract_z
  _atom_site_occupancy
  Li  Li1       1.0  0.49700  0.99500  0.49400  1.0000
  Li  Li2       1.0  0.98800  0.97300  0.49400  1.0000
  Li  Li3       1.0  0.33900  0.34600  0.49900  1.0000
  Li  Li4       1.0  0.67000  0.66800  0.50400  1.0000
  Li  Li5       1.0  0.82900  0.32600  0.51000  1.0000
  Li  Li6       1.0  0.16600  0.67300  0.51500  1.0000
  Li  Li7       1.0  0.24700  0.49300  0.97000  1.0000
  Li  Li8       1.0  0.75100  0.50000  0.00000  1.0000
  Mo  Mo1       1.0  0.94000  0.15300  0.01470  1.0000
  Mo  Mo2       1.0  0.07810  0.87000  0.01500  1.0000
  Mo  Mo3       1.0  0.57100  0.86100  0.99500  1.0000
  Mo  Mo4       1.0  0.43000  0.15300  0.99700  1.0000
  O   O1        1.0  0.46000  0.58300  0.22600  1.0000
  O   O2        1.0  0.79000  0.92800  0.22700  1.0000
  O   O3        1.0  0.28900  0.94000  0.23300  1.0000
  O   O4        1.0  0.97300  0.57700  0.23900  1.0000
  O   O5        1.0  0.63200  0.26900  0.26700  1.0000
  O   O6        1.0  0.36600  0.73700  0.72400  1.0000
  O   O7        1.0  0.87500  0.74100  0.74600  1.0000
  O   O8        1.0  0.03180  0.39300  0.76300  1.0000
  O   O9        1.0  0.69900  0.06590  0.76300  1.0000
  O   O10       1.0  0.53700  0.41900  0.76600  1.0000
  O   O11       1.0  0.20900  0.07380  0.77000  1.0000
