data_image0
_chemical_formula_structural       Li8O11Pb4
_chemical_formula_sum              "Li8 O11 Pb4"
_cell_length_a       11.1042
_cell_length_b       5.42397
_cell_length_c       5.33045
_cell_angle_alpha    101.008
_cell_angle_beta     99.1829
_cell_angle_gamma    119.95

_space_group_name_H-M_alt    "P 1"
_space_group_IT_number       1

loop_
  _space_group_symop_operation_xyz
  'x, y, z'

loop_
  _atom_site_type_symbol
  _atom_site_label
  _atom_site_symmetry_multiplicity
  _atom_site_fract_x
  _atom_site_fract_y
  _atom_site_fract_z
  _atom_site_occupancy
  Li  Li1       1.0  0.77300  0.51100  0.03050  1.0000
  Li  Li2       1.0  0.19100  0.68400  0.49600  1.0000
  Li  Li3       1.0  0.70100  0.64700  0.49900  1.0000
  Li  Li4       1.0  0.81500  0.29300  0.50800  1.0000
  Li  Li5       1.0  0.01130  0.00077  0.51300  1.0000
  Li  Li6       1.0  0.30300  0.28100  0.51800  1.0000
  Li  Li7       1.0  0.51600  0.07420  0.54100  1.0000
  Li  Li8       1.0  0.22800  0.49700  0.94500  1.0000
  O   O1        1.0  0.77300  0.87500  0.22600  1.0000
  O   O2        1.0  0.28000  0.89400  0.23900  1.0000
  O   O3        1.0  0.96500  0.59300  0.25400  1.0000
  O   O4        1.0  0.12100  0.24000  0.26200  1.0000
  O   O5        1.0  0.62400  0.20000  0.26300  1.0000
  O   O6        1.0  0.52100  0.44500  0.63000  1.0000
  O   O7        1.0  0.02860  0.39300  0.74600  1.0000
  O   O8        1.0  0.87900  0.75400  0.75600  1.0000
  O   O9        1.0  0.20300  0.09330  0.76000  1.0000
  O   O10       1.0  0.38000  0.79500  0.76800  1.0000
  O   O11       1.0  0.71800  0.11500  0.77000  1.0000
  Pb  Pb1       1.0  0.91700  0.16600  0.02010  1.0000
  Pb  Pb2       1.0  0.42900  0.22200  0.06550  1.0000
  Pb  Pb3       1.0  0.57700  0.81600  0.95300  1.0000
  Pb  Pb4       1.0  0.08340  0.82900  0.98700  1.0000
