data_image0
_chemical_formula_structural       B16C8Sc8
_chemical_formula_sum              "B16 C8 Sc8"
_cell_length_a       6.64006
_cell_length_b       6.64006
_cell_length_c       6.77274
_cell_angle_alpha    90
_cell_angle_beta     90
_cell_angle_gamma    90

_space_group_name_H-M_alt    "P 1"
_space_group_IT_number       1

loop_
  _space_group_symop_operation_xyz
  'x, y, z'

loop_
  _atom_site_type_symbol
  _atom_site_label
  _atom_site_symmetry_multiplicity
  _atom_site_fract_x
  _atom_site_fract_y
  _atom_site_fract_z
  _atom_site_occupancy
  B   B1        1.0  0.15300  0.03350  0.00000  1.0000
  B   B2        1.0  0.40400  0.09220  0.00000  1.0000
  B   B3        1.0  0.90400  0.40800  0.00000  1.0000
  B   B4        1.0  0.65300  0.46700  0.00000  1.0000
  B   B5        1.0  0.34700  0.53300  0.00000  1.0000
  B   B6        1.0  0.09590  0.59200  0.00000  1.0000
  B   B7        1.0  0.59600  0.90800  0.00000  1.0000
  B   B8        1.0  0.84700  0.96700  0.00000  1.0000
  B   B9        1.0  0.40800  0.09590  0.50000  1.0000
  B   B10       1.0  0.96700  0.15300  0.50000  1.0000
  B   B11       1.0  0.46700  0.34700  0.50000  1.0000
  B   B12       1.0  0.90800  0.40400  0.50000  1.0000
  B   B13       1.0  0.09220  0.59600  0.50000  1.0000
  B   B14       1.0  0.53300  0.65300  0.50000  1.0000
  B   B15       1.0  0.03350  0.84700  0.50000  1.0000
  B   B16       1.0  0.59200  0.90400  0.50000  1.0000
  C   C1        1.0  0.96000  0.17900  0.00000  1.0000
  C   C2        1.0  0.46000  0.32100  0.00000  1.0000
  C   C3        1.0  0.54000  0.67900  0.00000  1.0000
  C   C4        1.0  0.04010  0.82100  0.00000  1.0000
  C   C5        1.0  0.17900  0.04010  0.50000  1.0000
  C   C6        1.0  0.67900  0.46000  0.50000  1.0000
  C   C7        1.0  0.32100  0.54000  0.50000  1.0000
  C   C8        1.0  0.82100  0.96000  0.50000  1.0000
  Sc  Sc1       1.0  0.69200  0.19200  0.25000  1.0000
  Sc  Sc2       1.0  0.19200  0.30800  0.25000  1.0000
  Sc  Sc3       1.0  0.80800  0.69200  0.25000  1.0000
  Sc  Sc4       1.0  0.30800  0.80800  0.25000  1.0000
  Sc  Sc5       1.0  0.69200  0.19200  0.75000  1.0000
  Sc  Sc6       1.0  0.19200  0.30800  0.75000  1.0000
  Sc  Sc7       1.0  0.80800  0.69200  0.75000  1.0000
  Sc  Sc8       1.0  0.30800  0.80800  0.75000  1.0000
