data_image0
_chemical_formula_structural       H8Mn4O16S4
_chemical_formula_sum              "H8 Mn4 O16 S4"
_cell_length_a       4.79154
_cell_length_b       11.7008
_cell_length_c       5.87116
_cell_angle_alpha    90
_cell_angle_beta     92.0489
_cell_angle_gamma    90

_space_group_name_H-M_alt    "P 1"
_space_group_IT_number       1

loop_
  _space_group_symop_operation_xyz
  'x, y, z'

loop_
  _atom_site_type_symbol
  _atom_site_label
  _atom_site_symmetry_multiplicity
  _atom_site_fract_x
  _atom_site_fract_y
  _atom_site_fract_z
  _atom_site_occupancy
  H   H1        1.0  0.89200  0.39600  0.07960  1.0000
  H   H2        1.0  0.48500  0.98300  0.23700  1.0000
  H   H3        1.0  0.01490  0.48300  0.26300  1.0000
  H   H4        1.0  0.60800  0.89600  0.42000  1.0000
  H   H5        1.0  0.39200  0.10400  0.58000  1.0000
  H   H6        1.0  0.98500  0.51700  0.73700  1.0000
  H   H7        1.0  0.51500  0.01730  0.76300  1.0000
  H   H8        1.0  0.10800  0.60400  0.92000  1.0000
  Mn  Mn1       1.0  0.36700  0.27800  0.20700  1.0000
  Mn  Mn2       1.0  0.13300  0.77800  0.29300  1.0000
  Mn  Mn3       1.0  0.86700  0.22200  0.70700  1.0000
  Mn  Mn4       1.0  0.63300  0.72200  0.79300  1.0000
  O   O1        1.0  0.06620  0.17100  0.01700  1.0000
  O   O2        1.0  0.41400  0.65700  0.07830  1.0000
  O   O3        1.0  0.04610  0.40700  0.19400  1.0000
  O   O4        1.0  0.63400  0.12400  0.20900  1.0000
  O   O5        1.0  0.86600  0.62400  0.29100  1.0000
  O   O6        1.0  0.45400  0.90700  0.30600  1.0000
  O   O7        1.0  0.08580  0.15700  0.42200  1.0000
  O   O8        1.0  0.43400  0.67100  0.48300  1.0000
  O   O9        1.0  0.56600  0.32900  0.51700  1.0000
  O   O10       1.0  0.91400  0.84300  0.57800  1.0000
  O   O11       1.0  0.54600  0.09320  0.69400  1.0000
  O   O12       1.0  0.13400  0.37600  0.70900  1.0000
  O   O13       1.0  0.36600  0.87600  0.79100  1.0000
  O   O14       1.0  0.95400  0.59300  0.80600  1.0000
  O   O15       1.0  0.58600  0.34300  0.92200  1.0000
  O   O16       1.0  0.93400  0.82900  0.98300  1.0000
  S   S1        1.0  0.94400  0.09510  0.20900  1.0000
  S   S2        1.0  0.55600  0.59500  0.29100  1.0000
  S   S3        1.0  0.44400  0.40500  0.70900  1.0000
  S   S4        1.0  0.05610  0.90500  0.79100  1.0000
