data_image0
_chemical_formula_structural       Au2F24P4Sb2
_chemical_formula_sum              "Au2 F24 P4 Sb2"
_cell_length_a       7.7087
_cell_length_b       7.60914
_cell_length_c       8.23736
_cell_angle_alpha    87.5318
_cell_angle_beta     89.8131
_cell_angle_gamma    118.844

_space_group_name_H-M_alt    "P 1"
_space_group_IT_number       1

loop_
  _space_group_symop_operation_xyz
  'x, y, z'

loop_
  _atom_site_type_symbol
  _atom_site_label
  _atom_site_symmetry_multiplicity
  _atom_site_fract_x
  _atom_site_fract_y
  _atom_site_fract_z
  _atom_site_occupancy
  Au  Au1       1.0  0.50000  0.50000  0.00000  1.0000
  Au  Au2       1.0  0.00000  0.00000  0.50000  1.0000
  F   F1        1.0  0.27000  0.08630  0.04410  1.0000
  F   F2        1.0  0.75400  0.29900  0.09600  1.0000
  F   F3        1.0  0.93800  0.75400  0.12100  1.0000
  F   F4        1.0  0.42500  0.83400  0.14100  1.0000
  F   F5        1.0  0.96400  0.12300  0.18600  1.0000
  F   F6        1.0  0.93700  0.38900  0.35200  1.0000
  F   F7        1.0  0.28800  0.44700  0.35500  1.0000
  F   F8        1.0  0.23500  0.08400  0.35500  1.0000
  F   F9        1.0  0.66300  0.72800  0.35800  1.0000
  F   F10       1.0  0.59200  0.35800  0.37300  1.0000
  F   F11       1.0  0.64000  0.05870  0.37400  1.0000
  F   F12       1.0  0.21300  0.74700  0.39200  1.0000
  F   F13       1.0  0.78700  0.25300  0.60800  1.0000
  F   F14       1.0  0.36000  0.94100  0.62600  1.0000
  F   F15       1.0  0.40800  0.64200  0.62700  1.0000
  F   F16       1.0  0.33700  0.27200  0.64200  1.0000
  F   F17       1.0  0.76500  0.91600  0.64500  1.0000
  F   F18       1.0  0.71200  0.55300  0.64500  1.0000
  F   F19       1.0  0.06330  0.61100  0.64800  1.0000
  F   F20       1.0  0.03560  0.87700  0.81400  1.0000
  F   F21       1.0  0.57500  0.16600  0.85900  1.0000
  F   F22       1.0  0.06230  0.24600  0.87900  1.0000
  F   F23       1.0  0.24600  0.70100  0.90400  1.0000
  F   F24       1.0  0.73000  0.91400  0.95600  1.0000
  P   P1        1.0  0.28800  0.62500  0.07100  1.0000
  P   P2        1.0  0.84000  0.18600  0.45100  1.0000
  P   P3        1.0  0.16000  0.81400  0.54900  1.0000
  P   P4        1.0  0.71200  0.37500  0.92900  1.0000
  Sb  Sb1       1.0  0.00000  0.00000  0.00000  1.0000
  Sb  Sb2       1.0  0.50000  0.50000  0.50000  1.0000
