data_image0
_chemical_formula_structural       Ag4Li8O11
_chemical_formula_sum              "Ag4 Li8 O11"
_cell_length_a       10.6358
_cell_length_b       5.22985
_cell_length_c       5.10975
_cell_angle_alpha    100.971
_cell_angle_beta     98.5393
_cell_angle_gamma    120.355

_space_group_name_H-M_alt    "P 1"
_space_group_IT_number       1

loop_
  _space_group_symop_operation_xyz
  'x, y, z'

loop_
  _atom_site_type_symbol
  _atom_site_label
  _atom_site_symmetry_multiplicity
  _atom_site_fract_x
  _atom_site_fract_y
  _atom_site_fract_z
  _atom_site_occupancy
  Ag  Ag1       1.0  0.57400  0.82200  0.00588  1.0000
  Ag  Ag2       1.0  0.08380  0.83500  0.00722  1.0000
  Ag  Ag3       1.0  0.42200  0.17800  0.03490  1.0000
  Ag  Ag4       1.0  0.90800  0.16600  0.97900  1.0000
  Li  Li1       1.0  0.98200  0.99200  0.48200  1.0000
  Li  Li2       1.0  0.83800  0.35000  0.49300  1.0000
  Li  Li3       1.0  0.18300  0.66400  0.50100  1.0000
  Li  Li4       1.0  0.67600  0.67700  0.50600  1.0000
  Li  Li5       1.0  0.32900  0.28500  0.53600  1.0000
  Li  Li6       1.0  0.50700  0.02540  0.53600  1.0000
  Li  Li7       1.0  0.24000  0.50400  0.97400  1.0000
  Li  Li8       1.0  0.74900  0.50000  0.97800  1.0000
  O   O1        1.0  0.78500  0.93300  0.22800  1.0000
  O   O2        1.0  0.10200  0.22800  0.23400  1.0000
  O   O3        1.0  0.95800  0.58300  0.23700  1.0000
  O   O4        1.0  0.61700  0.23600  0.25100  1.0000
  O   O5        1.0  0.31900  0.92700  0.28100  1.0000
  O   O6        1.0  0.72300  0.10700  0.71600  1.0000
  O   O7        1.0  0.38000  0.69800  0.72100  1.0000
  O   O8        1.0  0.86000  0.76700  0.72200  1.0000
  O   O9        1.0  0.04290  0.42600  0.75200  1.0000
  O   O10       1.0  0.53700  0.41500  0.78200  1.0000
  O   O11       1.0  0.22100  0.09100  0.79800  1.0000
