data_image0
_chemical_formula_structural       Co4O20Se8
_chemical_formula_sum              "Co4 O20 Se8"
_cell_length_a       5.99092
_cell_length_b       6.81189
_cell_length_c       10.3499
_cell_angle_alpha    90
_cell_angle_beta     90
_cell_angle_gamma    90

_space_group_name_H-M_alt    "P 1"
_space_group_IT_number       1

loop_
  _space_group_symop_operation_xyz
  'x, y, z'

loop_
  _atom_site_type_symbol
  _atom_site_label
  _atom_site_symmetry_multiplicity
  _atom_site_fract_x
  _atom_site_fract_y
  _atom_site_fract_z
  _atom_site_occupancy
  Co  Co1       1.0  0.25000  0.00000  0.06240  1.0000
  Co  Co2       1.0  0.75000  0.50000  0.43800  1.0000
  Co  Co3       1.0  0.25000  0.50000  0.56200  1.0000
  Co  Co4       1.0  0.75000  0.00000  0.93800  1.0000
  O   O1        1.0  0.75000  0.50000  0.06480  1.0000
  O   O2        1.0  0.54700  0.15700  0.06590  1.0000
  O   O3        1.0  0.95300  0.84300  0.06590  1.0000
  O   O4        1.0  0.16100  0.19800  0.20700  1.0000
  O   O5        1.0  0.33900  0.80200  0.20700  1.0000
  O   O6        1.0  0.66100  0.30200  0.29300  1.0000
  O   O7        1.0  0.83900  0.69800  0.29300  1.0000
  O   O8        1.0  0.04720  0.34300  0.43400  1.0000
  O   O9        1.0  0.45300  0.65700  0.43400  1.0000
  O   O10       1.0  0.25000  0.00000  0.43500  1.0000
  O   O11       1.0  0.75000  0.00000  0.56500  1.0000
  O   O12       1.0  0.54700  0.34300  0.56600  1.0000
  O   O13       1.0  0.95300  0.65700  0.56600  1.0000
  O   O14       1.0  0.16100  0.30200  0.70700  1.0000
  O   O15       1.0  0.33900  0.69800  0.70700  1.0000
  O   O16       1.0  0.66100  0.19800  0.79300  1.0000
  O   O17       1.0  0.83900  0.80200  0.79300  1.0000
  O   O18       1.0  0.04720  0.15700  0.93400  1.0000
  O   O19       1.0  0.45300  0.84300  0.93400  1.0000
  O   O20       1.0  0.25000  0.50000  0.93500  1.0000
  Se  Se1       1.0  0.52600  0.36900  0.15500  1.0000
  Se  Se2       1.0  0.97400  0.63100  0.15500  1.0000
  Se  Se3       1.0  0.02580  0.13100  0.34500  1.0000
  Se  Se4       1.0  0.47400  0.86900  0.34500  1.0000
  Se  Se5       1.0  0.52600  0.13100  0.65500  1.0000
  Se  Se6       1.0  0.97400  0.86900  0.65500  1.0000
  Se  Se7       1.0  0.02580  0.36900  0.84500  1.0000
  Se  Se8       1.0  0.47400  0.63100  0.84500  1.0000
