data_image0
_chemical_formula_structural       Ga4Li8O11
_chemical_formula_sum              "Ga4 Li8 O11"
_cell_length_a       10.0926
_cell_length_b       5.05397
_cell_length_c       4.99857
_cell_angle_alpha    100.032
_cell_angle_beta     99.4804
_cell_angle_gamma    119.678

_space_group_name_H-M_alt    "P 1"
_space_group_IT_number       1

loop_
  _space_group_symop_operation_xyz
  'x, y, z'

loop_
  _atom_site_type_symbol
  _atom_site_label
  _atom_site_symmetry_multiplicity
  _atom_site_fract_x
  _atom_site_fract_y
  _atom_site_fract_z
  _atom_site_occupancy
  Ga  Ga1       1.0  0.41700  0.17000  0.00295  1.0000
  Ga  Ga2       1.0  0.58000  0.83600  0.00383  1.0000
  Ga  Ga3       1.0  0.08180  0.79000  0.97400  1.0000
  Ga  Ga4       1.0  0.89700  0.15200  0.97700  1.0000
  Li  Li1       1.0  0.74900  0.50300  0.00175  1.0000
  Li  Li2       1.0  0.82600  0.33200  0.49300  1.0000
  Li  Li3       1.0  0.66400  0.65300  0.49400  1.0000
  Li  Li4       1.0  0.50100  0.00072  0.50400  1.0000
  Li  Li5       1.0  0.18200  0.71600  0.51000  1.0000
  Li  Li6       1.0  0.98500  0.97100  0.51200  1.0000
  Li  Li7       1.0  0.35300  0.36000  0.51500  1.0000
  Li  Li8       1.0  0.25600  0.50500  0.96300  1.0000
  O   O1        1.0  0.45800  0.58000  0.23500  1.0000
  O   O2        1.0  0.28400  0.94100  0.23900  1.0000
  O   O3        1.0  0.61500  0.23300  0.24000  1.0000
  O   O4        1.0  0.79600  0.93300  0.24000  1.0000
  O   O5        1.0  0.97400  0.57100  0.24100  1.0000
  O   O6        1.0  0.38000  0.77000  0.75500  1.0000
  O   O7        1.0  0.70300  0.06830  0.75600  1.0000
  O   O8        1.0  0.03790  0.39300  0.76200  1.0000
  O   O9        1.0  0.54000  0.43000  0.77300  1.0000
  O   O10       1.0  0.20800  0.08030  0.77300  1.0000
  O   O11       1.0  0.89600  0.78000  0.79700  1.0000
