data_image0
_chemical_formula_structural       C2F12H12N6P2
_chemical_formula_sum              "C2 F12 H12 N6 P2"
_cell_length_a       6.7248
_cell_length_b       6.7248
_cell_length_c       6.7248
_cell_angle_alpha    72.0563
_cell_angle_beta     72.0563
_cell_angle_gamma    72.0563

_space_group_name_H-M_alt    "P 1"
_space_group_IT_number       1

loop_
  _space_group_symop_operation_xyz
  'x, y, z'

loop_
  _atom_site_type_symbol
  _atom_site_label
  _atom_site_symmetry_multiplicity
  _atom_site_fract_x
  _atom_site_fract_y
  _atom_site_fract_z
  _atom_site_occupancy
  C   C1        1.0  0.24800  0.24800  0.24800  1.0000
  C   C2        1.0  0.75200  0.75200  0.75200  1.0000
  F   F1        1.0  0.83900  0.83900  0.13100  1.0000
  F   F2        1.0  0.16100  0.86900  0.16100  1.0000
  F   F3        1.0  0.86900  0.16100  0.16100  1.0000
  F   F4        1.0  0.53300  0.53300  0.24300  1.0000
  F   F5        1.0  0.46700  0.75700  0.46700  1.0000
  F   F6        1.0  0.75700  0.46700  0.46700  1.0000
  F   F7        1.0  0.24300  0.53300  0.53300  1.0000
  F   F8        1.0  0.53300  0.24300  0.53300  1.0000
  F   F9        1.0  0.46700  0.46700  0.75700  1.0000
  F   F10       1.0  0.83900  0.13100  0.83900  1.0000
  F   F11       1.0  0.13100  0.83900  0.83900  1.0000
  F   F12       1.0  0.16100  0.16100  0.86900  1.0000
  H   H1        1.0  0.51800  0.22300  0.00325  1.0000
  H   H2        1.0  0.22300  0.51800  0.00325  1.0000
  H   H3        1.0  0.51800  0.00325  0.22300  1.0000
  H   H4        1.0  0.00325  0.51800  0.22300  1.0000
  H   H5        1.0  0.99700  0.77700  0.48200  1.0000
  H   H6        1.0  0.77700  0.99700  0.48200  1.0000
  H   H7        1.0  0.00325  0.22300  0.51800  1.0000
  H   H8        1.0  0.22300  0.00325  0.51800  1.0000
  H   H9        1.0  0.99700  0.48200  0.77700  1.0000
  H   H10       1.0  0.48200  0.99700  0.77700  1.0000
  H   H11       1.0  0.48200  0.77700  0.99700  1.0000
  H   H12       1.0  0.77700  0.48200  0.99700  1.0000
  N   N1        1.0  0.15100  0.44100  0.15100  1.0000
  N   N2        1.0  0.44100  0.15100  0.15100  1.0000
  N   N3        1.0  0.15100  0.15100  0.44100  1.0000
  N   N4        1.0  0.84900  0.84900  0.55900  1.0000
  N   N5        1.0  0.84900  0.55900  0.84900  1.0000
  N   N6        1.0  0.55900  0.84900  0.84900  1.0000
  P   P1        1.0  0.00000  0.00000  0.00000  1.0000
  P   P2        1.0  0.50000  0.50000  0.50000  1.0000
