data_image0
_chemical_formula_structural       Ag5O6Pb2
_chemical_formula_sum              "Ag5 O6 Pb2"
_cell_length_a       5.96107
_cell_length_b       5.96045
_cell_length_c       6.49918
_cell_angle_alpha    90.0057
_cell_angle_beta     89.9971
_cell_angle_gamma    119.997

_space_group_name_H-M_alt    "P 1"
_space_group_IT_number       1

loop_
  _space_group_symop_operation_xyz
  'x, y, z'

loop_
  _atom_site_type_symbol
  _atom_site_label
  _atom_site_symmetry_multiplicity
  _atom_site_fract_x
  _atom_site_fract_y
  _atom_site_fract_z
  _atom_site_occupancy
  Ag  Ag1       1.0  0.00000  0.00006  0.28700  1.0000
  Ag  Ag2       1.0  0.00000  0.50000  0.52100  1.0000
  Ag  Ag3       1.0  0.50000  0.50000  0.52100  1.0000
  Ag  Ag4       1.0  0.50000  0.00000  0.52100  1.0000
  Ag  Ag5       1.0  0.00000  0.00000  0.73100  1.0000
  O   O1        1.0  0.37700  0.37700  0.21200  1.0000
  O   O2        1.0  0.62300  0.00001  0.21200  1.0000
  O   O3        1.0  0.00000  0.62300  0.21200  1.0000
  O   O4        1.0  0.00000  0.37400  0.82800  1.0000
  O   O5        1.0  0.62600  0.62600  0.82800  1.0000
  O   O6        1.0  0.37400  0.00001  0.82800  1.0000
  Pb  Pb1       1.0  0.33300  0.66700  0.01970  1.0000
  Pb  Pb2       1.0  0.66700  0.33300  0.01970  1.0000
