data_image0
_chemical_formula_structural       Li8Na4O11
_chemical_formula_sum              "Li8 Na4 O11"
_cell_length_a       11.3806
_cell_length_b       5.66527
_cell_length_c       5.25059
_cell_angle_alpha    108.525
_cell_angle_beta     105.352
_cell_angle_gamma    121.254

_space_group_name_H-M_alt    "P 1"
_space_group_IT_number       1

loop_
  _space_group_symop_operation_xyz
  'x, y, z'

loop_
  _atom_site_type_symbol
  _atom_site_label
  _atom_site_symmetry_multiplicity
  _atom_site_fract_x
  _atom_site_fract_y
  _atom_site_fract_z
  _atom_site_occupancy
  Li  Li1       1.0  0.22300  0.79100  0.47100  1.0000
  Li  Li2       1.0  0.44800  0.87400  0.49300  1.0000
  Li  Li3       1.0  0.92700  0.84700  0.50200  1.0000
  Li  Li4       1.0  0.31300  0.30600  0.52900  1.0000
  Li  Li5       1.0  0.78400  0.21700  0.53900  1.0000
  Li  Li6       1.0  0.65000  0.62400  0.57700  1.0000
  Li  Li7       1.0  0.18500  0.41800  0.74700  1.0000
  Li  Li8       1.0  0.73100  0.47200  0.95500  1.0000
  Na  Na1       1.0  0.43900  0.19300  0.02860  1.0000
  Na  Na2       1.0  0.93600  0.21800  0.06140  1.0000
  Na  Na3       1.0  0.08950  0.81900  0.93900  1.0000
  Na  Na4       1.0  0.56700  0.84400  0.99600  1.0000
  O   O1        1.0  0.85200  0.01900  0.32700  1.0000
  O   O2        1.0  0.35900  0.04580  0.33900  1.0000
  O   O3        1.0  0.04880  0.78100  0.34000  1.0000
  O   O4        1.0  0.71600  0.41100  0.34600  1.0000
  O   O5        1.0  0.55700  0.75600  0.37600  1.0000
  O   O6        1.0  0.31400  0.64700  0.62600  1.0000
  O   O7        1.0  0.98400  0.28500  0.67800  1.0000
  O   O8        1.0  0.50400  0.33300  0.67900  1.0000
  O   O9        1.0  0.18400  0.05960  0.68800  1.0000
  O   O10       1.0  0.83100  0.64600  0.71000  1.0000
  O   O11       1.0  0.67500  0.02480  0.73000  1.0000
