data_image0
_chemical_formula_structural       Fe4Li8O11
_chemical_formula_sum              "Fe4 Li8 O11"
_cell_length_a       10.1104
_cell_length_b       5.01398
_cell_length_c       5.01585
_cell_angle_alpha    100.075
_cell_angle_beta     99.3674
_cell_angle_gamma    120.257

_space_group_name_H-M_alt    "P 1"
_space_group_IT_number       1

loop_
  _space_group_symop_operation_xyz
  'x, y, z'

loop_
  _atom_site_type_symbol
  _atom_site_label
  _atom_site_symmetry_multiplicity
  _atom_site_fract_x
  _atom_site_fract_y
  _atom_site_fract_z
  _atom_site_occupancy
  Fe  Fe1       1.0  0.92100  0.17100  0.00366  1.0000
  Fe  Fe2       1.0  0.08280  0.83900  0.01270  1.0000
  Fe  Fe3       1.0  0.59400  0.85700  0.96300  1.0000
  Fe  Fe4       1.0  0.41000  0.12600  0.99200  1.0000
  Li  Li1       1.0  0.70200  0.69100  0.48800  1.0000
  Li  Li2       1.0  0.99600  0.00916  0.49800  1.0000
  Li  Li3       1.0  0.83400  0.33600  0.50000  1.0000
  Li  Li4       1.0  0.16800  0.64700  0.50200  1.0000
  Li  Li5       1.0  0.50400  0.05260  0.51900  1.0000
  Li  Li6       1.0  0.31200  0.30600  0.53100  1.0000
  Li  Li7       1.0  0.23300  0.48500  0.98700  1.0000
  Li  Li8       1.0  0.75000  0.50400  0.99100  1.0000
  O   O1        1.0  0.78900  0.93400  0.21700  1.0000
  O   O2        1.0  0.60400  0.22900  0.23000  1.0000
  O   O3        1.0  0.96000  0.56000  0.23300  1.0000
  O   O4        1.0  0.30200  0.94400  0.24200  1.0000
  O   O5        1.0  0.12200  0.23700  0.25400  1.0000
  O   O6        1.0  0.70000  0.05980  0.71900  1.0000
  O   O7        1.0  0.37900  0.74200  0.75700  1.0000
  O   O8        1.0  0.88700  0.78600  0.76600  1.0000
  O   O9        1.0  0.03120  0.40900  0.77500  1.0000
  O   O10       1.0  0.22300  0.07580  0.79000  1.0000
  O   O11       1.0  0.52400  0.41000  0.79900  1.0000
