data_image0
_chemical_formula_structural       Ba10Cl4Li2Mo4N14
_chemical_formula_sum              "Ba10 Cl4 Li2 Mo4 N14"
_cell_length_a       11.1656
_cell_length_b       6.09068
_cell_length_c       11.2484
_cell_angle_alpha    90
_cell_angle_beta     95.8358
_cell_angle_gamma    90

_space_group_name_H-M_alt    "P 1"
_space_group_IT_number       1

loop_
  _space_group_symop_operation_xyz
  'x, y, z'

loop_
  _atom_site_type_symbol
  _atom_site_label
  _atom_site_symmetry_multiplicity
  _atom_site_fract_x
  _atom_site_fract_y
  _atom_site_fract_z
  _atom_site_occupancy
  Ba  Ba1       1.0  0.19200  0.25000  0.11300  1.0000
  Ba  Ba2       1.0  0.50300  0.75000  0.12100  1.0000
  Ba  Ba3       1.0  0.79600  0.25000  0.29400  1.0000
  Ba  Ba4       1.0  0.01700  0.75000  0.36600  1.0000
  Ba  Ba5       1.0  0.37500  0.75000  0.43900  1.0000
  Ba  Ba6       1.0  0.62500  0.25000  0.56100  1.0000
  Ba  Ba7       1.0  0.98300  0.25000  0.63400  1.0000
  Ba  Ba8       1.0  0.20400  0.75000  0.70600  1.0000
  Ba  Ba9       1.0  0.49700  0.25000  0.87900  1.0000
  Ba  Ba10      1.0  0.80800  0.75000  0.88700  1.0000
  Cl  Cl1       1.0  0.21000  0.75000  0.14100  1.0000
  Cl  Cl2       1.0  0.79400  0.75000  0.16600  1.0000
  Cl  Cl3       1.0  0.20600  0.25000  0.83400  1.0000
  Cl  Cl4       1.0  0.79000  0.25000  0.85900  1.0000
  Li  Li1       1.0  0.67200  0.75000  0.37500  1.0000
  Li  Li2       1.0  0.32800  0.25000  0.62500  1.0000
  Mo  Mo1       1.0  0.47300  0.25000  0.27400  1.0000
  Mo  Mo2       1.0  0.17400  0.25000  0.41500  1.0000
  Mo  Mo3       1.0  0.82600  0.75000  0.58500  1.0000
  Mo  Mo4       1.0  0.52700  0.75000  0.72600  1.0000
  N   N1        1.0  0.43800  0.25000  0.10800  1.0000
  N   N2        1.0  0.04700  0.25000  0.29300  1.0000
  N   N3        1.0  0.56000  0.00352  0.32700  1.0000
  N   N4        1.0  0.56000  0.49600  0.32700  1.0000
  N   N5        1.0  0.32000  0.25000  0.33800  1.0000
  N   N6        1.0  0.83200  0.50700  0.48800  1.0000
  N   N7        1.0  0.83200  0.99300  0.48800  1.0000
  N   N8        1.0  0.16800  0.00683  0.51200  1.0000
  N   N9        1.0  0.16800  0.49300  0.51200  1.0000
  N   N10       1.0  0.68000  0.75000  0.66200  1.0000
  N   N11       1.0  0.44000  0.50400  0.67300  1.0000
  N   N12       1.0  0.44000  0.99600  0.67300  1.0000
  N   N13       1.0  0.95300  0.75000  0.70700  1.0000
  N   N14       1.0  0.56200  0.75000  0.89200  1.0000
