data_image0
_chemical_formula_structural       Bi2K2O5
_chemical_formula_sum              "Bi2 K2 O5"
_cell_length_a       6.1561
_cell_length_b       5.99059
_cell_length_c       6.73572
_cell_angle_alpha    56.145
_cell_angle_beta     60.6365
_cell_angle_gamma    58.0237

_space_group_name_H-M_alt    "P 1"
_space_group_IT_number       1

loop_
  _space_group_symop_operation_xyz
  'x, y, z'

loop_
  _atom_site_type_symbol
  _atom_site_label
  _atom_site_symmetry_multiplicity
  _atom_site_fract_x
  _atom_site_fract_y
  _atom_site_fract_z
  _atom_site_occupancy
  Bi  Bi1       1.0  0.65400  0.64500  0.06360  1.0000
  Bi  Bi2       1.0  0.32300  0.35100  0.94100  1.0000
  K   K1        1.0  0.85900  0.87400  0.39700  1.0000
  K   K2        1.0  0.09250  0.11800  0.63700  1.0000
  O   O1        1.0  0.98900  0.58100  0.15900  1.0000
  O   O2        1.0  0.35300  0.96900  0.25200  1.0000
  O   O3        1.0  0.63500  0.05750  0.76400  1.0000
  O   O4        1.0  0.04340  0.46400  0.78900  1.0000
  O   O5        1.0  0.52200  0.61600  0.79200  1.0000
