data_image0
_chemical_formula_structural       Ba12O4Sb16
_chemical_formula_sum              "Ba12 O4 Sb16"
_cell_length_a       7.07675
_cell_length_b       12.9679
_cell_length_c       13.0401
_cell_angle_alpha    90
_cell_angle_beta     112.151
_cell_angle_gamma    90

_space_group_name_H-M_alt    "P 1"
_space_group_IT_number       1

loop_
  _space_group_symop_operation_xyz
  'x, y, z'

loop_
  _atom_site_type_symbol
  _atom_site_label
  _atom_site_symmetry_multiplicity
  _atom_site_fract_x
  _atom_site_fract_y
  _atom_site_fract_z
  _atom_site_occupancy
  Ba  Ba1       1.0  0.19300  0.26600  0.02140  1.0000
  Ba  Ba2       1.0  0.79500  0.05840  0.04740  1.0000
  Ba  Ba3       1.0  0.61400  0.55000  0.22100  1.0000
  Ba  Ba4       1.0  0.38600  0.05050  0.27900  1.0000
  Ba  Ba5       1.0  0.20500  0.55800  0.45300  1.0000
  Ba  Ba6       1.0  0.80700  0.76600  0.47900  1.0000
  Ba  Ba7       1.0  0.19300  0.23400  0.52100  1.0000
  Ba  Ba8       1.0  0.79500  0.44200  0.54700  1.0000
  Ba  Ba9       1.0  0.61400  0.95000  0.72100  1.0000
  Ba  Ba10      1.0  0.38600  0.45000  0.77900  1.0000
  Ba  Ba11      1.0  0.20500  0.94200  0.95300  1.0000
  Ba  Ba12      1.0  0.80700  0.73400  0.97900  1.0000
  O   O1        1.0  0.16700  0.08570  0.08000  1.0000
  O   O2        1.0  0.83300  0.58600  0.42000  1.0000
  O   O3        1.0  0.16700  0.41400  0.58000  1.0000
  O   O4        1.0  0.83300  0.91400  0.92000  1.0000
  Sb  Sb1       1.0  0.72400  0.34300  0.06110  1.0000
  Sb  Sb2       1.0  0.07170  0.48300  0.15500  1.0000
  Sb  Sb3       1.0  0.64800  0.84300  0.18600  1.0000
  Sb  Sb4       1.0  0.29400  0.76600  0.23600  1.0000
  Sb  Sb5       1.0  0.70600  0.26600  0.26400  1.0000
  Sb  Sb6       1.0  0.35200  0.34300  0.31400  1.0000
  Sb  Sb7       1.0  0.92800  0.98300  0.34500  1.0000
  Sb  Sb8       1.0  0.27600  0.84300  0.43900  1.0000
  Sb  Sb9       1.0  0.72400  0.15700  0.56100  1.0000
  Sb  Sb10      1.0  0.07170  0.01750  0.65500  1.0000
  Sb  Sb11      1.0  0.64800  0.65700  0.68600  1.0000
  Sb  Sb12      1.0  0.29400  0.73400  0.73600  1.0000
  Sb  Sb13      1.0  0.70600  0.23400  0.76400  1.0000
  Sb  Sb14      1.0  0.35200  0.15700  0.81400  1.0000
  Sb  Sb15      1.0  0.92800  0.51700  0.84500  1.0000
  Sb  Sb16      1.0  0.27600  0.65700  0.93900  1.0000
