data_image0
_chemical_formula_structural       Fe4Na12S12
_chemical_formula_sum              "Fe4 Na12 S12"
_cell_length_a       7.11495
_cell_length_b       6.86834
_cell_length_c       12.4727
_cell_angle_alpha    90
_cell_angle_beta     91.0264
_cell_angle_gamma    90

_space_group_name_H-M_alt    "P 1"
_space_group_IT_number       1

loop_
  _space_group_symop_operation_xyz
  'x, y, z'

loop_
  _atom_site_type_symbol
  _atom_site_label
  _atom_site_symmetry_multiplicity
  _atom_site_fract_x
  _atom_site_fract_y
  _atom_site_fract_z
  _atom_site_occupancy
  Fe  Fe1       1.0  0.57500  0.12600  0.07410  1.0000
  Fe  Fe2       1.0  0.92500  0.62600  0.42600  1.0000
  Fe  Fe3       1.0  0.07490  0.37400  0.57400  1.0000
  Fe  Fe4       1.0  0.42500  0.87400  0.92600  1.0000
  Na  Na1       1.0  0.21200  0.48700  0.09560  1.0000
  Na  Na2       1.0  0.15800  0.98600  0.11500  1.0000
  Na  Na3       1.0  0.72900  0.51300  0.21800  1.0000
  Na  Na4       1.0  0.77100  0.01300  0.28200  1.0000
  Na  Na5       1.0  0.34200  0.48600  0.38500  1.0000
  Na  Na6       1.0  0.28800  0.98700  0.40400  1.0000
  Na  Na7       1.0  0.71200  0.01320  0.59600  1.0000
  Na  Na8       1.0  0.65800  0.51400  0.61500  1.0000
  Na  Na9       1.0  0.22900  0.98700  0.71800  1.0000
  Na  Na10      1.0  0.27100  0.48700  0.78200  1.0000
  Na  Na11      1.0  0.84200  0.01450  0.88500  1.0000
  Na  Na12      1.0  0.78800  0.51300  0.90400  1.0000
  S   S1        1.0  0.86800  0.24500  0.07150  1.0000
  S   S2        1.0  0.58600  0.79800  0.07620  1.0000
  S   S3        1.0  0.42800  0.22300  0.22200  1.0000
  S   S4        1.0  0.07230  0.72300  0.27800  1.0000
  S   S5        1.0  0.91400  0.29800  0.42400  1.0000
  S   S6        1.0  0.63200  0.74500  0.42800  1.0000
  S   S7        1.0  0.36800  0.25500  0.57200  1.0000
  S   S8        1.0  0.08570  0.70200  0.57600  1.0000
  S   S9        1.0  0.92800  0.27700  0.72200  1.0000
  S   S10       1.0  0.57200  0.77700  0.77800  1.0000
  S   S11       1.0  0.41400  0.20200  0.92400  1.0000
  S   S12       1.0  0.13200  0.75500  0.92800  1.0000
