data_image0
_chemical_formula_structural       As4Li8O11
_chemical_formula_sum              "As4 Li8 O11"
_cell_length_a       11.1255
_cell_length_b       5.2245
_cell_length_c       5.26754
_cell_angle_alpha    104.973
_cell_angle_beta     98.4144
_cell_angle_gamma    118.83

_space_group_name_H-M_alt    "P 1"
_space_group_IT_number       1

loop_
  _space_group_symop_operation_xyz
  'x, y, z'

loop_
  _atom_site_type_symbol
  _atom_site_label
  _atom_site_symmetry_multiplicity
  _atom_site_fract_x
  _atom_site_fract_y
  _atom_site_fract_z
  _atom_site_occupancy
  As  As1       1.0  0.06740  0.82700  0.02420  1.0000
  As  As2       1.0  0.90000  0.11600  0.05430  1.0000
  As  As3       1.0  0.59000  0.84900  0.09320  1.0000
  As  As4       1.0  0.37900  0.08300  0.85200  1.0000
  Li  Li1       1.0  0.73600  0.43900  0.05340  1.0000
  Li  Li2       1.0  0.47900  0.98100  0.44600  1.0000
  Li  Li3       1.0  0.35500  0.39200  0.45000  1.0000
  Li  Li4       1.0  0.11900  0.67400  0.50400  1.0000
  Li  Li5       1.0  0.65000  0.60700  0.52600  1.0000
  Li  Li6       1.0  0.95000  0.97600  0.52700  1.0000
  Li  Li7       1.0  0.82300  0.31300  0.58200  1.0000
  Li  Li8       1.0  0.24000  0.52100  0.87900  1.0000
  O   O1        1.0  0.35400  0.98400  0.13700  1.0000
  O   O2        1.0  0.77800  0.89300  0.23400  1.0000
  O   O3        1.0  0.97800  0.68900  0.26000  1.0000
  O   O4        1.0  0.50500  0.63700  0.29800  1.0000
  O   O5        1.0  0.66200  0.24500  0.32600  1.0000
  O   O6        1.0  0.30600  0.71200  0.59000  1.0000
  O   O7        1.0  0.25900  0.17400  0.72400  1.0000
  O   O8        1.0  0.04380  0.48000  0.77400  1.0000
  O   O9        1.0  0.90000  0.77800  0.79900  1.0000
  O   O10       1.0  0.54200  0.30700  0.80400  1.0000
  O   O11       1.0  0.76400  0.08240  0.81500  1.0000
