data_image0
_chemical_formula_structural       Li10O18P4V2
_chemical_formula_sum              "Li10 O18 P4 V2"
_cell_length_a       7.58522
_cell_length_b       7.58522
_cell_length_c       7.58522
_cell_angle_alpha    105.447
_cell_angle_beta     117.861
_cell_angle_gamma    105.447

_space_group_name_H-M_alt    "P 1"
_space_group_IT_number       1

loop_
  _space_group_symop_operation_xyz
  'x, y, z'

loop_
  _atom_site_type_symbol
  _atom_site_label
  _atom_site_symmetry_multiplicity
  _atom_site_fract_x
  _atom_site_fract_y
  _atom_site_fract_z
  _atom_site_occupancy
  Li  Li1       1.0  0.25000  0.77600  0.02590  1.0000
  Li  Li2       1.0  0.47400  0.22400  0.25000  1.0000
  Li  Li3       1.0  0.75000  0.50000  0.25000  1.0000
  Li  Li4       1.0  0.02590  0.77600  0.25000  1.0000
  Li  Li5       1.0  0.25000  0.22400  0.47400  1.0000
  Li  Li6       1.0  0.75000  0.77600  0.52600  1.0000
  Li  Li7       1.0  0.97400  0.22400  0.75000  1.0000
  Li  Li8       1.0  0.25000  0.50000  0.75000  1.0000
  Li  Li9       1.0  0.52600  0.77600  0.75000  1.0000
  Li  Li10      1.0  0.75000  0.22400  0.97400  1.0000
  O   O1        1.0  0.80300  0.50000  0.01940  1.0000
  O   O2        1.0  0.81300  0.93500  0.12200  1.0000
  O   O3        1.0  0.12200  0.30800  0.18700  1.0000
  O   O4        1.0  0.69700  0.21600  0.19700  1.0000
  O   O5        1.0  0.25000  0.00000  0.25000  1.0000
  O   O6        1.0  0.51900  0.50000  0.30300  1.0000
  O   O7        1.0  0.62200  0.93500  0.31300  1.0000
  O   O8        1.0  0.31300  0.69200  0.37800  1.0000
  O   O9        1.0  0.98100  0.78400  0.48100  1.0000
  O   O10       1.0  0.01940  0.21600  0.51900  1.0000
  O   O11       1.0  0.68700  0.30800  0.62200  1.0000
  O   O12       1.0  0.37800  0.06480  0.68700  1.0000
  O   O13       1.0  0.48100  0.50000  0.69700  1.0000
  O   O14       1.0  0.75000  0.00000  0.75000  1.0000
  O   O15       1.0  0.30300  0.78400  0.80300  1.0000
  O   O16       1.0  0.87800  0.69200  0.81300  1.0000
  O   O17       1.0  0.18700  0.06480  0.87800  1.0000
  O   O18       1.0  0.19700  0.50000  0.98100  1.0000
  P   P1        1.0  0.29000  0.50000  0.21000  1.0000
  P   P2        1.0  0.79000  0.08000  0.29000  1.0000
  P   P3        1.0  0.21000  0.92000  0.71000  1.0000
  P   P4        1.0  0.71000  0.50000  0.79000  1.0000
  V   V1        1.0  0.00000  0.00000  0.00000  1.0000
  V   V2        1.0  0.50000  0.00000  0.50000  1.0000
