data_image0
_chemical_formula_structural       Mo4O24U4
_chemical_formula_sum              "Mo4 O24 U4"
_cell_length_a       7.16056
_cell_length_b       5.28244
_cell_length_c       13.562
_cell_angle_alpha    90
_cell_angle_beta     104.334
_cell_angle_gamma    90

_space_group_name_H-M_alt    "P 1"
_space_group_IT_number       1

loop_
  _space_group_symop_operation_xyz
  'x, y, z'

loop_
  _atom_site_type_symbol
  _atom_site_label
  _atom_site_symmetry_multiplicity
  _atom_site_fract_x
  _atom_site_fract_y
  _atom_site_fract_z
  _atom_site_occupancy
  Mo  Mo1       1.0  0.29400  0.58900  0.10600  1.0000
  Mo  Mo2       1.0  0.70600  0.08890  0.39400  1.0000
  Mo  Mo3       1.0  0.29400  0.91100  0.60600  1.0000
  Mo  Mo4       1.0  0.70600  0.41100  0.89400  1.0000
  O   O1        1.0  0.18800  0.37300  0.00679  1.0000
  O   O2        1.0  0.75200  0.12800  0.08310  1.0000
  O   O3        1.0  0.52800  0.67900  0.09670  1.0000
  O   O4        1.0  0.14200  0.85600  0.10900  1.0000
  O   O5        1.0  0.92400  0.54600  0.21300  1.0000
  O   O6        1.0  0.31800  0.42700  0.22400  1.0000
  O   O7        1.0  0.68200  0.92700  0.27600  1.0000
  O   O8        1.0  0.07610  0.04590  0.28700  1.0000
  O   O9        1.0  0.85800  0.35600  0.39100  1.0000
  O   O10       1.0  0.47200  0.17900  0.40300  1.0000
  O   O11       1.0  0.24800  0.62800  0.41700  1.0000
  O   O12       1.0  0.81200  0.87300  0.49300  1.0000
  O   O13       1.0  0.18800  0.12700  0.50700  1.0000
  O   O14       1.0  0.75200  0.37200  0.58300  1.0000
  O   O15       1.0  0.52800  0.82100  0.59700  1.0000
  O   O16       1.0  0.14200  0.64400  0.60900  1.0000
  O   O17       1.0  0.92400  0.95400  0.71300  1.0000
  O   O18       1.0  0.31800  0.07320  0.72400  1.0000
  O   O19       1.0  0.68200  0.57300  0.77600  1.0000
  O   O20       1.0  0.07610  0.45400  0.78700  1.0000
  O   O21       1.0  0.85800  0.14400  0.89100  1.0000
  O   O22       1.0  0.47200  0.32100  0.90300  1.0000
  O   O23       1.0  0.24800  0.87200  0.91700  1.0000
  O   O24       1.0  0.81200  0.62700  0.99300  1.0000
  U   U1        1.0  0.83600  0.83800  0.14600  1.0000
  U   U2        1.0  0.16400  0.33800  0.35400  1.0000
  U   U3        1.0  0.83600  0.66200  0.64600  1.0000
  U   U4        1.0  0.16400  0.16200  0.85400  1.0000
