data_image0
_chemical_formula_structural       Bi8O22Ta4
_chemical_formula_sum              "Bi8 O22 Ta4"
_cell_length_a       6.58354
_cell_length_b       7.66737
_cell_length_c       9.84543
_cell_angle_alpha    101.218
_cell_angle_beta     89.875
_cell_angle_gamma    89.9514

_space_group_name_H-M_alt    "P 1"
_space_group_IT_number       1

loop_
  _space_group_symop_operation_xyz
  'x, y, z'

loop_
  _atom_site_type_symbol
  _atom_site_label
  _atom_site_symmetry_multiplicity
  _atom_site_fract_x
  _atom_site_fract_y
  _atom_site_fract_z
  _atom_site_occupancy
  Bi  Bi1       1.0  0.62300  0.54400  0.16300  1.0000
  Bi  Bi2       1.0  0.56900  0.04580  0.17800  1.0000
  Bi  Bi3       1.0  0.75300  0.37100  0.48000  1.0000
  Bi  Bi4       1.0  0.75300  0.87100  0.48100  1.0000
  Bi  Bi5       1.0  0.24700  0.12900  0.51900  1.0000
  Bi  Bi6       1.0  0.24700  0.62900  0.52000  1.0000
  Bi  Bi7       1.0  0.43100  0.95400  0.82200  1.0000
  Bi  Bi8       1.0  0.37700  0.45600  0.83700  1.0000
  O   O1        1.0  0.00161  0.21000  0.00074  1.0000
  O   O2        1.0  0.37500  0.73900  0.14100  1.0000
  O   O3        1.0  0.37500  0.33900  0.15600  1.0000
  O   O4        1.0  0.02470  0.54600  0.18500  1.0000
  O   O5        1.0  0.17300  0.05350  0.21300  1.0000
  O   O6        1.0  0.78900  0.85000  0.23600  1.0000
  O   O7        1.0  0.78400  0.27200  0.23700  1.0000
  O   O8        1.0  0.58200  0.60700  0.38200  1.0000
  O   O9        1.0  0.54400  0.09440  0.39500  1.0000
  O   O10       1.0  0.11700  0.83200  0.39700  1.0000
  O   O11       1.0  0.09800  0.36100  0.40100  1.0000
  O   O12       1.0  0.90200  0.63900  0.59900  1.0000
  O   O13       1.0  0.88300  0.16800  0.60300  1.0000
  O   O14       1.0  0.45600  0.90600  0.60500  1.0000
  O   O15       1.0  0.41800  0.39300  0.61800  1.0000
  O   O16       1.0  0.21600  0.72800  0.76300  1.0000
  O   O17       1.0  0.21100  0.15000  0.76400  1.0000
  O   O18       1.0  0.82700  0.94700  0.78700  1.0000
  O   O19       1.0  0.97500  0.45400  0.81500  1.0000
  O   O20       1.0  0.62500  0.66100  0.84400  1.0000
  O   O21       1.0  0.62500  0.26100  0.85900  1.0000
  O   O22       1.0  0.99800  0.79000  0.99900  1.0000
  Ta  Ta1       1.0  0.09540  0.79800  0.18800  1.0000
  Ta  Ta2       1.0  0.09230  0.29600  0.18800  1.0000
  Ta  Ta3       1.0  0.90800  0.70400  0.81200  1.0000
  Ta  Ta4       1.0  0.90500  0.20200  0.81200  1.0000
