data_image0
_chemical_formula_structural       Al12Mo
_chemical_formula_sum              "Al12 Mo1"
_cell_length_a       6.56604
_cell_length_b       6.56604
_cell_length_c       6.56604
_cell_angle_alpha    109.471
_cell_angle_beta     109.471
_cell_angle_gamma    109.471

_space_group_name_H-M_alt    "P 1"
_space_group_IT_number       1

loop_
  _space_group_symop_operation_xyz
  'x, y, z'

loop_
  _atom_site_type_symbol
  _atom_site_label
  _atom_site_symmetry_multiplicity
  _atom_site_fract_x
  _atom_site_fract_y
  _atom_site_fract_z
  _atom_site_occupancy
  Al  Al1       1.0  0.81400  0.30900  0.12300  1.0000
  Al  Al2       1.0  0.30900  0.49500  0.18600  1.0000
  Al  Al3       1.0  0.69100  0.87700  0.18600  1.0000
  Al  Al4       1.0  0.12300  0.81400  0.30900  1.0000
  Al  Al5       1.0  0.49500  0.18600  0.30900  1.0000
  Al  Al6       1.0  0.18600  0.30900  0.49500  1.0000
  Al  Al7       1.0  0.81400  0.69100  0.50500  1.0000
  Al  Al8       1.0  0.50500  0.81400  0.69100  1.0000
  Al  Al9       1.0  0.87700  0.18600  0.69100  1.0000
  Al  Al10      1.0  0.30900  0.12300  0.81400  1.0000
  Al  Al11      1.0  0.69100  0.50500  0.81400  1.0000
  Al  Al12      1.0  0.18600  0.69100  0.87700  1.0000
  Mo  Mo1       1.0  0.00000  0.00000  0.00000  1.0000
