data_image0
_chemical_formula_structural       Li8Ni4O11
_chemical_formula_sum              "Li8 Ni4 O11"
_cell_length_a       9.70658
_cell_length_b       4.84464
_cell_length_c       4.91535
_cell_angle_alpha    99.5191
_cell_angle_beta     99.9888
_cell_angle_gamma    120

_space_group_name_H-M_alt    "P 1"
_space_group_IT_number       1

loop_
  _space_group_symop_operation_xyz
  'x, y, z'

loop_
  _atom_site_type_symbol
  _atom_site_label
  _atom_site_symmetry_multiplicity
  _atom_site_fract_x
  _atom_site_fract_y
  _atom_site_fract_z
  _atom_site_occupancy
  Li  Li1       1.0  0.75000  0.49900  0.00070  1.0000
  Li  Li2       1.0  0.99600  0.99800  0.49200  1.0000
  Li  Li3       1.0  0.83000  0.33000  0.49500  1.0000
  Li  Li4       1.0  0.17100  0.66100  0.49900  1.0000
  Li  Li5       1.0  0.68600  0.66300  0.51200  1.0000
  Li  Li6       1.0  0.31600  0.31000  0.52700  1.0000
  Li  Li7       1.0  0.50700  0.04380  0.52900  1.0000
  Li  Li8       1.0  0.23800  0.49700  0.98300  1.0000
  Ni  Ni1       1.0  0.08330  0.83600  0.00312  1.0000
  Ni  Ni2       1.0  0.58700  0.84300  0.98500  1.0000
  Ni  Ni3       1.0  0.91700  0.17000  0.99400  1.0000
  Ni  Ni4       1.0  0.41100  0.14500  0.99500  1.0000
  O   O1        1.0  0.78800  0.93400  0.21800  1.0000
  O   O2        1.0  0.96500  0.57500  0.22100  1.0000
  O   O3        1.0  0.11300  0.22500  0.22800  1.0000
  O   O4        1.0  0.28800  0.93600  0.23100  1.0000
  O   O5        1.0  0.60500  0.21400  0.23400  1.0000
  O   O6        1.0  0.72100  0.07630  0.75100  1.0000
  O   O7        1.0  0.38900  0.74900  0.75500  1.0000
  O   O8        1.0  0.89400  0.78700  0.77500  1.0000
  O   O9        1.0  0.03550  0.43300  0.77600  1.0000
  O   O10       1.0  0.53200  0.42300  0.78500  1.0000
  O   O11       1.0  0.21200  0.07570  0.78900  1.0000
