data_image0
_chemical_formula_structural       Cl4N24Sb4
_chemical_formula_sum              "Cl4 N24 Sb4"
_cell_length_a       6.93944
_cell_length_b       6.93944
_cell_length_c       12.3404
_cell_angle_alpha    101.511
_cell_angle_beta     101.511
_cell_angle_gamma    70.0921

_space_group_name_H-M_alt    "P 1"
_space_group_IT_number       1

loop_
  _space_group_symop_operation_xyz
  'x, y, z'

loop_
  _atom_site_type_symbol
  _atom_site_label
  _atom_site_symmetry_multiplicity
  _atom_site_fract_x
  _atom_site_fract_y
  _atom_site_fract_z
  _atom_site_occupancy
  Cl  Cl1       1.0  0.73400  0.43900  0.09490  1.0000
  Cl  Cl2       1.0  0.56100  0.26600  0.40500  1.0000
  Cl  Cl3       1.0  0.43900  0.73400  0.59500  1.0000
  Cl  Cl4       1.0  0.26600  0.56100  0.90500  1.0000
  N   N1        1.0  0.94400  0.98000  0.02490  1.0000
  N   N2        1.0  0.43200  0.16900  0.07090  1.0000
  N   N3        1.0  0.33800  0.33700  0.12000  1.0000
  N   N4        1.0  0.25100  0.49400  0.16700  1.0000
  N   N5        1.0  0.79800  0.86200  0.18400  1.0000
  N   N6        1.0  0.16000  0.12500  0.22900  1.0000
  N   N7        1.0  0.87500  0.84000  0.27100  1.0000
  N   N8        1.0  0.13800  0.20200  0.31600  1.0000
  N   N9        1.0  0.50600  0.74900  0.33300  1.0000
  N   N10       1.0  0.66300  0.66200  0.38000  1.0000
  N   N11       1.0  0.83100  0.56800  0.42900  1.0000
  N   N12       1.0  0.02040  0.05600  0.47500  1.0000
  N   N13       1.0  0.98000  0.94400  0.52500  1.0000
  N   N14       1.0  0.16900  0.43200  0.57100  1.0000
  N   N15       1.0  0.33700  0.33800  0.62000  1.0000
  N   N16       1.0  0.49400  0.25100  0.66700  1.0000
  N   N17       1.0  0.86200  0.79800  0.68400  1.0000
  N   N18       1.0  0.12500  0.16000  0.72900  1.0000
  N   N19       1.0  0.84000  0.87500  0.77100  1.0000
  N   N20       1.0  0.20200  0.13800  0.81600  1.0000
  N   N21       1.0  0.74900  0.50600  0.83300  1.0000
  N   N22       1.0  0.66200  0.66300  0.88000  1.0000
  N   N23       1.0  0.56800  0.83100  0.92900  1.0000
  N   N24       1.0  0.05600  0.02040  0.97500  1.0000
  Sb  Sb1       1.0  0.37300  0.83200  0.04700  1.0000
  Sb  Sb2       1.0  0.16800  0.62700  0.45300  1.0000
  Sb  Sb3       1.0  0.83200  0.37300  0.54700  1.0000
  Sb  Sb4       1.0  0.62700  0.16800  0.95300  1.0000
