data_image0
_chemical_formula_structural       B6Ga4Li4O18Rb2
_chemical_formula_sum              "B6 Ga4 Li4 O18 Rb2"
_cell_length_a       6.20531
_cell_length_b       4.95437
_cell_length_c       12.6573
_cell_angle_alpha    90
_cell_angle_beta     90.4176
_cell_angle_gamma    90

_space_group_name_H-M_alt    "P 1"
_space_group_IT_number       1

loop_
  _space_group_symop_operation_xyz
  'x, y, z'

loop_
  _atom_site_type_symbol
  _atom_site_label
  _atom_site_symmetry_multiplicity
  _atom_site_fract_x
  _atom_site_fract_y
  _atom_site_fract_z
  _atom_site_occupancy
  B   B1        1.0  0.80400  0.18400  0.04350  1.0000
  B   B2        1.0  0.50000  0.33200  0.25000  1.0000
  B   B3        1.0  0.19600  0.18400  0.45600  1.0000
  B   B4        1.0  0.80400  0.81600  0.54400  1.0000
  B   B5        1.0  0.50000  0.66800  0.75000  1.0000
  B   B6        1.0  0.19600  0.81600  0.95600  1.0000
  Ga  Ga1       1.0  0.23400  0.31900  0.06440  1.0000
  Ga  Ga2       1.0  0.76600  0.31900  0.43600  1.0000
  Ga  Ga3       1.0  0.23400  0.68100  0.56400  1.0000
  Ga  Ga4       1.0  0.76600  0.68100  0.93600  1.0000
  Li  Li1       1.0  0.50500  0.82700  0.13500  1.0000
  Li  Li2       1.0  0.49500  0.82700  0.36500  1.0000
  Li  Li3       1.0  0.50500  0.17300  0.63500  1.0000
  Li  Li4       1.0  0.49500  0.17300  0.86500  1.0000
  O   O1        1.0  0.30400  0.67200  0.03400  1.0000
  O   O2        1.0  0.76400  0.90900  0.05270  1.0000
  O   O3        1.0  0.95000  0.30700  0.11000  1.0000
  O   O4        1.0  0.39900  0.17600  0.17200  1.0000
  O   O5        1.0  0.50000  0.60200  0.25000  1.0000
  O   O6        1.0  0.60100  0.17600  0.32800  1.0000
  O   O7        1.0  0.05000  0.30700  0.39000  1.0000
  O   O8        1.0  0.23600  0.90900  0.44700  1.0000
  O   O9        1.0  0.69600  0.67200  0.46600  1.0000
  O   O10       1.0  0.30400  0.32800  0.53400  1.0000
  O   O11       1.0  0.76400  0.09130  0.55300  1.0000
  O   O12       1.0  0.95000  0.69300  0.61000  1.0000
  O   O13       1.0  0.39900  0.82400  0.67200  1.0000
  O   O14       1.0  0.50000  0.39800  0.75000  1.0000
  O   O15       1.0  0.60100  0.82400  0.82800  1.0000
  O   O16       1.0  0.05000  0.69300  0.89000  1.0000
  O   O17       1.0  0.23600  0.09130  0.94700  1.0000
  O   O18       1.0  0.69600  0.32800  0.96600  1.0000
  Rb  Rb1       1.0  0.00000  0.79200  0.25000  1.0000
  Rb  Rb2       1.0  0.00000  0.20800  0.75000  1.0000
