data_image0
_chemical_formula_structural       Li8O11Os4
_chemical_formula_sum              "Li8 O11 Os4"
_cell_length_a       9.93129
_cell_length_b       4.83637
_cell_length_c       5.16703
_cell_angle_alpha    99.3629
_cell_angle_beta     100.022
_cell_angle_gamma    116.925

_space_group_name_H-M_alt    "P 1"
_space_group_IT_number       1

loop_
  _space_group_symop_operation_xyz
  'x, y, z'

loop_
  _atom_site_type_symbol
  _atom_site_label
  _atom_site_symmetry_multiplicity
  _atom_site_fract_x
  _atom_site_fract_y
  _atom_site_fract_z
  _atom_site_occupancy
  Li  Li1       1.0  0.75100  0.49200  0.00021  1.0000
  Li  Li2       1.0  0.83100  0.32700  0.49600  1.0000
  Li  Li3       1.0  0.99800  0.99900  0.49800  1.0000
  Li  Li4       1.0  0.67600  0.67400  0.50000  1.0000
  Li  Li5       1.0  0.32300  0.31700  0.50400  1.0000
  Li  Li6       1.0  0.16800  0.66900  0.50600  1.0000
  Li  Li7       1.0  0.50600  0.01720  0.51500  1.0000
  Li  Li8       1.0  0.24900  0.51000  0.98700  1.0000
  O   O1        1.0  0.28700  0.93000  0.22000  1.0000
  O   O2        1.0  0.78000  0.90200  0.22600  1.0000
  O   O3        1.0  0.95900  0.57200  0.23100  1.0000
  O   O4        1.0  0.13100  0.26800  0.26400  1.0000
  O   O5        1.0  0.62500  0.24400  0.26800  1.0000
  O   O6        1.0  0.37100  0.74200  0.73200  1.0000
  O   O7        1.0  0.87100  0.73500  0.73300  1.0000
  O   O8        1.0  0.54500  0.43200  0.75300  1.0000
  O   O9        1.0  0.04190  0.43100  0.77100  1.0000
  O   O10       1.0  0.21900  0.09560  0.77500  1.0000
  O   O11       1.0  0.71900  0.07960  0.78100  1.0000
  Os  Os1       1.0  0.92300  0.14600  0.00080  1.0000
  Os  Os2       1.0  0.43300  0.18800  0.00443  1.0000
  Os  Os3       1.0  0.56000  0.80800  0.01100  1.0000
  Os  Os4       1.0  0.07580  0.85500  0.99900  1.0000
