data_image0
_chemical_formula_structural       La8O8S12Sn4
_chemical_formula_sum              "La8 O8 S12 Sn4"
_cell_length_a       5.85251
_cell_length_b       5.87238
_cell_length_c       19.1176
_cell_angle_alpha    90
_cell_angle_beta     90
_cell_angle_gamma    90

_space_group_name_H-M_alt    "P 1"
_space_group_IT_number       1

loop_
  _space_group_symop_operation_xyz
  'x, y, z'

loop_
  _atom_site_type_symbol
  _atom_site_label
  _atom_site_symmetry_multiplicity
  _atom_site_fract_x
  _atom_site_fract_y
  _atom_site_fract_z
  _atom_site_occupancy
  La  La1       1.0  0.00250  0.25200  0.06370  1.0000
  La  La2       1.0  0.49700  0.75200  0.06370  1.0000
  La  La3       1.0  0.00250  0.25200  0.43600  1.0000
  La  La4       1.0  0.49700  0.75200  0.43600  1.0000
  La  La5       1.0  0.50300  0.24800  0.56400  1.0000
  La  La6       1.0  0.99700  0.74800  0.56400  1.0000
  La  La7       1.0  0.50300  0.24800  0.93600  1.0000
  La  La8       1.0  0.99700  0.74800  0.93600  1.0000
  O   O1        1.0  0.74900  0.49900  0.00041  1.0000
  O   O2        1.0  0.75100  0.99900  0.00041  1.0000
  O   O3        1.0  0.74900  0.49900  0.50000  1.0000
  O   O4        1.0  0.75100  0.99900  0.50000  1.0000
  O   O5        1.0  0.24900  0.00090  0.50000  1.0000
  O   O6        1.0  0.25100  0.50100  0.50000  1.0000
  O   O7        1.0  0.24900  0.00090  0.00000  1.0000
  O   O8        1.0  0.25100  0.50100  0.00000  1.0000
  S   S1        1.0  0.51200  0.25700  0.13300  1.0000
  S   S2        1.0  0.98800  0.75700  0.13300  1.0000
  S   S3        1.0  0.01350  0.23700  0.25000  1.0000
  S   S4        1.0  0.48700  0.73700  0.25000  1.0000
  S   S5        1.0  0.51200  0.25700  0.36700  1.0000
  S   S6        1.0  0.98800  0.75700  0.36700  1.0000
  S   S7        1.0  0.01200  0.24300  0.63300  1.0000
  S   S8        1.0  0.48800  0.74300  0.63300  1.0000
  S   S9        1.0  0.51300  0.26300  0.75000  1.0000
  S   S10       1.0  0.98700  0.76300  0.75000  1.0000
  S   S11       1.0  0.01200  0.24300  0.86700  1.0000
  S   S12       1.0  0.48800  0.74300  0.86700  1.0000
  Sn  Sn1       1.0  0.43100  0.15200  0.25000  1.0000
  Sn  Sn2       1.0  0.06920  0.65200  0.25000  1.0000
  Sn  Sn3       1.0  0.93100  0.34800  0.75000  1.0000
  Sn  Sn4       1.0  0.56900  0.84800  0.75000  1.0000
