data_image0
_chemical_formula_structural       As5BO20Pb6
_chemical_formula_sum              "As5 B1 O20 Pb6"
_cell_length_a       7.20047
_cell_length_b       7.20286
_cell_length_c       9.80087
_cell_angle_alpha    90
_cell_angle_beta     90
_cell_angle_gamma    90.0043

_space_group_name_H-M_alt    "P 1"
_space_group_IT_number       1

loop_
  _space_group_symop_operation_xyz
  'x, y, z'

loop_
  _atom_site_type_symbol
  _atom_site_label
  _atom_site_symmetry_multiplicity
  _atom_site_fract_x
  _atom_site_fract_y
  _atom_site_fract_z
  _atom_site_occupancy
  As  As1       1.0  0.00000  0.00000  0.00000  1.0000
  As  As2       1.0  0.73000  0.34300  0.28600  1.0000
  As  As3       1.0  0.27000  0.65700  0.28600  1.0000
  As  As4       1.0  0.34300  0.27000  0.71400  1.0000
  As  As5       1.0  0.65700  0.73000  0.71400  1.0000
  B   B1        1.0  0.50000  0.50000  0.50000  1.0000
  O   O1        1.0  0.17200  0.10800  0.09240  1.0000
  O   O2        1.0  0.82800  0.89200  0.09240  1.0000
  O   O3        1.0  0.20500  0.48800  0.17600  1.0000
  O   O4        1.0  0.79500  0.51200  0.17600  1.0000
  O   O5        1.0  0.55000  0.20700  0.23600  1.0000
  O   O6        1.0  0.45000  0.79300  0.23600  1.0000
  O   O7        1.0  0.89700  0.19900  0.35300  1.0000
  O   O8        1.0  0.10300  0.80100  0.35300  1.0000
  O   O9        1.0  0.67400  0.49600  0.42300  1.0000
  O   O10       1.0  0.32600  0.50400  0.42300  1.0000
  O   O11       1.0  0.49500  0.32600  0.57700  1.0000
  O   O12       1.0  0.50500  0.67400  0.57700  1.0000
  O   O13       1.0  0.19900  0.10300  0.64700  1.0000
  O   O14       1.0  0.80100  0.89700  0.64700  1.0000
  O   O15       1.0  0.20700  0.45000  0.76400  1.0000
  O   O16       1.0  0.79300  0.55000  0.76400  1.0000
  O   O17       1.0  0.51200  0.20500  0.82400  1.0000
  O   O18       1.0  0.48800  0.79500  0.82400  1.0000
  O   O19       1.0  0.89200  0.17200  0.90800  1.0000
  O   O20       1.0  0.10800  0.82800  0.90800  1.0000
  Pb  Pb1       1.0  0.50000  0.00000  0.01790  1.0000
  Pb  Pb2       1.0  0.22900  0.17000  0.32700  1.0000
  Pb  Pb3       1.0  0.77100  0.83000  0.32700  1.0000
  Pb  Pb4       1.0  0.83000  0.22900  0.67300  1.0000
  Pb  Pb5       1.0  0.17000  0.77100  0.67300  1.0000
  Pb  Pb6       1.0  0.00000  0.50000  0.98200  1.0000
