data_image0
_chemical_formula_structural       Ba4O20Se8
_chemical_formula_sum              "Ba4 O20 Se8"
_cell_length_a       4.5153
_cell_length_b       9.72194
_cell_length_c       11.632
_cell_angle_alpha    90
_cell_angle_beta     90
_cell_angle_gamma    92.3238

_space_group_name_H-M_alt    "P 1"
_space_group_IT_number       1

loop_
  _space_group_symop_operation_xyz
  'x, y, z'

loop_
  _atom_site_type_symbol
  _atom_site_label
  _atom_site_symmetry_multiplicity
  _atom_site_fract_x
  _atom_site_fract_y
  _atom_site_fract_z
  _atom_site_occupancy
  Ba  Ba1       1.0  0.24300  0.46300  0.16900  1.0000
  Ba  Ba2       1.0  0.24300  0.96300  0.33100  1.0000
  Ba  Ba3       1.0  0.75700  0.03670  0.66900  1.0000
  Ba  Ba4       1.0  0.75700  0.53700  0.83100  1.0000
  O   O1        1.0  0.13000  0.15100  0.03620  1.0000
  O   O2        1.0  0.75400  0.59600  0.05940  1.0000
  O   O3        1.0  0.71400  0.29800  0.14100  1.0000
  O   O4        1.0  0.16500  0.76100  0.15600  1.0000
  O   O5        1.0  0.75500  0.03230  0.19000  1.0000
  O   O6        1.0  0.75500  0.53200  0.31000  1.0000
  O   O7        1.0  0.16500  0.26100  0.34400  1.0000
  O   O8        1.0  0.71400  0.79800  0.35900  1.0000
  O   O9        1.0  0.75400  0.09560  0.44100  1.0000
  O   O10       1.0  0.13000  0.65100  0.46400  1.0000
  O   O11       1.0  0.87000  0.34900  0.53600  1.0000
  O   O12       1.0  0.24600  0.90400  0.55900  1.0000
  O   O13       1.0  0.28600  0.20200  0.64100  1.0000
  O   O14       1.0  0.83500  0.73900  0.65600  1.0000
  O   O15       1.0  0.24500  0.46800  0.69000  1.0000
  O   O16       1.0  0.24500  0.96800  0.81000  1.0000
  O   O17       1.0  0.83500  0.23900  0.84400  1.0000
  O   O18       1.0  0.28600  0.70200  0.85900  1.0000
  O   O19       1.0  0.24600  0.40400  0.94100  1.0000
  O   O20       1.0  0.87000  0.84900  0.96400  1.0000
  Se  Se1       1.0  0.73000  0.14200  0.07820  1.0000
  Se  Se2       1.0  0.80800  0.75900  0.10900  1.0000
  Se  Se3       1.0  0.80800  0.25900  0.39100  1.0000
  Se  Se4       1.0  0.73000  0.64200  0.42200  1.0000
  Se  Se5       1.0  0.27000  0.35800  0.57800  1.0000
  Se  Se6       1.0  0.19200  0.74100  0.60900  1.0000
  Se  Se7       1.0  0.19200  0.24100  0.89100  1.0000
  Se  Se8       1.0  0.27000  0.85800  0.92200  1.0000
