data_image0
_chemical_formula_structural       Ni16P8Si8
_chemical_formula_sum              "Ni16 P8 Si8"
_cell_length_a       4.9795
_cell_length_b       5.8853
_cell_length_c       13.6062
_cell_angle_alpha    90
_cell_angle_beta     90
_cell_angle_gamma    90

_space_group_name_H-M_alt    "P 1"
_space_group_IT_number       1

loop_
  _space_group_symop_operation_xyz
  'x, y, z'

loop_
  _atom_site_type_symbol
  _atom_site_label
  _atom_site_symmetry_multiplicity
  _atom_site_fract_x
  _atom_site_fract_y
  _atom_site_fract_z
  _atom_site_occupancy
  Ni  Ni1       1.0  0.01330  0.69700  0.06490  1.0000
  Ni  Ni2       1.0  0.51300  0.80300  0.06490  1.0000
  Ni  Ni3       1.0  0.48600  0.19600  0.17700  1.0000
  Ni  Ni4       1.0  0.98600  0.30400  0.17700  1.0000
  Ni  Ni5       1.0  0.48600  0.69600  0.32300  1.0000
  Ni  Ni6       1.0  0.98600  0.80400  0.32300  1.0000
  Ni  Ni7       1.0  0.01330  0.19700  0.43500  1.0000
  Ni  Ni8       1.0  0.51300  0.30300  0.43500  1.0000
  Ni  Ni9       1.0  0.48700  0.69700  0.56500  1.0000
  Ni  Ni10      1.0  0.98700  0.80300  0.56500  1.0000
  Ni  Ni11      1.0  0.01380  0.19600  0.67700  1.0000
  Ni  Ni12      1.0  0.51400  0.30400  0.67700  1.0000
  Ni  Ni13      1.0  0.01380  0.69600  0.82300  1.0000
  Ni  Ni14      1.0  0.51400  0.80400  0.82300  1.0000
  Ni  Ni15      1.0  0.48700  0.19700  0.93500  1.0000
  Ni  Ni16      1.0  0.98700  0.30300  0.93500  1.0000
  P   P1        1.0  0.31800  0.56100  0.18100  1.0000
  P   P2        1.0  0.81800  0.93900  0.18100  1.0000
  P   P3        1.0  0.31800  0.06080  0.31900  1.0000
  P   P4        1.0  0.81800  0.43900  0.31900  1.0000
  P   P5        1.0  0.18200  0.56100  0.68100  1.0000
  P   P6        1.0  0.68200  0.93900  0.68100  1.0000
  P   P7        1.0  0.18200  0.06080  0.81900  1.0000
  P   P8        1.0  0.68200  0.43900  0.81900  1.0000
  Si  Si1       1.0  0.18100  0.07690  0.06010  1.0000
  Si  Si2       1.0  0.68100  0.42300  0.06010  1.0000
  Si  Si3       1.0  0.18100  0.57700  0.44000  1.0000
  Si  Si4       1.0  0.68100  0.92300  0.44000  1.0000
  Si  Si5       1.0  0.31900  0.07690  0.56000  1.0000
  Si  Si6       1.0  0.81900  0.42300  0.56000  1.0000
  Si  Si7       1.0  0.31900  0.57700  0.94000  1.0000
  Si  Si8       1.0  0.81900  0.92300  0.94000  1.0000
