data_image0
_chemical_formula_structural       C4F20N4S4
_chemical_formula_sum              "C4 F20 N4 S4"
_cell_length_a       8.95667
_cell_length_b       5.4853
_cell_length_c       7.39146
_cell_angle_alpha    90
_cell_angle_beta     90
_cell_angle_gamma    90

_space_group_name_H-M_alt    "P 1"
_space_group_IT_number       1

loop_
  _space_group_symop_operation_xyz
  'x, y, z'

loop_
  _atom_site_type_symbol
  _atom_site_label
  _atom_site_symmetry_multiplicity
  _atom_site_fract_x
  _atom_site_fract_y
  _atom_site_fract_z
  _atom_site_occupancy
  C   C1        1.0  0.48100  0.25000  0.06990  1.0000
  C   C2        1.0  0.98100  0.25000  0.43000  1.0000
  C   C3        1.0  0.01940  0.75000  0.57000  1.0000
  C   C4        1.0  0.51900  0.75000  0.93000  1.0000
  F   F1        1.0  0.81300  0.03820  0.08390  1.0000
  F   F2        1.0  0.81300  0.46200  0.08390  1.0000
  F   F3        1.0  0.11000  0.25000  0.11200  1.0000
  F   F4        1.0  0.97200  0.75000  0.17500  1.0000
  F   F5        1.0  0.23800  0.75000  0.22400  1.0000
  F   F6        1.0  0.73800  0.75000  0.27600  1.0000
  F   F7        1.0  0.47200  0.75000  0.32500  1.0000
  F   F8        1.0  0.61000  0.25000  0.38800  1.0000
  F   F9        1.0  0.31300  0.03820  0.41600  1.0000
  F   F10       1.0  0.31300  0.46200  0.41600  1.0000
  F   F11       1.0  0.68700  0.53800  0.58400  1.0000
  F   F12       1.0  0.68700  0.96200  0.58400  1.0000
  F   F13       1.0  0.39000  0.75000  0.61200  1.0000
  F   F14       1.0  0.52800  0.25000  0.67500  1.0000
  F   F15       1.0  0.26200  0.25000  0.72400  1.0000
  F   F16       1.0  0.76200  0.25000  0.77600  1.0000
  F   F17       1.0  0.02780  0.25000  0.82500  1.0000
  F   F18       1.0  0.89000  0.75000  0.88800  1.0000
  F   F19       1.0  0.18700  0.53800  0.91600  1.0000
  F   F20       1.0  0.18700  0.96200  0.91600  1.0000
  N   N1        1.0  0.35600  0.25000  0.01700  1.0000
  N   N2        1.0  0.85600  0.25000  0.48300  1.0000
  N   N3        1.0  0.14400  0.75000  0.51700  1.0000
  N   N4        1.0  0.64400  0.75000  0.98300  1.0000
  S   S1        1.0  0.81200  0.75000  0.08190  1.0000
  S   S2        1.0  0.31200  0.75000  0.41800  1.0000
  S   S3        1.0  0.68800  0.25000  0.58200  1.0000
  S   S4        1.0  0.18800  0.25000  0.91800  1.0000
