data_image0
_chemical_formula_structural       Cu4Li8O11
_chemical_formula_sum              "Cu4 Li8 O11"
_cell_length_a       9.91412
_cell_length_b       4.9372
_cell_length_c       4.94331
_cell_angle_alpha    100.303
_cell_angle_beta     99.6973
_cell_angle_gamma    119.849

_space_group_name_H-M_alt    "P 1"
_space_group_IT_number       1

loop_
  _space_group_symop_operation_xyz
  'x, y, z'

loop_
  _atom_site_type_symbol
  _atom_site_label
  _atom_site_symmetry_multiplicity
  _atom_site_fract_x
  _atom_site_fract_y
  _atom_site_fract_z
  _atom_site_occupancy
  Cu  Cu1       1.0  0.08400  0.83400  0.00208  1.0000
  Cu  Cu2       1.0  0.41700  0.16400  0.01920  1.0000
  Cu  Cu3       1.0  0.91100  0.16300  0.98400  1.0000
  Cu  Cu4       1.0  0.57800  0.82700  0.99200  1.0000
  Li  Li1       1.0  0.99200  0.00000  0.49000  1.0000
  Li  Li2       1.0  0.83400  0.34100  0.49400  1.0000
  Li  Li3       1.0  0.17600  0.66500  0.50000  1.0000
  Li  Li4       1.0  0.67900  0.66900  0.50100  1.0000
  Li  Li5       1.0  0.31700  0.29600  0.52700  1.0000
  Li  Li6       1.0  0.50800  0.03520  0.53300  1.0000
  Li  Li7       1.0  0.24000  0.50300  0.98500  1.0000
  Li  Li8       1.0  0.75100  0.50000  0.99300  1.0000
  O   O1        1.0  0.96700  0.57800  0.22000  1.0000
  O   O2        1.0  0.77600  0.93000  0.22200  1.0000
  O   O3        1.0  0.10700  0.21500  0.22800  1.0000
  O   O4        1.0  0.60500  0.21200  0.23200  1.0000
  O   O5        1.0  0.30700  0.94600  0.25300  1.0000
  O   O6        1.0  0.72100  0.08300  0.73400  1.0000
  O   O7        1.0  0.39000  0.72800  0.73800  1.0000
  O   O8        1.0  0.87900  0.78400  0.75300  1.0000
  O   O9        1.0  0.04230  0.44600  0.76300  1.0000
  O   O10       1.0  0.53000  0.41700  0.80300  1.0000
  O   O11       1.0  0.22000  0.08290  0.80300  1.0000
