data_image0
_chemical_formula_structural       Au20Ca10Cd4
_chemical_formula_sum              "Au20 Ca10 Cd4"
_cell_length_a       8.69591
_cell_length_b       8.69591
_cell_length_c       10.3866
_cell_angle_alpha    90
_cell_angle_beta     90
_cell_angle_gamma    72.4493

_space_group_name_H-M_alt    "P 1"
_space_group_IT_number       1

loop_
  _space_group_symop_operation_xyz
  'x, y, z'

loop_
  _atom_site_type_symbol
  _atom_site_label
  _atom_site_symmetry_multiplicity
  _atom_site_fract_x
  _atom_site_fract_y
  _atom_site_fract_z
  _atom_site_occupancy
  Au  Au1       1.0  0.06800  0.64400  0.01160  1.0000
  Au  Au2       1.0  0.35600  0.93200  0.01160  1.0000
  Au  Au3       1.0  0.39900  0.60100  0.09620  1.0000
  Au  Au4       1.0  0.11400  0.17500  0.21100  1.0000
  Au  Au5       1.0  0.82500  0.88600  0.21100  1.0000
  Au  Au6       1.0  0.32500  0.38600  0.28900  1.0000
  Au  Au7       1.0  0.61400  0.67500  0.28900  1.0000
  Au  Au8       1.0  0.89900  0.10100  0.40400  1.0000
  Au  Au9       1.0  0.56800  0.14400  0.48800  1.0000
  Au  Au10      1.0  0.85600  0.43200  0.48800  1.0000
  Au  Au11      1.0  0.14400  0.56800  0.51200  1.0000
  Au  Au12      1.0  0.43200  0.85600  0.51200  1.0000
  Au  Au13      1.0  0.10100  0.89900  0.59600  1.0000
  Au  Au14      1.0  0.38600  0.32500  0.71100  1.0000
  Au  Au15      1.0  0.67500  0.61400  0.71100  1.0000
  Au  Au16      1.0  0.17500  0.11400  0.78900  1.0000
  Au  Au17      1.0  0.88600  0.82500  0.78900  1.0000
  Au  Au18      1.0  0.60100  0.39900  0.90400  1.0000
  Au  Au19      1.0  0.64400  0.06800  0.98800  1.0000
  Au  Au20      1.0  0.93200  0.35600  0.98800  1.0000
  Ca  Ca1       1.0  0.00000  0.00000  0.00000  1.0000
  Ca  Ca2       1.0  0.30200  0.30200  0.00000  1.0000
  Ca  Ca3       1.0  0.69800  0.69800  0.00000  1.0000
  Ca  Ca4       1.0  0.69400  0.30600  0.20000  1.0000
  Ca  Ca5       1.0  0.19400  0.80600  0.30000  1.0000
  Ca  Ca6       1.0  0.19800  0.19800  0.50000  1.0000
  Ca  Ca7       1.0  0.50000  0.50000  0.50000  1.0000
  Ca  Ca8       1.0  0.80200  0.80200  0.50000  1.0000
  Ca  Ca9       1.0  0.80600  0.19400  0.70000  1.0000
  Ca  Ca10      1.0  0.30600  0.69400  0.80000  1.0000
  Cd  Cd1       1.0  0.47000  0.02960  0.25000  1.0000
  Cd  Cd2       1.0  0.97000  0.53000  0.25000  1.0000
  Cd  Cd3       1.0  0.02960  0.47000  0.75000  1.0000
  Cd  Cd4       1.0  0.53000  0.97000  0.75000  1.0000
