data_image0
_chemical_formula_structural       Cr2Mg4O22V6
_chemical_formula_sum              "Cr2 Mg4 O22 V6"
_cell_length_a       6.42123
_cell_length_b       6.80957
_cell_length_c       10.0265
_cell_angle_alpha    97.5897
_cell_angle_beta     103.447
_cell_angle_gamma    101.78

_space_group_name_H-M_alt    "P 1"
_space_group_IT_number       1

loop_
  _space_group_symop_operation_xyz
  'x, y, z'

loop_
  _atom_site_type_symbol
  _atom_site_label
  _atom_site_symmetry_multiplicity
  _atom_site_fract_x
  _atom_site_fract_y
  _atom_site_fract_z
  _atom_site_occupancy
  Cr  Cr1       1.0  0.30800  0.82500  0.49200  1.0000
  Cr  Cr2       1.0  0.69200  0.17500  0.50800  1.0000
  Mg  Mg1       1.0  0.82000  0.12200  0.16300  1.0000
  Mg  Mg2       1.0  0.22800  0.49200  0.22500  1.0000
  Mg  Mg3       1.0  0.77200  0.50800  0.77500  1.0000
  Mg  Mg4       1.0  0.18000  0.87800  0.83700  1.0000
  O   O1        1.0  0.30900  0.93200  0.04590  1.0000
  O   O2        1.0  0.37100  0.48800  0.06850  1.0000
  O   O3        1.0  0.80700  0.82100  0.15600  1.0000
  O   O4        1.0  0.88900  0.43500  0.16300  1.0000
  O   O5        1.0  0.15600  0.18400  0.22200  1.0000
  O   O6        1.0  0.25700  0.79600  0.28500  1.0000
  O   O7        1.0  0.61600  0.13100  0.29400  1.0000
  O   O8        1.0  0.60500  0.55900  0.29700  1.0000
  O   O9        1.0  0.27900  0.52900  0.44000  1.0000
  O   O10       1.0  0.00123  0.78400  0.48100  1.0000
  O   O11       1.0  0.37500  0.12100  0.48800  1.0000
  O   O12       1.0  0.62500  0.87900  0.51200  1.0000
  O   O13       1.0  0.99900  0.21600  0.51900  1.0000
  O   O14       1.0  0.72100  0.47100  0.56000  1.0000
  O   O15       1.0  0.39500  0.44100  0.70300  1.0000
  O   O16       1.0  0.38400  0.86900  0.70600  1.0000
  O   O17       1.0  0.74300  0.20400  0.71500  1.0000
  O   O18       1.0  0.84400  0.81600  0.77800  1.0000
  O   O19       1.0  0.11100  0.56500  0.83700  1.0000
  O   O20       1.0  0.19300  0.17900  0.84400  1.0000
  O   O21       1.0  0.62900  0.51200  0.93100  1.0000
  O   O22       1.0  0.69100  0.06760  0.95400  1.0000
  V   V1        1.0  0.69200  0.57300  0.12100  1.0000
  V   V2        1.0  0.32800  0.01550  0.21300  1.0000
  V   V3        1.0  0.73900  0.67000  0.46600  1.0000
  V   V4        1.0  0.26100  0.33000  0.53400  1.0000
  V   V5        1.0  0.67200  0.98500  0.78700  1.0000
  V   V6        1.0  0.30800  0.42700  0.87900  1.0000
