data_image0
_chemical_formula_structural       Ba4Li8O11
_chemical_formula_sum              "Ba4 Li8 O11"
_cell_length_a       13.3858
_cell_length_b       6.67389
_cell_length_c       4.19711
_cell_angle_alpha    99.8461
_cell_angle_beta     90.8302
_cell_angle_gamma    125.996

_space_group_name_H-M_alt    "P 1"
_space_group_IT_number       1

loop_
  _space_group_symop_operation_xyz
  'x, y, z'

loop_
  _atom_site_type_symbol
  _atom_site_label
  _atom_site_symmetry_multiplicity
  _atom_site_fract_x
  _atom_site_fract_y
  _atom_site_fract_z
  _atom_site_occupancy
  Ba  Ba1       1.0  0.92800  0.28300  0.02340  1.0000
  Ba  Ba2       1.0  0.55800  0.71900  0.07710  1.0000
  Ba  Ba3       1.0  0.40300  0.07440  0.16900  1.0000
  Ba  Ba4       1.0  0.11700  0.90300  0.77100  1.0000
  Li  Li1       1.0  0.73900  0.54700  0.02000  1.0000
  Li  Li2       1.0  0.94200  0.93300  0.36800  1.0000
  Li  Li3       1.0  0.73700  0.35300  0.49300  1.0000
  Li  Li4       1.0  0.31700  0.42400  0.49400  1.0000
  Li  Li5       1.0  0.21400  0.61200  0.50800  1.0000
  Li  Li6       1.0  0.74200  0.74000  0.60500  1.0000
  Li  Li7       1.0  0.55000  0.09410  0.68200  1.0000
  Li  Li8       1.0  0.21700  0.45700  0.99600  1.0000
  O   O1        1.0  0.65200  0.18700  0.06070  1.0000
  O   O2        1.0  0.17000  0.71500  0.18600  1.0000
  O   O3        1.0  0.79300  0.88500  0.23600  1.0000
  O   O4        1.0  0.12900  0.22200  0.32200  1.0000
  O   O5        1.0  0.89700  0.60300  0.40000  1.0000
  O   O6        1.0  0.39000  0.78400  0.60300  1.0000
  O   O7        1.0  0.08060  0.29300  0.61000  1.0000
  O   O8        1.0  0.59700  0.42000  0.62700  1.0000
  O   O9        1.0  0.87800  0.71500  0.72400  1.0000
  O   O10       1.0  0.69400  0.10400  0.76000  1.0000
  O   O11       1.0  0.32400  0.33300  0.94600  1.0000
