data_image0
_chemical_formula_structural       Nb4Rb12S16
_chemical_formula_sum              "Nb4 Rb12 S16"
_cell_length_a       9.74422
_cell_length_b       9.66954
_cell_length_c       11.1984
_cell_angle_alpha    90
_cell_angle_beta     90
_cell_angle_gamma    90

_space_group_name_H-M_alt    "P 1"
_space_group_IT_number       1

loop_
  _space_group_symop_operation_xyz
  'x, y, z'

loop_
  _atom_site_type_symbol
  _atom_site_label
  _atom_site_symmetry_multiplicity
  _atom_site_fract_x
  _atom_site_fract_y
  _atom_site_fract_z
  _atom_site_occupancy
  Nb  Nb1       1.0  0.48600  0.21900  0.25000  1.0000
  Nb  Nb2       1.0  0.01420  0.71900  0.25000  1.0000
  Nb  Nb3       1.0  0.98600  0.28100  0.75000  1.0000
  Nb  Nb4       1.0  0.51400  0.78100  0.75000  1.0000
  Rb  Rb1       1.0  0.21000  0.44900  0.04390  1.0000
  Rb  Rb2       1.0  0.29000  0.94900  0.04390  1.0000
  Rb  Rb3       1.0  0.91700  0.14300  0.25000  1.0000
  Rb  Rb4       1.0  0.58300  0.64300  0.25000  1.0000
  Rb  Rb5       1.0  0.21000  0.44900  0.45600  1.0000
  Rb  Rb6       1.0  0.29000  0.94900  0.45600  1.0000
  Rb  Rb7       1.0  0.71000  0.05110  0.54400  1.0000
  Rb  Rb8       1.0  0.79000  0.55100  0.54400  1.0000
  Rb  Rb9       1.0  0.41700  0.35700  0.75000  1.0000
  Rb  Rb10      1.0  0.08320  0.85700  0.75000  1.0000
  Rb  Rb11      1.0  0.71000  0.05110  0.95600  1.0000
  Rb  Rb12      1.0  0.79000  0.55100  0.95600  1.0000
  S   S1        1.0  0.55200  0.33400  0.08060  1.0000
  S   S2        1.0  0.94800  0.83400  0.08060  1.0000
  S   S3        1.0  0.57900  0.00064  0.25000  1.0000
  S   S4        1.0  0.25100  0.20100  0.25000  1.0000
  S   S5        1.0  0.92100  0.50100  0.25000  1.0000
  S   S6        1.0  0.24900  0.70100  0.25000  1.0000
  S   S7        1.0  0.55200  0.33400  0.41900  1.0000
  S   S8        1.0  0.94800  0.83400  0.41900  1.0000
  S   S9        1.0  0.05170  0.16600  0.58100  1.0000
  S   S10       1.0  0.44800  0.66600  0.58100  1.0000
  S   S11       1.0  0.75100  0.29900  0.75000  1.0000
  S   S12       1.0  0.07910  0.49900  0.75000  1.0000
  S   S13       1.0  0.74900  0.79900  0.75000  1.0000
  S   S14       1.0  0.42100  0.99900  0.75000  1.0000
  S   S15       1.0  0.05170  0.16600  0.91900  1.0000
  S   S16       1.0  0.44800  0.66600  0.91900  1.0000
