data_image0
_chemical_formula_structural       Fe2Mg4O22V6
_chemical_formula_sum              "Fe2 Mg4 O22 V6"
_cell_length_a       6.41674
_cell_length_b       6.78577
_cell_length_c       10.0675
_cell_angle_alpha    97.7035
_cell_angle_beta     103.397
_cell_angle_gamma    101.719

_space_group_name_H-M_alt    "P 1"
_space_group_IT_number       1

loop_
  _space_group_symop_operation_xyz
  'x, y, z'

loop_
  _atom_site_type_symbol
  _atom_site_label
  _atom_site_symmetry_multiplicity
  _atom_site_fract_x
  _atom_site_fract_y
  _atom_site_fract_z
  _atom_site_occupancy
  Fe  Fe1       1.0  0.24100  0.49500  0.22700  1.0000
  Fe  Fe2       1.0  0.75900  0.50500  0.77300  1.0000
  Mg  Mg1       1.0  0.82900  0.12400  0.16400  1.0000
  Mg  Mg2       1.0  0.30600  0.82700  0.49700  1.0000
  Mg  Mg3       1.0  0.69400  0.17300  0.50300  1.0000
  Mg  Mg4       1.0  0.17100  0.87600  0.83600  1.0000
  O   O1        1.0  0.30900  0.92600  0.03770  1.0000
  O   O2        1.0  0.36700  0.49500  0.06440  1.0000
  O   O3        1.0  0.81500  0.82000  0.15700  1.0000
  O   O4        1.0  0.90500  0.44200  0.16900  1.0000
  O   O5        1.0  0.16200  0.19100  0.20800  1.0000
  O   O6        1.0  0.26000  0.78800  0.27300  1.0000
  O   O7        1.0  0.61400  0.12500  0.28100  1.0000
  O   O8        1.0  0.59700  0.55600  0.29200  1.0000
  O   O9        1.0  0.28500  0.52100  0.43100  1.0000
  O   O10       1.0  0.36800  0.12400  0.47700  1.0000
  O   O11       1.0  0.99600  0.77200  0.48600  1.0000
  O   O12       1.0  0.00405  0.22800  0.51400  1.0000
  O   O13       1.0  0.63200  0.87600  0.52300  1.0000
  O   O14       1.0  0.71500  0.47900  0.56900  1.0000
  O   O15       1.0  0.40300  0.44400  0.70800  1.0000
  O   O16       1.0  0.38600  0.87500  0.71900  1.0000
  O   O17       1.0  0.74000  0.21200  0.72700  1.0000
  O   O18       1.0  0.83800  0.80900  0.79200  1.0000
  O   O19       1.0  0.09490  0.55800  0.83100  1.0000
  O   O20       1.0  0.18500  0.18000  0.84300  1.0000
  O   O21       1.0  0.63300  0.50500  0.93600  1.0000
  O   O22       1.0  0.69100  0.07410  0.96200  1.0000
  V   V1        1.0  0.69700  0.57400  0.12700  1.0000
  V   V2        1.0  0.33300  0.01010  0.20500  1.0000
  V   V3        1.0  0.73300  0.67200  0.47000  1.0000
  V   V4        1.0  0.26700  0.32800  0.53000  1.0000
  V   V5        1.0  0.66700  0.99000  0.79500  1.0000
  V   V6        1.0  0.30300  0.42600  0.87300  1.0000
