data_image0
_chemical_formula_structural       B4Li8O11
_chemical_formula_sum              "B4 Li8 O11"
_cell_length_a       9.7133
_cell_length_b       4.85766
_cell_length_c       5.11084
_cell_angle_alpha    103.008
_cell_angle_beta     101.105
_cell_angle_gamma    119.774

_space_group_name_H-M_alt    "P 1"
_space_group_IT_number       1

loop_
  _space_group_symop_operation_xyz
  'x, y, z'

loop_
  _atom_site_type_symbol
  _atom_site_label
  _atom_site_symmetry_multiplicity
  _atom_site_fract_x
  _atom_site_fract_y
  _atom_site_fract_z
  _atom_site_occupancy
  B   B1        1.0  0.16900  0.83900  0.00195  1.0000
  B   B2        1.0  0.85000  0.06050  0.88600  1.0000
  B   B3        1.0  0.44000  0.31900  0.97000  1.0000
  B   B4        1.0  0.45300  0.83900  0.99600  1.0000
  Li  Li1       1.0  0.12100  0.24200  0.05810  1.0000
  Li  Li2       1.0  0.68900  0.72100  0.42800  1.0000
  Li  Li3       1.0  0.39700  0.37700  0.47200  1.0000
  Li  Li4       1.0  0.19300  0.72900  0.52800  1.0000
  Li  Li5       1.0  0.52500  0.01000  0.54700  1.0000
  Li  Li6       1.0  0.88100  0.39100  0.56300  1.0000
  Li  Li7       1.0  0.09180  0.12800  0.56600  1.0000
  Li  Li8       1.0  0.76000  0.53100  0.95900  1.0000
  O   O1        1.0  0.48000  0.66100  0.16500  1.0000
  O   O2        1.0  0.50100  0.17100  0.16800  1.0000
  O   O3        1.0  0.94100  0.25300  0.20300  1.0000
  O   O4        1.0  0.17600  0.97300  0.27100  1.0000
  O   O5        1.0  0.87300  0.96100  0.30700  1.0000
  O   O6        1.0  0.37900  0.70200  0.70800  1.0000
  O   O7        1.0  0.74200  0.12100  0.75000  1.0000
  O   O8        1.0  0.87800  0.81900  0.76500  1.0000
  O   O9        1.0  0.52100  0.36200  0.77500  1.0000
  O   O10       1.0  0.09440  0.50700  0.84000  1.0000
  O   O11       1.0  0.24300  0.08190  0.86400  1.0000
