data_image0
_chemical_formula_structural       Bi4Li8O11
_chemical_formula_sum              "Bi4 Li8 O11"
_cell_length_a       11.2479
_cell_length_b       5.68453
_cell_length_c       5.28534
_cell_angle_alpha    100.02
_cell_angle_beta     98.4048
_cell_angle_gamma    121.182

_space_group_name_H-M_alt    "P 1"
_space_group_IT_number       1

loop_
  _space_group_symop_operation_xyz
  'x, y, z'

loop_
  _atom_site_type_symbol
  _atom_site_label
  _atom_site_symmetry_multiplicity
  _atom_site_fract_x
  _atom_site_fract_y
  _atom_site_fract_z
  _atom_site_occupancy
  Bi  Bi1       1.0  0.57200  0.81800  0.00454  1.0000
  Bi  Bi2       1.0  0.91500  0.16900  0.01200  1.0000
  Bi  Bi3       1.0  0.42600  0.19300  0.03340  1.0000
  Bi  Bi4       1.0  0.07980  0.83100  0.98000  1.0000
  Li  Li1       1.0  0.76400  0.53200  0.06380  1.0000
  Li  Li2       1.0  0.19500  0.62000  0.47800  1.0000
  Li  Li3       1.0  0.00152  0.97500  0.48700  1.0000
  Li  Li4       1.0  0.83200  0.35200  0.50100  1.0000
  Li  Li5       1.0  0.30000  0.21600  0.50400  1.0000
  Li  Li6       1.0  0.69600  0.66000  0.52300  1.0000
  Li  Li7       1.0  0.54400  0.10300  0.56300  1.0000
  Li  Li8       1.0  0.22300  0.50000  0.93100  1.0000
  O   O1        1.0  0.26100  0.85900  0.22000  1.0000
  O   O2        1.0  0.95300  0.60800  0.22500  1.0000
  O   O3        1.0  0.78500  0.90500  0.25300  1.0000
  O   O4        1.0  0.63700  0.26600  0.26200  1.0000
  O   O5        1.0  0.13400  0.21700  0.26400  1.0000
  O   O6        1.0  0.51900  0.40800  0.70100  1.0000
  O   O7        1.0  0.04370  0.46200  0.71400  1.0000
  O   O8        1.0  0.88400  0.74600  0.74000  1.0000
  O   O9        1.0  0.69100  0.03860  0.75100  1.0000
  O   O10       1.0  0.38100  0.81700  0.75800  1.0000
  O   O11       1.0  0.20400  0.12200  0.77800  1.0000
