data_image0
_chemical_formula_structural       Li8O11Rh4
_chemical_formula_sum              "Li8 O11 Rh4"
_cell_length_a       10.2261
_cell_length_b       5.03019
_cell_length_c       5.06045
_cell_angle_alpha    99.1802
_cell_angle_beta     99.7726
_cell_angle_gamma    120.554

_space_group_name_H-M_alt    "P 1"
_space_group_IT_number       1

loop_
  _space_group_symop_operation_xyz
  'x, y, z'

loop_
  _atom_site_type_symbol
  _atom_site_label
  _atom_site_symmetry_multiplicity
  _atom_site_fract_x
  _atom_site_fract_y
  _atom_site_fract_z
  _atom_site_occupancy
  Li  Li1       1.0  0.75200  0.49500  0.00026  1.0000
  Li  Li2       1.0  0.83300  0.33700  0.49700  1.0000
  Li  Li3       1.0  0.99800  1.00000  0.49800  1.0000
  Li  Li4       1.0  0.17000  0.66100  0.50200  1.0000
  Li  Li5       1.0  0.68600  0.66600  0.50500  1.0000
  Li  Li6       1.0  0.31600  0.31500  0.51000  1.0000
  Li  Li7       1.0  0.50400  0.02680  0.51800  1.0000
  Li  Li8       1.0  0.23700  0.49900  0.97600  1.0000
  O   O1        1.0  0.78700  0.91400  0.23700  1.0000
  O   O2        1.0  0.29600  0.94100  0.23800  1.0000
  O   O3        1.0  0.12300  0.24600  0.23900  1.0000
  O   O4        1.0  0.61400  0.21900  0.24100  1.0000
  O   O5        1.0  0.96200  0.58400  0.24500  1.0000
  O   O6        1.0  0.53800  0.42000  0.74900  1.0000
  O   O7        1.0  0.03680  0.42000  0.75200  1.0000
  O   O8        1.0  0.38200  0.75300  0.75700  1.0000
  O   O9        1.0  0.70900  0.07020  0.75800  1.0000
  O   O10       1.0  0.88200  0.76200  0.76200  1.0000
  O   O11       1.0  0.21400  0.08860  0.76900  1.0000
  Rh  Rh1       1.0  0.91600  0.17000  0.00048  1.0000
  Rh  Rh2       1.0  0.57700  0.81000  0.00130  1.0000
  Rh  Rh3       1.0  0.08370  0.83500  0.00185  1.0000
  Rh  Rh4       1.0  0.42300  0.18900  0.00269  1.0000
