data_image0
_chemical_formula_structural       O22Si4Sr4Ti5
_chemical_formula_sum              "O22 Si4 Sr4 Ti5"
_cell_length_a       5.63173
_cell_length_b       7.48977
_cell_length_c       11.3863
_cell_angle_alpha    94.2184
_cell_angle_beta     104.318
_cell_angle_gamma    112.084

_space_group_name_H-M_alt    "P 1"
_space_group_IT_number       1

loop_
  _space_group_symop_operation_xyz
  'x, y, z'

loop_
  _atom_site_type_symbol
  _atom_site_label
  _atom_site_symmetry_multiplicity
  _atom_site_fract_x
  _atom_site_fract_y
  _atom_site_fract_z
  _atom_site_occupancy
  O   O1        1.0  0.09590  0.19200  0.00000  1.0000
  O   O2        1.0  0.90400  0.80800  0.00000  1.0000
  O   O3        1.0  0.40500  0.80900  0.00106  1.0000
  O   O4        1.0  0.07780  0.53500  0.12100  1.0000
  O   O5        1.0  0.57800  0.53500  0.12100  1.0000
  O   O6        1.0  0.38100  0.05630  0.18200  1.0000
  O   O7        1.0  0.85700  0.05630  0.18200  1.0000
  O   O8        1.0  0.62200  0.90100  0.34400  1.0000
  O   O9        1.0  0.82700  0.29800  0.35500  1.0000
  O   O10       1.0  0.26100  0.11400  0.40900  1.0000
  O   O11       1.0  0.28400  0.63000  0.41800  1.0000
  O   O12       1.0  0.76400  0.63000  0.41800  1.0000
  O   O13       1.0  0.23600  0.37000  0.58200  1.0000
  O   O14       1.0  0.71600  0.37000  0.58200  1.0000
  O   O15       1.0  0.73900  0.88600  0.59100  1.0000
  O   O16       1.0  0.17300  0.70200  0.64500  1.0000
  O   O17       1.0  0.37800  0.09920  0.65600  1.0000
  O   O18       1.0  0.14300  0.94400  0.81800  1.0000
  O   O19       1.0  0.61900  0.94400  0.81800  1.0000
  O   O20       1.0  0.42200  0.46500  0.87900  1.0000
  O   O21       1.0  0.92200  0.46500  0.87900  1.0000
  O   O22       1.0  0.59500  0.19100  0.99900  1.0000
  Si  Si1       1.0  0.67600  0.08210  0.26900  1.0000
  Si  Si2       1.0  0.61200  0.76900  0.45400  1.0000
  Si  Si3       1.0  0.38800  0.23100  0.54600  1.0000
  Si  Si4       1.0  0.32400  0.91800  0.73100  1.0000
  Sr  Sr1       1.0  0.30800  0.35400  0.26100  1.0000
  Sr  Sr2       1.0  0.03110  0.79500  0.26700  1.0000
  Sr  Sr3       1.0  0.96900  0.20500  0.73300  1.0000
  Sr  Sr4       1.0  0.69200  0.64600  0.73900  1.0000
  Ti  Ti1       1.0  0.24300  0.00000  0.00000  1.0000
  Ti  Ti2       1.0  0.75700  0.00000  0.00000  1.0000
  Ti  Ti3       1.0  0.73000  0.46000  0.00049  1.0000
  Ti  Ti4       1.0  0.00000  0.50000  0.50000  1.0000
  Ti  Ti5       1.0  0.27000  0.54000  0.00000  1.0000
