data_image0
_chemical_formula_structural       K4Li8O11
_chemical_formula_sum              "K4 Li8 O11"
_cell_length_a       11.9256
_cell_length_b       5.88154
_cell_length_c       5.45383
_cell_angle_alpha    107.689
_cell_angle_beta     110.884
_cell_angle_gamma    114.304

_space_group_name_H-M_alt    "P 1"
_space_group_IT_number       1

loop_
  _space_group_symop_operation_xyz
  'x, y, z'

loop_
  _atom_site_type_symbol
  _atom_site_label
  _atom_site_symmetry_multiplicity
  _atom_site_fract_x
  _atom_site_fract_y
  _atom_site_fract_z
  _atom_site_occupancy
  K   K1        1.0  0.63800  0.92500  0.14300  1.0000
  K   K2        1.0  0.15200  0.96900  0.20700  1.0000
  K   K3        1.0  0.42000  0.15000  0.92800  1.0000
  K   K4        1.0  0.90700  0.16800  0.94200  1.0000
  Li  Li1       1.0  0.40600  0.86800  0.39600  1.0000
  Li  Li2       1.0  0.90500  0.83000  0.42500  1.0000
  Li  Li3       1.0  0.41400  0.49800  0.51400  1.0000
  Li  Li4       1.0  0.62000  0.57000  0.51900  1.0000
  Li  Li5       1.0  0.91600  0.49500  0.55300  1.0000
  Li  Li6       1.0  0.14500  0.61100  0.57800  1.0000
  Li  Li7       1.0  0.65600  0.29600  0.72500  1.0000
  Li  Li8       1.0  0.20700  0.35800  0.84700  1.0000
  O   O1        1.0  0.48100  0.65200  0.28600  1.0000
  O   O2        1.0  0.73100  0.50800  0.35700  1.0000
  O   O3        1.0  0.00729  0.68000  0.37000  1.0000
  O   O4        1.0  0.24300  0.54700  0.38400  1.0000
  O   O5        1.0  0.91900  0.16100  0.44400  1.0000
  O   O6        1.0  0.48000  0.26000  0.53200  1.0000
  O   O7        1.0  0.59700  0.89300  0.62600  1.0000
  O   O8        1.0  0.12800  0.94900  0.69400  1.0000
  O   O9        1.0  0.80600  0.58400  0.69400  1.0000
  O   O10       1.0  0.31900  0.58700  0.70500  1.0000
  O   O11       1.0  0.05580  0.42300  0.75600  1.0000
