data_image0
_chemical_formula_structural       La4O22Si4Ti5
_chemical_formula_sum              "La4 O22 Si4 Ti5"
_cell_length_a       5.6332
_cell_length_b       7.3869
_cell_length_c       11.1213
_cell_angle_alpha    99.8472
_cell_angle_beta     90
_cell_angle_gamma    112.414

_space_group_name_H-M_alt    "P 1"
_space_group_IT_number       1

loop_
  _space_group_symop_operation_xyz
  'x, y, z'

loop_
  _atom_site_type_symbol
  _atom_site_label
  _atom_site_symmetry_multiplicity
  _atom_site_fract_x
  _atom_site_fract_y
  _atom_site_fract_z
  _atom_site_occupancy
  La  La1       1.0  0.43100  0.86300  0.25300  1.0000
  La  La2       1.0  0.14200  0.28400  0.25900  1.0000
  La  La3       1.0  0.85800  0.71600  0.74100  1.0000
  La  La4       1.0  0.56900  0.13700  0.74700  1.0000
  O   O1        1.0  0.14900  0.29700  0.01680  1.0000
  O   O2        1.0  0.35700  0.71400  0.02110  1.0000
  O   O3        1.0  0.27200  0.04310  0.13500  1.0000
  O   O4        1.0  0.77100  0.04310  0.13500  1.0000
  O   O5        1.0  0.01410  0.55100  0.18600  1.0000
  O   O6        1.0  0.53700  0.55100  0.18600  1.0000
  O   O7        1.0  0.90900  0.81800  0.34200  1.0000
  O   O8        1.0  0.71700  0.43300  0.36200  1.0000
  O   O9        1.0  0.31000  0.62100  0.40100  1.0000
  O   O10       1.0  0.33500  0.14000  0.41300  1.0000
  O   O11       1.0  0.80500  0.14000  0.41300  1.0000
  O   O12       1.0  0.19500  0.86000  0.58700  1.0000
  O   O13       1.0  0.66500  0.86000  0.58700  1.0000
  O   O14       1.0  0.69000  0.37900  0.59900  1.0000
  O   O15       1.0  0.28300  0.56700  0.63800  1.0000
  O   O16       1.0  0.09090  0.18200  0.65800  1.0000
  O   O17       1.0  0.46300  0.44900  0.81400  1.0000
  O   O18       1.0  0.98600  0.44900  0.81400  1.0000
  O   O19       1.0  0.22900  0.95700  0.86500  1.0000
  O   O20       1.0  0.72800  0.95700  0.86500  1.0000
  O   O21       1.0  0.64300  0.28600  0.97900  1.0000
  O   O22       1.0  0.85100  0.70300  0.98300  1.0000
  Si  Si1       1.0  0.79600  0.59100  0.27000  1.0000
  Si  Si2       1.0  0.63900  0.27800  0.45700  1.0000
  Si  Si3       1.0  0.36100  0.72200  0.54300  1.0000
  Si  Si4       1.0  0.20400  0.40900  0.73000  1.0000
  Ti  Ti1       1.0  0.00000  0.00000  0.00000  1.0000
  Ti  Ti2       1.0  0.50000  0.00000  0.00000  1.0000
  Ti  Ti3       1.0  0.00000  0.50000  0.00000  1.0000
  Ti  Ti4       1.0  0.50000  0.50000  0.00000  1.0000
  Ti  Ti5       1.0  0.00000  0.00000  0.50000  1.0000
