data_image0
_chemical_formula_structural       In4Li8O11
_chemical_formula_sum              "In4 Li8 O11"
_cell_length_a       10.7977
_cell_length_b       5.37299
_cell_length_c       5.16496
_cell_angle_alpha    100.285
_cell_angle_beta     99.9407
_cell_angle_gamma    119.914

_space_group_name_H-M_alt    "P 1"
_space_group_IT_number       1

loop_
  _space_group_symop_operation_xyz
  'x, y, z'

loop_
  _atom_site_type_symbol
  _atom_site_label
  _atom_site_symmetry_multiplicity
  _atom_site_fract_x
  _atom_site_fract_y
  _atom_site_fract_z
  _atom_site_occupancy
  In  In1       1.0  0.08430  0.83600  0.00793  1.0000
  In  In2       1.0  0.59000  0.84500  0.97500  1.0000
  In  In3       1.0  0.41100  0.13800  0.98700  1.0000
  In  In4       1.0  0.91600  0.16800  0.99900  1.0000
  Li  Li1       1.0  0.75300  0.50600  0.00127  1.0000
  Li  Li2       1.0  0.17000  0.64700  0.49500  1.0000
  Li  Li3       1.0  0.70200  0.67000  0.49600  1.0000
  Li  Li4       1.0  0.99700  0.99400  0.49800  1.0000
  Li  Li5       1.0  0.83100  0.33500  0.50300  1.0000
  Li  Li6       1.0  0.51600  0.06930  0.51700  1.0000
  Li  Li7       1.0  0.30600  0.30900  0.52600  1.0000
  Li  Li8       1.0  0.22800  0.48200  0.96200  1.0000
  O   O1        1.0  0.78400  0.91000  0.24200  1.0000
  O   O2        1.0  0.61800  0.24200  0.24800  1.0000
  O   O3        1.0  0.95900  0.58400  0.25400  1.0000
  O   O4        1.0  0.12500  0.25300  0.25800  1.0000
  O   O5        1.0  0.29900  0.93900  0.26600  1.0000
  O   O6        1.0  0.70600  0.07170  0.72000  1.0000
  O   O7        1.0  0.04020  0.42000  0.74800  1.0000
  O   O8        1.0  0.88000  0.75500  0.74900  1.0000
  O   O9        1.0  0.37400  0.72600  0.75400  1.0000
  O   O10       1.0  0.53500  0.41400  0.76000  1.0000
  O   O11       1.0  0.21500  0.10300  0.77900  1.0000
