data_image0
_chemical_formula_structural       N4O24Se6
_chemical_formula_sum              "N4 O24 Se6"
_cell_length_a       6.74071
_cell_length_b       7.88062
_cell_length_c       10.4774
_cell_angle_alpha    96.0639
_cell_angle_beta     108.764
_cell_angle_gamma    115.32

_space_group_name_H-M_alt    "P 1"
_space_group_IT_number       1

loop_
  _space_group_symop_operation_xyz
  'x, y, z'

loop_
  _atom_site_type_symbol
  _atom_site_label
  _atom_site_symmetry_multiplicity
  _atom_site_fract_x
  _atom_site_fract_y
  _atom_site_fract_z
  _atom_site_occupancy
  N   N1        1.0  0.94700  0.43100  0.01090  1.0000
  N   N2        1.0  0.00467  0.06890  0.48900  1.0000
  N   N3        1.0  0.99500  0.93100  0.51100  1.0000
  N   N4        1.0  0.05340  0.56900  0.98900  1.0000
  O   O1        1.0  0.45900  0.16300  0.02620  1.0000
  O   O2        1.0  0.10900  0.14700  0.11200  1.0000
  O   O3        1.0  0.44800  0.50500  0.12000  1.0000
  O   O4        1.0  0.90400  0.77800  0.14100  1.0000
  O   O5        1.0  0.65100  0.96300  0.21700  1.0000
  O   O6        1.0  0.52500  0.03620  0.21800  1.0000
  O   O7        1.0  0.77100  0.46400  0.28200  1.0000
  O   O8        1.0  0.97100  0.53700  0.28300  1.0000
  O   O9        1.0  0.48500  0.72200  0.35900  1.0000
  O   O10       1.0  0.32300  0.99500  0.38000  1.0000
  O   O11       1.0  0.35000  0.35300  0.38800  1.0000
  O   O12       1.0  0.77000  0.33700  0.47400  1.0000
  O   O13       1.0  0.23000  0.66300  0.52600  1.0000
  O   O14       1.0  0.65000  0.64700  0.61200  1.0000
  O   O15       1.0  0.67700  0.00546  0.62000  1.0000
  O   O16       1.0  0.51500  0.27800  0.64100  1.0000
  O   O17       1.0  0.02920  0.46300  0.71700  1.0000
  O   O18       1.0  0.22900  0.53600  0.71800  1.0000
  O   O19       1.0  0.47500  0.96400  0.78200  1.0000
  O   O20       1.0  0.34900  0.03740  0.78300  1.0000
  O   O21       1.0  0.09570  0.22200  0.85900  1.0000
  O   O22       1.0  0.55200  0.49500  0.88000  1.0000
  O   O23       1.0  0.89100  0.85300  0.88800  1.0000
  O   O24       1.0  0.54100  0.83700  0.97400  1.0000
  Se  Se1       1.0  0.30400  0.28100  0.01400  1.0000
  Se  Se2       1.0  0.07110  0.25000  0.25000  1.0000
  Se  Se3       1.0  0.50900  0.21900  0.48600  1.0000
  Se  Se4       1.0  0.49100  0.78100  0.51400  1.0000
  Se  Se5       1.0  0.92900  0.75000  0.75000  1.0000
  Se  Se6       1.0  0.69600  0.71900  0.98600  1.0000
