data_image0
_chemical_formula_structural       Cu9H2O20P4
_chemical_formula_sum              "Cu9 H2 O20 P4"
_cell_length_a       8.09262
_cell_length_b       8.82258
_cell_length_c       5.89445
_cell_angle_alpha    102.27
_cell_angle_beta     94.6391
_cell_angle_gamma    113.571

_space_group_name_H-M_alt    "P 1"
_space_group_IT_number       1

loop_
  _space_group_symop_operation_xyz
  'x, y, z'

loop_
  _atom_site_type_symbol
  _atom_site_label
  _atom_site_symmetry_multiplicity
  _atom_site_fract_x
  _atom_site_fract_y
  _atom_site_fract_z
  _atom_site_occupancy
  Cu  Cu1       1.0  0.00000  0.00000  0.00000  1.0000
  Cu  Cu2       1.0  0.31900  0.35600  0.01580  1.0000
  Cu  Cu3       1.0  0.40300  0.06360  0.18600  1.0000
  Cu  Cu4       1.0  0.21400  0.68100  0.31500  1.0000
  Cu  Cu5       1.0  0.18200  0.29200  0.43500  1.0000
  Cu  Cu6       1.0  0.81800  0.70800  0.56500  1.0000
  Cu  Cu7       1.0  0.78600  0.31900  0.68500  1.0000
  Cu  Cu8       1.0  0.59700  0.93600  0.81400  1.0000
  Cu  Cu9       1.0  0.68100  0.64400  0.98400  1.0000
  H   H1        1.0  0.04370  0.37700  0.13300  1.0000
  H   H2        1.0  0.95600  0.62300  0.86700  1.0000
  O   O1        1.0  0.83600  0.31700  0.01710  1.0000
  O   O2        1.0  0.59900  0.43700  0.08320  1.0000
  O   O3        1.0  0.56300  0.94100  0.15400  1.0000
  O   O4        1.0  0.24200  0.17200  0.16400  1.0000
  O   O5        1.0  0.17600  0.43600  0.22600  1.0000
  O   O6        1.0  0.91200  0.07390  0.27200  1.0000
  O   O7        1.0  0.71000  0.78300  0.33100  1.0000
  O   O8        1.0  0.91000  0.58400  0.34000  1.0000
  O   O9        1.0  0.66900  0.29300  0.37000  1.0000
  O   O10       1.0  0.27600  0.93900  0.41000  1.0000
  O   O11       1.0  0.72400  0.06090  0.59000  1.0000
  O   O12       1.0  0.33100  0.70700  0.63000  1.0000
  O   O13       1.0  0.08970  0.41600  0.66000  1.0000
  O   O14       1.0  0.29000  0.21700  0.66900  1.0000
  O   O15       1.0  0.08770  0.92600  0.72800  1.0000
  O   O16       1.0  0.82400  0.56400  0.77400  1.0000
  O   O17       1.0  0.75800  0.82800  0.83600  1.0000
  O   O18       1.0  0.43700  0.05910  0.84600  1.0000
  O   O19       1.0  0.40100  0.56300  0.91700  1.0000
  O   O20       1.0  0.16400  0.68300  0.98300  1.0000
  P   P1        1.0  0.75500  0.40500  0.20400  1.0000
  P   P2        1.0  0.72800  0.96600  0.33800  1.0000
  P   P3        1.0  0.27200  0.03360  0.66200  1.0000
  P   P4        1.0  0.24500  0.59500  0.79600  1.0000
