data_image0
_chemical_formula_structural       Fe2O22V6Zn4
_chemical_formula_sum              "Fe2 O22 V6 Zn4"
_cell_length_a       6.48706
_cell_length_b       6.83053
_cell_length_c       9.92389
_cell_angle_alpha    97.7519
_cell_angle_beta     102.474
_cell_angle_gamma    101.397

_space_group_name_H-M_alt    "P 1"
_space_group_IT_number       1

loop_
  _space_group_symop_operation_xyz
  'x, y, z'

loop_
  _atom_site_type_symbol
  _atom_site_label
  _atom_site_symmetry_multiplicity
  _atom_site_fract_x
  _atom_site_fract_y
  _atom_site_fract_z
  _atom_site_occupancy
  Fe  Fe1       1.0  0.30500  0.82500  0.49600  1.0000
  Fe  Fe2       1.0  0.69500  0.17500  0.50400  1.0000
  O   O1        1.0  0.30800  0.93000  0.04270  1.0000
  O   O2        1.0  0.38000  0.49100  0.07480  1.0000
  O   O3        1.0  0.81500  0.81900  0.14900  1.0000
  O   O4        1.0  0.88900  0.43300  0.15500  1.0000
  O   O5        1.0  0.15400  0.18400  0.22200  1.0000
  O   O6        1.0  0.25400  0.79800  0.28400  1.0000
  O   O7        1.0  0.61200  0.12900  0.28900  1.0000
  O   O8        1.0  0.63300  0.56900  0.30300  1.0000
  O   O9        1.0  0.28500  0.53100  0.43800  1.0000
  O   O10       1.0  0.37600  0.12200  0.48500  1.0000
  O   O11       1.0  0.01000  0.78600  0.49900  1.0000
  O   O12       1.0  0.99000  0.21400  0.50100  1.0000
  O   O13       1.0  0.62400  0.87800  0.51500  1.0000
  O   O14       1.0  0.71500  0.46900  0.56200  1.0000
  O   O15       1.0  0.36700  0.43100  0.69700  1.0000
  O   O16       1.0  0.38800  0.87100  0.71100  1.0000
  O   O17       1.0  0.74600  0.20200  0.71600  1.0000
  O   O18       1.0  0.84600  0.81600  0.77800  1.0000
  O   O19       1.0  0.11100  0.56700  0.84500  1.0000
  O   O20       1.0  0.18500  0.18100  0.85100  1.0000
  O   O21       1.0  0.62000  0.50900  0.92500  1.0000
  O   O22       1.0  0.69200  0.07020  0.95700  1.0000
  V   V1        1.0  0.69500  0.57400  0.11900  1.0000
  V   V2        1.0  0.32700  0.01530  0.21100  1.0000
  V   V3        1.0  0.74600  0.67400  0.47400  1.0000
  V   V4        1.0  0.25400  0.32600  0.52600  1.0000
  V   V5        1.0  0.67300  0.98500  0.78900  1.0000
  V   V6        1.0  0.30500  0.42600  0.88100  1.0000
  Zn  Zn1       1.0  0.82300  0.12100  0.16400  1.0000
  Zn  Zn2       1.0  0.21600  0.49400  0.21800  1.0000
  Zn  Zn3       1.0  0.78400  0.50600  0.78200  1.0000
  Zn  Zn4       1.0  0.17700  0.87900  0.83600  1.0000
