data_image0
_chemical_formula_structural       Li8O11Re4
_chemical_formula_sum              "Li8 O11 Re4"
_cell_length_a       9.63079
_cell_length_b       4.81907
_cell_length_c       5.2686
_cell_angle_alpha    98.9671
_cell_angle_beta     99.1846
_cell_angle_gamma    118.284

_space_group_name_H-M_alt    "P 1"
_space_group_IT_number       1

loop_
  _space_group_symop_operation_xyz
  'x, y, z'

loop_
  _atom_site_type_symbol
  _atom_site_label
  _atom_site_symmetry_multiplicity
  _atom_site_fract_x
  _atom_site_fract_y
  _atom_site_fract_z
  _atom_site_occupancy
  Li  Li1       1.0  0.99000  0.97500  0.48700  1.0000
  Li  Li2       1.0  0.16600  0.66900  0.50300  1.0000
  Li  Li3       1.0  0.33500  0.34400  0.50500  1.0000
  Li  Li4       1.0  0.67100  0.66600  0.50700  1.0000
  Li  Li5       1.0  0.50200  0.00592  0.50700  1.0000
  Li  Li6       1.0  0.82800  0.32300  0.50800  1.0000
  Li  Li7       1.0  0.24500  0.50900  0.98500  1.0000
  Li  Li8       1.0  0.75500  0.48700  0.99900  1.0000
  O   O1        1.0  0.97300  0.57600  0.22600  1.0000
  O   O2        1.0  0.78700  0.91200  0.22800  1.0000
  O   O3        1.0  0.62700  0.25500  0.25000  1.0000
  O   O4        1.0  0.29200  0.92900  0.25400  1.0000
  O   O5        1.0  0.44600  0.58300  0.26000  1.0000
  O   O6        1.0  0.20700  0.08960  0.73200  1.0000
  O   O7        1.0  0.36300  0.74700  0.74600  1.0000
  O   O8        1.0  0.87900  0.73800  0.74700  1.0000
  O   O9        1.0  0.54400  0.41900  0.75400  1.0000
  O   O10       1.0  0.03620  0.41000  0.76000  1.0000
  O   O11       1.0  0.70400  0.06430  0.77600  1.0000
  Re  Re1       1.0  0.41600  0.17900  0.00282  1.0000
  Re  Re2       1.0  0.09660  0.89000  0.00675  1.0000
  Re  Re3       1.0  0.94400  0.15300  0.01220  1.0000
  Re  Re4       1.0  0.56500  0.81600  0.00000  1.0000
