data_image0
_chemical_formula_structural       In4O7Rb2
_chemical_formula_sum              "In4 O7 Rb2"
_cell_length_a       5.65974
_cell_length_b       5.66004
_cell_length_c       7.33947
_cell_angle_alpha    90.0106
_cell_angle_beta     89.9947
_cell_angle_gamma    120.002

_space_group_name_H-M_alt    "P 1"
_space_group_IT_number       1

loop_
  _space_group_symop_operation_xyz
  'x, y, z'

loop_
  _atom_site_type_symbol
  _atom_site_label
  _atom_site_symmetry_multiplicity
  _atom_site_fract_x
  _atom_site_fract_y
  _atom_site_fract_z
  _atom_site_occupancy
  In  In1       1.0  0.00000  0.00000  0.27700  1.0000
  In  In2       1.0  0.66700  0.33300  0.50000  1.0000
  In  In3       1.0  0.33300  0.66700  0.50000  1.0000
  In  In4       1.0  0.00000  0.00009  0.72300  1.0000
  O   O1        1.0  0.00000  0.00002  0.00005  1.0000
  O   O2        1.0  0.63900  0.00000  0.33100  1.0000
  O   O3        1.0  0.36100  0.36100  0.33100  1.0000
  O   O4        1.0  0.00000  0.63900  0.33100  1.0000
  O   O5        1.0  0.00000  0.36100  0.66900  1.0000
  O   O6        1.0  0.36100  0.00000  0.66900  1.0000
  O   O7        1.0  0.63900  0.63900  0.66900  1.0000
  Rb  Rb1       1.0  0.66700  0.33300  0.00000  1.0000
  Rb  Rb2       1.0  0.33300  0.66700  0.00000  1.0000
