data_image0
_chemical_formula_structural       B2Ca2Fe2H4O20P4
_chemical_formula_sum              "B2 Ca2 Fe2 H4 O20 P4"
_cell_length_a       6.51776
_cell_length_b       6.51776
_cell_length_c       9.10429
_cell_angle_alpha    110.727
_cell_angle_beta     69.273
_cell_angle_gamma    102.437

_space_group_name_H-M_alt    "P 1"
_space_group_IT_number       1

loop_
  _space_group_symop_operation_xyz
  'x, y, z'

loop_
  _atom_site_type_symbol
  _atom_site_label
  _atom_site_symmetry_multiplicity
  _atom_site_fract_x
  _atom_site_fract_y
  _atom_site_fract_z
  _atom_site_occupancy
  B   B1        1.0  0.52600  0.52600  0.25000  1.0000
  B   B2        1.0  0.47400  0.47400  0.75000  1.0000
  Ca  Ca1       1.0  0.14900  0.14900  0.25000  1.0000
  Ca  Ca2       1.0  0.85100  0.85100  0.75000  1.0000
  Fe  Fe1       1.0  0.00000  0.50000  0.00000  1.0000
  Fe  Fe2       1.0  0.50000  0.00000  0.50000  1.0000
  H   H1        1.0  0.66600  0.71000  0.08260  1.0000
  H   H2        1.0  0.71000  0.66600  0.41700  1.0000
  H   H3        1.0  0.29000  0.33400  0.58300  1.0000
  H   H4        1.0  0.33400  0.29000  0.91700  1.0000
  O   O1        1.0  0.67700  0.93800  0.03860  1.0000
  O   O2        1.0  0.68000  0.56900  0.09980  1.0000
  O   O3        1.0  0.93900  0.28700  0.12200  1.0000
  O   O4        1.0  0.08390  0.74400  0.18300  1.0000
  O   O5        1.0  0.52600  0.29300  0.24000  1.0000
  O   O6        1.0  0.29300  0.52600  0.26000  1.0000
  O   O7        1.0  0.74400  0.08390  0.31700  1.0000
  O   O8        1.0  0.28700  0.93900  0.37800  1.0000
  O   O9        1.0  0.56900  0.68000  0.40000  1.0000
  O   O10       1.0  0.93800  0.67700  0.46100  1.0000
  O   O11       1.0  0.06160  0.32300  0.53900  1.0000
  O   O12       1.0  0.43100  0.32000  0.60000  1.0000
  O   O13       1.0  0.71300  0.06100  0.62200  1.0000
  O   O14       1.0  0.25600  0.91600  0.68300  1.0000
  O   O15       1.0  0.70700  0.47400  0.74000  1.0000
  O   O16       1.0  0.47400  0.70700  0.76000  1.0000
  O   O17       1.0  0.91600  0.25600  0.81700  1.0000
  O   O18       1.0  0.06100  0.71300  0.87800  1.0000
  O   O19       1.0  0.32000  0.43100  0.90000  1.0000
  O   O20       1.0  0.32300  0.06160  0.96100  1.0000
  P   P1        1.0  0.72000  0.14300  0.17400  1.0000
  P   P2        1.0  0.14300  0.72000  0.32600  1.0000
  P   P3        1.0  0.85700  0.28000  0.67400  1.0000
  P   P4        1.0  0.28000  0.85700  0.82600  1.0000
