data_image0
_chemical_formula_structural       B10Ba2H2Na2O19
_chemical_formula_sum              "B10 Ba2 H2 Na2 O19"
_cell_length_a       6.60781
_cell_length_b       6.60781
_cell_length_c       9.25652
_cell_angle_alpha    93.3501
_cell_angle_beta     93.3501
_cell_angle_gamma    60.3848

_space_group_name_H-M_alt    "P 1"
_space_group_IT_number       1

loop_
  _space_group_symop_operation_xyz
  'x, y, z'

loop_
  _atom_site_type_symbol
  _atom_site_label
  _atom_site_symmetry_multiplicity
  _atom_site_fract_x
  _atom_site_fract_y
  _atom_site_fract_z
  _atom_site_occupancy
  B   B1        1.0  0.86000  0.24400  0.13700  1.0000
  B   B2        1.0  0.20700  0.85700  0.17300  1.0000
  B   B3        1.0  0.64700  0.68000  0.22700  1.0000
  B   B4        1.0  0.82400  0.94100  0.27300  1.0000
  B   B5        1.0  0.69000  0.80700  0.47700  1.0000
  B   B6        1.0  0.19300  0.31000  0.52300  1.0000
  B   B7        1.0  0.05890  0.17600  0.72700  1.0000
  B   B8        1.0  0.32000  0.35300  0.77300  1.0000
  B   B9        1.0  0.14300  0.79300  0.82700  1.0000
  B   B10       1.0  0.75600  0.14000  0.86300  1.0000
  Ba  Ba1       1.0  0.33500  0.32700  0.10600  1.0000
  Ba  Ba2       1.0  0.67300  0.66500  0.89400  1.0000
  H   H1        1.0  0.04500  0.38200  0.31900  1.0000
  H   H2        1.0  0.61800  0.95500  0.68100  1.0000
  Na  Na1       1.0  0.68900  0.31100  0.50000  1.0000
  Na  Na2       1.0  0.21400  0.78600  0.50000  1.0000
  O   O1        1.0  0.73200  0.26800  0.00000  1.0000
  O   O2        1.0  0.11400  0.07380  0.12100  1.0000
  O   O3        1.0  0.43700  0.69300  0.15100  1.0000
  O   O4        1.0  0.85500  0.46600  0.17900  1.0000
  O   O5        1.0  0.66900  0.87900  0.18700  1.0000
  O   O6        1.0  0.07820  0.78300  0.24200  1.0000
  O   O7        1.0  0.76100  0.18200  0.25300  1.0000
  O   O8        1.0  0.18800  0.35500  0.38000  1.0000
  O   O9        1.0  0.61400  0.68300  0.38600  1.0000
  O   O10       1.0  0.80400  0.91700  0.43200  1.0000
  O   O11       1.0  0.08340  0.19600  0.56800  1.0000
  O   O12       1.0  0.31700  0.38600  0.61400  1.0000
  O   O13       1.0  0.64500  0.81200  0.62000  1.0000
  O   O14       1.0  0.81800  0.23900  0.74700  1.0000
  O   O15       1.0  0.21700  0.92200  0.75800  1.0000
  O   O16       1.0  0.12100  0.33100  0.81300  1.0000
  O   O17       1.0  0.53400  0.14500  0.82100  1.0000
  O   O18       1.0  0.30700  0.56300  0.84900  1.0000
  O   O19       1.0  0.92600  0.88600  0.87900  1.0000
