data_image0
_chemical_formula_structural       Ho4Li8O11
_chemical_formula_sum              "Ho4 Li8 O11"
_cell_length_a       11.3813
_cell_length_b       5.65908
_cell_length_c       5.06115
_cell_angle_alpha    98.5144
_cell_angle_beta     100.077
_cell_angle_gamma    121.865

_space_group_name_H-M_alt    "P 1"
_space_group_IT_number       1

loop_
  _space_group_symop_operation_xyz
  'x, y, z'

loop_
  _atom_site_type_symbol
  _atom_site_label
  _atom_site_symmetry_multiplicity
  _atom_site_fract_x
  _atom_site_fract_y
  _atom_site_fract_z
  _atom_site_occupancy
  Ho  Ho1       1.0  0.91700  0.16500  0.00368  1.0000
  Ho  Ho2       1.0  0.08730  0.84300  0.00788  1.0000
  Ho  Ho3       1.0  0.58900  0.84000  0.97000  1.0000
  Ho  Ho4       1.0  0.41400  0.13000  0.97000  1.0000
  Li  Li1       1.0  0.75500  0.50400  0.01470  1.0000
  Li  Li2       1.0  0.18200  0.62200  0.48200  1.0000
  Li  Li3       1.0  0.98900  0.98200  0.49500  1.0000
  Li  Li4       1.0  0.70000  0.63100  0.49600  1.0000
  Li  Li5       1.0  0.82100  0.35600  0.50800  1.0000
  Li  Li6       1.0  0.52500  0.09070  0.51400  1.0000
  Li  Li7       1.0  0.29800  0.33400  0.53400  1.0000
  Li  Li8       1.0  0.22600  0.48400  0.96400  1.0000
  O   O1        1.0  0.62000  0.23800  0.23500  1.0000
  O   O2        1.0  0.77900  0.88400  0.24000  1.0000
  O   O3        1.0  0.12100  0.24300  0.25700  1.0000
  O   O4        1.0  0.29500  0.91200  0.26000  1.0000
  O   O5        1.0  0.96000  0.57900  0.27000  1.0000
  O   O6        1.0  0.53400  0.42200  0.72100  1.0000
  O   O7        1.0  0.71000  0.09420  0.74000  1.0000
  O   O8        1.0  0.04360  0.42900  0.74500  1.0000
  O   O9        1.0  0.37400  0.73900  0.75000  1.0000
  O   O10       1.0  0.88100  0.75600  0.76100  1.0000
  O   O11       1.0  0.22700  0.14500  0.80500  1.0000
