data_image0
_chemical_formula_structural       Ce4Li8O11
_chemical_formula_sum              "Ce4 Li8 O11"
_cell_length_a       12.4672
_cell_length_b       6.1101
_cell_length_c       4.92805
_cell_angle_alpha    99.89
_cell_angle_beta     92.3891
_cell_angle_gamma    128.682

_space_group_name_H-M_alt    "P 1"
_space_group_IT_number       1

loop_
  _space_group_symop_operation_xyz
  'x, y, z'

loop_
  _atom_site_type_symbol
  _atom_site_label
  _atom_site_symmetry_multiplicity
  _atom_site_fract_x
  _atom_site_fract_y
  _atom_site_fract_z
  _atom_site_occupancy
  Ce  Ce1       1.0  0.42400  0.16300  0.08730  1.0000
  Ce  Ce2       1.0  0.95200  0.22000  0.10600  1.0000
  Ce  Ce3       1.0  0.05000  0.72600  0.80400  1.0000
  Ce  Ce4       1.0  0.59800  0.85100  0.99400  1.0000
  Li  Li1       1.0  0.79000  0.53300  0.07370  1.0000
  Li  Li2       1.0  0.25800  0.62700  0.41500  1.0000
  Li  Li3       1.0  0.93700  0.93100  0.49500  1.0000
  Li  Li4       1.0  0.78400  0.37400  0.52600  1.0000
  Li  Li5       1.0  0.69700  0.63600  0.54300  1.0000
  Li  Li6       1.0  0.34600  0.39100  0.57600  1.0000
  Li  Li7       1.0  0.53300  0.12100  0.58900  1.0000
  Li  Li8       1.0  0.23200  0.52100  0.85800  1.0000
  O   O1        1.0  0.21600  0.75000  0.13600  1.0000
  O   O2        1.0  0.34200  0.44700  0.18200  1.0000
  O   O3        1.0  0.75800  0.84200  0.25500  1.0000
  O   O4        1.0  0.62200  0.23300  0.28700  1.0000
  O   O5        1.0  0.95800  0.63500  0.32600  1.0000
  O   O6        1.0  0.07180  0.35900  0.57300  1.0000
  O   O7        1.0  0.49800  0.39000  0.65900  1.0000
  O   O8        1.0  0.40700  0.79900  0.73000  1.0000
  O   O9        1.0  0.87400  0.77200  0.79800  1.0000
  O   O10       1.0  0.78100  0.20200  0.82200  1.0000
  O   O11       1.0  0.24800  0.23500  0.90500  1.0000
