data_image0
_chemical_formula_structural       Li4O20Te4V4
_chemical_formula_sum              "Li4 O20 Te4 V4"
_cell_length_a       9.54248
_cell_length_b       6.26695
_cell_length_c       5.99562
_cell_angle_alpha    90
_cell_angle_beta     90
_cell_angle_gamma    90

_space_group_name_H-M_alt    "P 1"
_space_group_IT_number       1

loop_
  _space_group_symop_operation_xyz
  'x, y, z'

loop_
  _atom_site_type_symbol
  _atom_site_label
  _atom_site_symmetry_multiplicity
  _atom_site_fract_x
  _atom_site_fract_y
  _atom_site_fract_z
  _atom_site_occupancy
  Li  Li1       1.0  0.78200  0.42000  0.19000  1.0000
  Li  Li2       1.0  0.21800  0.92000  0.31000  1.0000
  Li  Li3       1.0  0.71800  0.58000  0.69000  1.0000
  Li  Li4       1.0  0.28200  0.07990  0.81000  1.0000
  O   O1        1.0  0.32000  0.76100  0.04280  1.0000
  O   O2        1.0  0.58400  0.45700  0.06890  1.0000
  O   O3        1.0  0.32800  0.22800  0.08700  1.0000
  O   O4        1.0  0.60200  0.99200  0.10600  1.0000
  O   O5        1.0  0.06840  0.10200  0.16900  1.0000
  O   O6        1.0  0.93200  0.60200  0.33100  1.0000
  O   O7        1.0  0.39800  0.49200  0.39400  1.0000
  O   O8        1.0  0.67200  0.72800  0.41300  1.0000
  O   O9        1.0  0.41600  0.95700  0.43100  1.0000
  O   O10       1.0  0.68000  0.26100  0.45700  1.0000
  O   O11       1.0  0.18000  0.23900  0.54300  1.0000
  O   O12       1.0  0.91600  0.54300  0.56900  1.0000
  O   O13       1.0  0.17200  0.77200  0.58700  1.0000
  O   O14       1.0  0.89800  0.00818  0.60600  1.0000
  O   O15       1.0  0.43200  0.89800  0.66900  1.0000
  O   O16       1.0  0.56800  0.39800  0.83100  1.0000
  O   O17       1.0  0.10200  0.50800  0.89400  1.0000
  O   O18       1.0  0.82800  0.27200  0.91300  1.0000
  O   O19       1.0  0.08400  0.04250  0.93100  1.0000
  O   O20       1.0  0.82000  0.73900  0.95700  1.0000
  Te  Te1       1.0  0.80800  0.88900  0.24400  1.0000
  Te  Te2       1.0  0.19200  0.38900  0.25600  1.0000
  Te  Te3       1.0  0.69200  0.11100  0.74400  1.0000
  Te  Te4       1.0  0.30800  0.61100  0.75600  1.0000
  V   V1        1.0  0.49600  0.73000  0.22700  1.0000
  V   V2        1.0  0.50400  0.23000  0.27300  1.0000
  V   V3        1.0  0.00386  0.27000  0.72700  1.0000
  V   V4        1.0  0.99600  0.77000  0.77300  1.0000
