data_image0
_chemical_formula_structural       Li8O11Si4
_chemical_formula_sum              "Li8 O11 Si4"
_cell_length_a       9.46285
_cell_length_b       4.70462
_cell_length_c       4.92247
_cell_angle_alpha    99.0159
_cell_angle_beta     99.6451
_cell_angle_gamma    120.202

_space_group_name_H-M_alt    "P 1"
_space_group_IT_number       1

loop_
  _space_group_symop_operation_xyz
  'x, y, z'

loop_
  _atom_site_type_symbol
  _atom_site_label
  _atom_site_symmetry_multiplicity
  _atom_site_fract_x
  _atom_site_fract_y
  _atom_site_fract_z
  _atom_site_occupancy
  Li  Li1       1.0  0.67100  0.65900  0.49400  1.0000
  Li  Li2       1.0  0.82800  0.34000  0.49900  1.0000
  Li  Li3       1.0  0.99900  0.99900  0.49900  1.0000
  Li  Li4       1.0  0.17200  0.65800  0.50300  1.0000
  Li  Li5       1.0  0.32100  0.32900  0.50700  1.0000
  Li  Li6       1.0  0.50300  0.01770  0.50900  1.0000
  Li  Li7       1.0  0.75000  0.49500  0.99800  1.0000
  Li  Li8       1.0  0.25100  0.50400  0.99900  1.0000
  O   O1        1.0  0.97000  0.57200  0.21500  1.0000
  O   O2        1.0  0.28800  0.94400  0.21600  1.0000
  O   O3        1.0  0.78700  0.93300  0.21600  1.0000
  O   O4        1.0  0.10500  0.20900  0.21700  1.0000
  O   O5        1.0  0.60400  0.20600  0.21700  1.0000
  O   O6        1.0  0.53200  0.42200  0.76700  1.0000
  O   O7        1.0  0.39500  0.79100  0.78400  1.0000
  O   O8        1.0  0.89700  0.79400  0.78500  1.0000
  O   O9        1.0  0.21400  0.06670  0.78600  1.0000
  O   O10       1.0  0.71200  0.05690  0.78600  1.0000
  O   O11       1.0  0.03060  0.42900  0.78600  1.0000
  Si  Si1       1.0  0.08490  0.83500  0.00066  1.0000
  Si  Si2       1.0  0.42100  0.18500  0.00320  1.0000
  Si  Si3       1.0  0.91500  0.16600  1.00000  1.0000
  Si  Si4       1.0  0.57800  0.81400  0.00000  1.0000
