data_image0
_chemical_formula_structural       B4Br12I12P4
_chemical_formula_sum              "B4 Br12 I12 P4"
_cell_length_a       13.4271
_cell_length_b       11.8185
_cell_length_c       7.86317
_cell_angle_alpha    90
_cell_angle_beta     90
_cell_angle_gamma    90

_space_group_name_H-M_alt    "P 1"
_space_group_IT_number       1

loop_
  _space_group_symop_operation_xyz
  'x, y, z'

loop_
  _atom_site_type_symbol
  _atom_site_label
  _atom_site_symmetry_multiplicity
  _atom_site_fract_x
  _atom_site_fract_y
  _atom_site_fract_z
  _atom_site_occupancy
  B   B1        1.0  0.89400  0.75000  0.24800  1.0000
  B   B2        1.0  0.39400  0.75000  0.25200  1.0000
  B   B3        1.0  0.60600  0.25000  0.74800  1.0000
  B   B4        1.0  0.10600  0.25000  0.75200  1.0000
  Br  Br1       1.0  0.76200  0.75000  0.12900  1.0000
  Br  Br2       1.0  0.97200  0.60800  0.21400  1.0000
  Br  Br3       1.0  0.97200  0.89200  0.21400  1.0000
  Br  Br4       1.0  0.47200  0.60800  0.28600  1.0000
  Br  Br5       1.0  0.47200  0.89200  0.28600  1.0000
  Br  Br6       1.0  0.26200  0.75000  0.37100  1.0000
  Br  Br7       1.0  0.73800  0.25000  0.62900  1.0000
  Br  Br8       1.0  0.52800  0.10800  0.71400  1.0000
  Br  Br9       1.0  0.52800  0.39200  0.71400  1.0000
  Br  Br10      1.0  0.02810  0.10800  0.78600  1.0000
  Br  Br11      1.0  0.02810  0.39200  0.78600  1.0000
  Br  Br12      1.0  0.23800  0.25000  0.87100  1.0000
  I   I1        1.0  0.73900  0.08450  0.08180  1.0000
  I   I2        1.0  0.73900  0.41600  0.08180  1.0000
  I   I3        1.0  0.49300  0.25000  0.18000  1.0000
  I   I4        1.0  0.99300  0.25000  0.32000  1.0000
  I   I5        1.0  0.23900  0.08450  0.41800  1.0000
  I   I6        1.0  0.23900  0.41600  0.41800  1.0000
  I   I7        1.0  0.76100  0.58400  0.58200  1.0000
  I   I8        1.0  0.76100  0.91600  0.58200  1.0000
  I   I9        1.0  0.00703  0.75000  0.68000  1.0000
  I   I10       1.0  0.50700  0.75000  0.82000  1.0000
  I   I11       1.0  0.26100  0.58400  0.91800  1.0000
  I   I12       1.0  0.26100  0.91600  0.91800  1.0000
  P   P1        1.0  0.64100  0.25000  0.00184  1.0000
  P   P2        1.0  0.14100  0.25000  0.49800  1.0000
  P   P3        1.0  0.85900  0.75000  0.50200  1.0000
  P   P4        1.0  0.35900  0.75000  0.99800  1.0000
