data_image0
_chemical_formula_structural       MnO24P6Ti4
_chemical_formula_sum              "Mn1 O24 P6 Ti4"
_cell_length_a       8.53532
_cell_length_b       8.53531
_cell_length_c       8.5228
_cell_angle_alpha    120.049
_cell_angle_beta     59.9514
_cell_angle_gamma    120

_space_group_name_H-M_alt    "P 1"
_space_group_IT_number       1

loop_
  _space_group_symop_operation_xyz
  'x, y, z'

loop_
  _atom_site_type_symbol
  _atom_site_label
  _atom_site_symmetry_multiplicity
  _atom_site_fract_x
  _atom_site_fract_y
  _atom_site_fract_z
  _atom_site_occupancy
  Mn  Mn1       1.0  0.00000  0.00000  0.00000  1.0000
  O   O1        1.0  0.28700  0.86100  0.06280  1.0000
  O   O2        1.0  0.51100  0.71300  0.06280  1.0000
  O   O3        1.0  0.13900  0.48900  0.06280  1.0000
  O   O4        1.0  0.74400  0.90900  0.23500  1.0000
  O   O5        1.0  0.93000  0.25600  0.23500  1.0000
  O   O6        1.0  0.09110  0.07020  0.23500  1.0000
  O   O7        1.0  0.53800  0.57900  0.25500  1.0000
  O   O8        1.0  0.78500  0.46200  0.25500  1.0000
  O   O9        1.0  0.42100  0.21500  0.25500  1.0000
  O   O10       1.0  0.17600  0.98800  0.42600  1.0000
  O   O11       1.0  0.38700  0.82400  0.42600  1.0000
  O   O12       1.0  0.01190  0.61300  0.42600  1.0000
  O   O13       1.0  0.98800  0.38700  0.57400  1.0000
  O   O14       1.0  0.61300  0.17600  0.57400  1.0000
  O   O15       1.0  0.82400  0.01190  0.57400  1.0000
  O   O16       1.0  0.57900  0.78500  0.74500  1.0000
  O   O17       1.0  0.21500  0.53800  0.74500  1.0000
  O   O18       1.0  0.46200  0.42100  0.74500  1.0000
  O   O19       1.0  0.90900  0.93000  0.76500  1.0000
  O   O20       1.0  0.07020  0.74400  0.76500  1.0000
  O   O21       1.0  0.25600  0.09110  0.76500  1.0000
  O   O22       1.0  0.86100  0.51100  0.93700  1.0000
  O   O23       1.0  0.48900  0.28700  0.93700  1.0000
  O   O24       1.0  0.71300  0.13900  0.93700  1.0000
  P   P1        1.0  0.54300  0.75300  0.24100  1.0000
  P   P2        1.0  0.96800  0.45700  0.24100  1.0000
  P   P3        1.0  0.24700  0.03190  0.24100  1.0000
  P   P4        1.0  0.75300  0.96800  0.75900  1.0000
  P   P5        1.0  0.03190  0.54300  0.75900  1.0000
  P   P6        1.0  0.45700  0.24700  0.75900  1.0000
  Ti  Ti1       1.0  0.63300  0.36700  0.10100  1.0000
  Ti  Ti2       1.0  0.85500  0.14500  0.43600  1.0000
  Ti  Ti3       1.0  0.14500  0.85500  0.56400  1.0000
  Ti  Ti4       1.0  0.36700  0.63300  0.89900  1.0000
