data_image0
_chemical_formula_structural       Li8O11Sc4
_chemical_formula_sum              "Li8 O11 Sc4"
_cell_length_a       10.646
_cell_length_b       5.27136
_cell_length_c       5.08886
_cell_angle_alpha    100.248
_cell_angle_beta     100.057
_cell_angle_gamma    120.067

_space_group_name_H-M_alt    "P 1"
_space_group_IT_number       1

loop_
  _space_group_symop_operation_xyz
  'x, y, z'

loop_
  _atom_site_type_symbol
  _atom_site_label
  _atom_site_symmetry_multiplicity
  _atom_site_fract_x
  _atom_site_fract_y
  _atom_site_fract_z
  _atom_site_occupancy
  Li  Li1       1.0  0.75400  0.50400  0.00643  1.0000
  Li  Li2       1.0  0.17000  0.65200  0.49300  1.0000
  Li  Li3       1.0  0.70300  0.66800  0.49800  1.0000
  Li  Li4       1.0  0.99900  0.99500  0.49900  1.0000
  Li  Li5       1.0  0.82800  0.33500  0.50400  1.0000
  Li  Li6       1.0  0.50900  0.06720  0.51400  1.0000
  Li  Li7       1.0  0.30500  0.31300  0.53000  1.0000
  Li  Li8       1.0  0.22800  0.48300  0.97100  1.0000
  O   O1        1.0  0.78300  0.91000  0.23000  1.0000
  O   O2        1.0  0.61400  0.23100  0.23900  1.0000
  O   O3        1.0  0.96200  0.58200  0.24500  1.0000
  O   O4        1.0  0.12100  0.24500  0.24900  1.0000
  O   O5        1.0  0.29600  0.93600  0.25500  1.0000
  O   O6        1.0  0.70900  0.06950  0.73500  1.0000
  O   O7        1.0  0.37800  0.74300  0.75400  1.0000
  O   O8        1.0  0.03780  0.42100  0.75800  1.0000
  O   O9        1.0  0.88500  0.76300  0.76100  1.0000
  O   O10       1.0  0.53100  0.41700  0.77200  1.0000
  O   O11       1.0  0.21700  0.09880  0.78500  1.0000
  Sc  Sc1       1.0  0.92000  0.17100  0.00212  1.0000
  Sc  Sc2       1.0  0.08610  0.84000  0.00665  1.0000
  Sc  Sc3       1.0  0.59400  0.85300  0.96500  1.0000
  Sc  Sc4       1.0  0.41000  0.12200  0.98300  1.0000
