data_image0
_chemical_formula_structural       Er4Li8O11
_chemical_formula_sum              "Er4 Li8 O11"
_cell_length_a       11.3006
_cell_length_b       5.61731
_cell_length_c       5.08499
_cell_angle_alpha    98.9099
_cell_angle_beta     100.121
_cell_angle_gamma    121.453

_space_group_name_H-M_alt    "P 1"
_space_group_IT_number       1

loop_
  _space_group_symop_operation_xyz
  'x, y, z'

loop_
  _atom_site_type_symbol
  _atom_site_label
  _atom_site_symmetry_multiplicity
  _atom_site_fract_x
  _atom_site_fract_y
  _atom_site_fract_z
  _atom_site_occupancy
  Er  Er1       1.0  0.91700  0.16600  0.00321  1.0000
  Er  Er2       1.0  0.08670  0.84200  0.00788  1.0000
  Er  Er3       1.0  0.59000  0.84100  0.96900  1.0000
  Er  Er4       1.0  0.41300  0.13000  0.97300  1.0000
  Li  Li1       1.0  0.75600  0.50300  0.01330  1.0000
  Li  Li2       1.0  0.18000  0.62600  0.48500  1.0000
  Li  Li3       1.0  0.70100  0.63600  0.49400  1.0000
  Li  Li4       1.0  0.99100  0.98400  0.49600  1.0000
  Li  Li5       1.0  0.82200  0.35300  0.50600  1.0000
  Li  Li6       1.0  0.52600  0.09100  0.51500  1.0000
  Li  Li7       1.0  0.29900  0.33200  0.53500  1.0000
  Li  Li8       1.0  0.22600  0.48300  0.96400  1.0000
  O   O1        1.0  0.62000  0.23800  0.23600  1.0000
  O   O2        1.0  0.78000  0.88700  0.23900  1.0000
  O   O3        1.0  0.12100  0.24300  0.25700  1.0000
  O   O4        1.0  0.29500  0.91600  0.26100  1.0000
  O   O5        1.0  0.96000  0.57900  0.26500  1.0000
  O   O6        1.0  0.53100  0.41900  0.72400  1.0000
  O   O7        1.0  0.70900  0.09100  0.73900  1.0000
  O   O8        1.0  0.04310  0.42800  0.74800  1.0000
  O   O9        1.0  0.37300  0.73800  0.75300  1.0000
  O   O10       1.0  0.88100  0.75700  0.76000  1.0000
  O   O11       1.0  0.22500  0.13700  0.80200  1.0000
