data_image0
_chemical_formula_structural       In14Rb2S18
_chemical_formula_sum              "In14 Rb2 S18"
_cell_length_a       25.2507
_cell_length_b       3.97336
_cell_length_c       9.02438
_cell_angle_alpha    90
_cell_angle_beta     90
_cell_angle_gamma    90

_space_group_name_H-M_alt    "P 1"
_space_group_IT_number       1

loop_
  _space_group_symop_operation_xyz
  'x, y, z'

loop_
  _atom_site_type_symbol
  _atom_site_label
  _atom_site_symmetry_multiplicity
  _atom_site_fract_x
  _atom_site_fract_y
  _atom_site_fract_z
  _atom_site_occupancy
  In  In1       1.0  0.59600  0.25000  0.04940  1.0000
  In  In2       1.0  0.90400  0.25000  0.04940  1.0000
  In  In3       1.0  0.25000  0.25000  0.15400  1.0000
  In  In4       1.0  0.12000  0.75000  0.25300  1.0000
  In  In5       1.0  0.38000  0.75000  0.25300  1.0000
  In  In6       1.0  0.53500  0.75000  0.33700  1.0000
  In  In7       1.0  0.96500  0.75000  0.33700  1.0000
  In  In8       1.0  0.03480  0.25000  0.66300  1.0000
  In  In9       1.0  0.46500  0.25000  0.66300  1.0000
  In  In10      1.0  0.62000  0.25000  0.74700  1.0000
  In  In11      1.0  0.88000  0.25000  0.74700  1.0000
  In  In12      1.0  0.75000  0.75000  0.84600  1.0000
  In  In13      1.0  0.09600  0.75000  0.95100  1.0000
  In  In14      1.0  0.40400  0.75000  0.95100  1.0000
  Rb  Rb1       1.0  0.75000  0.25000  0.37100  1.0000
  Rb  Rb2       1.0  0.25000  0.75000  0.62900  1.0000
  S   S1        1.0  0.75000  0.25000  0.00446  1.0000
  S   S2        1.0  0.50500  0.25000  0.16700  1.0000
  S   S3        1.0  0.99500  0.25000  0.16700  1.0000
  S   S4        1.0  0.62900  0.75000  0.20400  1.0000
  S   S5        1.0  0.87100  0.75000  0.20400  1.0000
  S   S6        1.0  0.17700  0.25000  0.34600  1.0000
  S   S7        1.0  0.32300  0.25000  0.34600  1.0000
  S   S8        1.0  0.05870  0.75000  0.47300  1.0000
  S   S9        1.0  0.44100  0.75000  0.47300  1.0000
  S   S10       1.0  0.55900  0.25000  0.52700  1.0000
  S   S11       1.0  0.94100  0.25000  0.52700  1.0000
  S   S12       1.0  0.67700  0.75000  0.65400  1.0000
  S   S13       1.0  0.82300  0.75000  0.65400  1.0000
  S   S14       1.0  0.12900  0.25000  0.79600  1.0000
  S   S15       1.0  0.37100  0.25000  0.79600  1.0000
  S   S16       1.0  0.00456  0.75000  0.83300  1.0000
  S   S17       1.0  0.49500  0.75000  0.83300  1.0000
  S   S18       1.0  0.25000  0.75000  0.99600  1.0000
