data_image0
_chemical_formula_structural       O25Ta9V
_chemical_formula_sum              "O25 Ta9 V1"
_cell_length_a       3.83487
_cell_length_b       11.2831
_cell_length_c       11.2831
_cell_angle_alpha    91.6549
_cell_angle_beta     99.7842
_cell_angle_gamma    80.2158

_space_group_name_H-M_alt    "P 1"
_space_group_IT_number       1

loop_
  _space_group_symop_operation_xyz
  'x, y, z'

loop_
  _atom_site_type_symbol
  _atom_site_label
  _atom_site_symmetry_multiplicity
  _atom_site_fract_x
  _atom_site_fract_y
  _atom_site_fract_z
  _atom_site_occupancy
  O   O1        1.0  0.50000  0.00000  0.00000  1.0000
  O   O2        1.0  0.82500  0.39200  0.04120  1.0000
  O   O3        1.0  0.11900  0.83300  0.06560  1.0000
  O   O4        1.0  0.75500  0.63500  0.13900  1.0000
  O   O5        1.0  0.04750  0.06560  0.16700  1.0000
  O   O6        1.0  0.35700  0.48900  0.19400  1.0000
  O   O7        1.0  0.99300  0.29100  0.27000  1.0000
  O   O8        1.0  0.27700  0.73000  0.29100  1.0000
  O   O9        1.0  0.61000  0.13900  0.36500  1.0000
  O   O10       1.0  0.91900  0.52100  0.37100  1.0000
  O   O11       1.0  0.21600  0.95900  0.39200  1.0000
  O   O12       1.0  0.55900  0.37100  0.47900  1.0000
  O   O13       1.0  0.83800  0.80600  0.48900  1.0000
  O   O14       1.0  0.15500  0.19400  0.51100  1.0000
  O   O15       1.0  0.45200  0.62900  0.52100  1.0000
  O   O16       1.0  0.78200  0.04120  0.60800  1.0000
  O   O17       1.0  0.06980  0.47900  0.62900  1.0000
  O   O18       1.0  0.38400  0.86100  0.63500  1.0000
  O   O19       1.0  0.71700  0.27000  0.70900  1.0000
  O   O20       1.0  0.01340  0.70900  0.73000  1.0000
  O   O21       1.0  0.65100  0.51100  0.80600  1.0000
  O   O22       1.0  0.94600  0.93400  0.83300  1.0000
  O   O23       1.0  0.25100  0.36500  0.86100  1.0000
  O   O24       1.0  0.88700  0.16700  0.93400  1.0000
  O   O25       1.0  0.17600  0.60800  0.95900  1.0000
  Ta  Ta1       1.0  0.00000  0.00000  0.00000  1.0000
  Ta  Ta2       1.0  0.22500  0.67600  0.11700  1.0000
  Ta  Ta3       1.0  0.89100  0.44300  0.20600  1.0000
  Ta  Ta4       1.0  0.09920  0.11700  0.32400  1.0000
  Ta  Ta5       1.0  0.31500  0.79400  0.44300  1.0000
  Ta  Ta6       1.0  0.66600  0.20600  0.55700  1.0000
  Ta  Ta7       1.0  0.89300  0.88300  0.67600  1.0000
  Ta  Ta8       1.0  0.12700  0.55700  0.79400  1.0000
  Ta  Ta9       1.0  0.78400  0.32400  0.88300  1.0000
  V   V1        1.0  0.75000  0.50000  0.50000  1.0000
