data_image0
_chemical_formula_structural       Li8O11Rb4
_chemical_formula_sum              "Li8 O11 Rb4"
_cell_length_a       12.0257
_cell_length_b       5.98582
_cell_length_c       5.7378
_cell_angle_alpha    106.623
_cell_angle_beta     105.571
_cell_angle_gamma    116.236

_space_group_name_H-M_alt    "P 1"
_space_group_IT_number       1

loop_
  _space_group_symop_operation_xyz
  'x, y, z'

loop_
  _atom_site_type_symbol
  _atom_site_label
  _atom_site_symmetry_multiplicity
  _atom_site_fract_x
  _atom_site_fract_y
  _atom_site_fract_z
  _atom_site_occupancy
  Li  Li1       1.0  0.91800  0.82400  0.49500  1.0000
  Li  Li2       1.0  0.42600  0.85100  0.51100  1.0000
  Li  Li3       1.0  0.38400  0.41900  0.52200  1.0000
  Li  Li4       1.0  0.71200  0.77600  0.52500  1.0000
  Li  Li5       1.0  0.21900  0.79300  0.52500  1.0000
  Li  Li6       1.0  0.87000  0.38600  0.54000  1.0000
  Li  Li7       1.0  0.65300  0.31200  0.63400  1.0000
  Li  Li8       1.0  0.16800  0.34900  0.66800  1.0000
  O   O1        1.0  0.72900  0.45000  0.39100  1.0000
  O   O2        1.0  0.34400  0.04050  0.39800  1.0000
  O   O3        1.0  0.84900  0.03490  0.42700  1.0000
  O   O4        1.0  0.53000  0.70500  0.42900  1.0000
  O   O5        1.0  0.03720  0.72200  0.43900  1.0000
  O   O6        1.0  0.30100  0.60900  0.61500  1.0000
  O   O7        1.0  0.48700  0.26700  0.64200  1.0000
  O   O8        1.0  0.64700  0.99900  0.66700  1.0000
  O   O9        1.0  0.15400  0.01620  0.66800  1.0000
  O   O10       1.0  0.99100  0.28100  0.66900  1.0000
  O   O11       1.0  0.81900  0.64100  0.70000  1.0000
  Rb  Rb1       1.0  0.59000  0.83400  0.03650  1.0000
  Rb  Rb2       1.0  0.09980  0.87200  0.04810  1.0000
  Rb  Rb3       1.0  0.43400  0.18600  0.05150  1.0000
  Rb  Rb4       1.0  0.92900  0.21200  0.07610  1.0000
