data_image0
_chemical_formula_structural       Li8O11Pd4
_chemical_formula_sum              "Li8 O11 Pd4"
_cell_length_a       10.2526
_cell_length_b       5.09882
_cell_length_c       5.05151
_cell_angle_alpha    99.5674
_cell_angle_beta     99.7077
_cell_angle_gamma    120.235

_space_group_name_H-M_alt    "P 1"
_space_group_IT_number       1

loop_
  _space_group_symop_operation_xyz
  'x, y, z'

loop_
  _atom_site_type_symbol
  _atom_site_label
  _atom_site_symmetry_multiplicity
  _atom_site_fract_x
  _atom_site_fract_y
  _atom_site_fract_z
  _atom_site_occupancy
  Li  Li1       1.0  0.75000  0.49400  0.00296  1.0000
  Li  Li2       1.0  0.83000  0.33100  0.49500  1.0000
  Li  Li3       1.0  0.99900  0.00000  0.49700  1.0000
  Li  Li4       1.0  0.17300  0.66900  0.50200  1.0000
  Li  Li5       1.0  0.68400  0.66400  0.50700  1.0000
  Li  Li6       1.0  0.31900  0.31100  0.51200  1.0000
  Li  Li7       1.0  0.50400  0.03040  0.51800  1.0000
  Li  Li8       1.0  0.24000  0.50100  0.97500  1.0000
  O   O1        1.0  0.78700  0.91600  0.23800  1.0000
  O   O2        1.0  0.96300  0.58000  0.24000  1.0000
  O   O3        1.0  0.12000  0.24200  0.24000  1.0000
  O   O4        1.0  0.29300  0.93600  0.24200  1.0000
  O   O5        1.0  0.61500  0.22800  0.24400  1.0000
  O   O6        1.0  0.37900  0.73900  0.74700  1.0000
  O   O7        1.0  0.71200  0.07860  0.75500  1.0000
  O   O8        1.0  0.54000  0.42200  0.75500  1.0000
  O   O9        1.0  0.03610  0.42200  0.75900  1.0000
  O   O10       1.0  0.88400  0.76400  0.76000  1.0000
  O   O11       1.0  0.21200  0.08830  0.76700  1.0000
  Pd  Pd1       1.0  0.57700  0.81400  0.00016  1.0000
  Pd  Pd2       1.0  0.08500  0.83700  0.00092  1.0000
  Pd  Pd3       1.0  0.42200  0.18800  0.00385  1.0000
  Pd  Pd4       1.0  0.91500  0.16500  0.00000  1.0000
