data_image0
_chemical_formula_structural       Ca16Fe5O47Ti11
_chemical_formula_sum              "Ca16 Fe5 O47 Ti11"
_cell_length_a       10.7102
_cell_length_b       10.9204
_cell_length_c       7.60555
_cell_angle_alpha    89.9381
_cell_angle_beta     90.1494
_cell_angle_gamma    89.7301

_space_group_name_H-M_alt    "P 1"
_space_group_IT_number       1

loop_
  _space_group_symop_operation_xyz
  'x, y, z'

loop_
  _atom_site_type_symbol
  _atom_site_label
  _atom_site_symmetry_multiplicity
  _atom_site_fract_x
  _atom_site_fract_y
  _atom_site_fract_z
  _atom_site_occupancy
  Ca  Ca1       1.0  0.50100  0.51300  0.23900  1.0000
  Ca  Ca2       1.0  0.25100  0.77400  0.24000  1.0000
  Ca  Ca3       1.0  0.25900  0.27500  0.24200  1.0000
  Ca  Ca4       1.0  0.99600  0.02180  0.24600  1.0000
  Ca  Ca5       1.0  0.75100  0.27500  0.24600  1.0000
  Ca  Ca6       1.0  0.75200  0.77200  0.24800  1.0000
  Ca  Ca7       1.0  0.49300  0.02220  0.24800  1.0000
  Ca  Ca8       1.0  0.00000  0.52600  0.24900  1.0000
  Ca  Ca9       1.0  0.50800  0.97600  0.74800  1.0000
  Ca  Ca10      1.0  0.50800  0.47500  0.75000  1.0000
  Ca  Ca11      1.0  0.74400  0.22700  0.75000  1.0000
  Ca  Ca12      1.0  0.00175  0.97600  0.75300  1.0000
  Ca  Ca13      1.0  0.74900  0.72600  0.75500  1.0000
  Ca  Ca14      1.0  0.00069  0.48100  0.75700  1.0000
  Ca  Ca15      1.0  0.24600  0.22300  0.75900  1.0000
  Ca  Ca16      1.0  0.23700  0.72800  0.76200  1.0000
  Fe  Fe1       1.0  0.74900  0.00029  0.00096  1.0000
  Fe  Fe2       1.0  0.51100  0.75500  0.50000  1.0000
  Fe  Fe3       1.0  0.00080  0.75100  0.50000  1.0000
  Fe  Fe4       1.0  0.25200  0.50200  0.99800  1.0000
  Fe  Fe5       1.0  0.75100  0.50000  0.00000  1.0000
  O   O1        1.0  0.39300  0.39900  0.03520  1.0000
  O   O2        1.0  0.34800  0.64700  0.03670  1.0000
  O   O3        1.0  0.85400  0.64900  0.04040  1.0000
  O   O4        1.0  0.39500  0.89300  0.04060  1.0000
  O   O5        1.0  0.89700  0.89600  0.04150  1.0000
  O   O6        1.0  0.35300  0.14500  0.04180  1.0000
  O   O7        1.0  0.90200  0.39800  0.04420  1.0000
  O   O8        1.0  0.85600  0.15000  0.04640  1.0000
  O   O9        1.0  0.53700  0.24300  0.24800  1.0000
  O   O10       1.0  0.71200  0.49000  0.25000  1.0000
  O   O11       1.0  0.70700  0.98900  0.25100  1.0000
  O   O12       1.0  0.21200  0.98900  0.25100  1.0000
  O   O13       1.0  0.03980  0.74100  0.25200  1.0000
  O   O14       1.0  0.04580  0.24000  0.25400  1.0000
  O   O15       1.0  0.52900  0.72900  0.26000  1.0000
  O   O16       1.0  0.22000  0.50400  0.26200  1.0000
  O   O17       1.0  0.39900  0.88100  0.45100  1.0000
  O   O18       1.0  0.35400  0.14300  0.45600  1.0000
  O   O19       1.0  0.39900  0.40000  0.45600  1.0000
  O   O20       1.0  0.85200  0.15000  0.45600  1.0000
  O   O21       1.0  0.90000  0.39900  0.45900  1.0000
  O   O22       1.0  0.84800  0.64800  0.45900  1.0000
  O   O23       1.0  0.89900  0.90200  0.46000  1.0000
  O   O24       1.0  0.59100  0.60600  0.53800  1.0000
  O   O25       1.0  0.64700  0.35500  0.53900  1.0000
  O   O26       1.0  0.60300  0.10500  0.54000  1.0000
  O   O27       1.0  0.15200  0.85300  0.54300  1.0000
  O   O28       1.0  0.10900  0.60400  0.54500  1.0000
  O   O29       1.0  0.10200  0.10100  0.54500  1.0000
  O   O30       1.0  0.65300  0.85300  0.54600  1.0000
  O   O31       1.0  0.14800  0.34700  0.55200  1.0000
  O   O32       1.0  0.30200  0.52400  0.73500  1.0000
  O   O33       1.0  0.45500  0.75800  0.73800  1.0000
  O   O34       1.0  0.45800  0.26000  0.74800  1.0000
  O   O35       1.0  0.78600  0.51100  0.74900  1.0000
  O   O36       1.0  0.29400  0.00869  0.74900  1.0000
  O   O37       1.0  0.96300  0.75800  0.75100  1.0000
  O   O38       1.0  0.78900  0.01260  0.75100  1.0000
  O   O39       1.0  0.96000  0.26200  0.75100  1.0000
  O   O40       1.0  0.10600  0.10600  0.95600  1.0000
  O   O41       1.0  0.60000  0.10300  0.95600  1.0000
  O   O42       1.0  0.64600  0.35100  0.95900  1.0000
  O   O43       1.0  0.64200  0.84900  0.96000  1.0000
  O   O44       1.0  0.15300  0.36000  0.96000  1.0000
  O   O45       1.0  0.59900  0.60300  0.96100  1.0000
  O   O46       1.0  0.10700  0.60200  0.96100  1.0000
  O   O47       1.0  0.14500  0.85600  0.96400  1.0000
  Ti  Ti1       1.0  0.99500  0.75200  0.00340  1.0000
  Ti  Ti2       1.0  0.99600  0.25200  0.00421  1.0000
  Ti  Ti3       1.0  0.75300  0.50200  0.49700  1.0000
  Ti  Ti4       1.0  0.75200  0.99800  0.49900  1.0000
  Ti  Ti5       1.0  0.99400  0.24700  0.50000  1.0000
  Ti  Ti6       1.0  0.49900  0.25000  0.50000  1.0000
  Ti  Ti7       1.0  0.24500  0.99900  0.50200  1.0000
  Ti  Ti8       1.0  0.23900  0.48400  0.51100  1.0000
  Ti  Ti9       1.0  0.49900  0.74700  0.99100  1.0000
  Ti  Ti10      1.0  0.50300  0.24800  0.99600  1.0000
  Ti  Ti11      1.0  0.25000  0.00041  0.99900  1.0000
