data_image0
_chemical_formula_structural       Al4Na4O20Si6
_chemical_formula_sum              "Al4 Na4 O20 Si6"
_cell_length_a       6.35358
_cell_length_b       8.50152
_cell_length_c       8.81433
_cell_angle_alpha    98.0893
_cell_angle_beta     111.125
_cell_angle_gamma    68.0577

_space_group_name_H-M_alt    "P 1"
_space_group_IT_number       1

loop_
  _space_group_symop_operation_xyz
  'x, y, z'

loop_
  _atom_site_type_symbol
  _atom_site_label
  _atom_site_symmetry_multiplicity
  _atom_site_fract_x
  _atom_site_fract_y
  _atom_site_fract_z
  _atom_site_occupancy
  Al  Al1       1.0  0.51300  0.95700  0.22000  1.0000
  Al  Al2       1.0  0.52600  0.48100  0.27600  1.0000
  Al  Al3       1.0  0.73100  0.51900  0.72400  1.0000
  Al  Al4       1.0  0.25100  0.04260  0.78000  1.0000
  Na  Na1       1.0  0.02420  0.37400  0.14400  1.0000
  Na  Na2       1.0  0.11500  0.86200  0.36100  1.0000
  Na  Na3       1.0  0.61600  0.13800  0.63900  1.0000
  Na  Na4       1.0  0.25400  0.62600  0.85600  1.0000
  O   O1        1.0  0.45200  0.43300  0.06490  1.0000
  O   O2        1.0  0.82900  0.15100  0.09060  1.0000
  O   O3        1.0  0.41700  0.16300  0.14400  1.0000
  O   O4        1.0  0.24600  0.91100  0.14700  1.0000
  O   O5        1.0  0.75700  0.83500  0.15200  1.0000
  O   O6        1.0  0.67100  0.62700  0.31600  1.0000
  O   O7        1.0  0.27100  0.55100  0.33900  1.0000
  O   O8        1.0  0.73300  0.29700  0.38700  1.0000
  O   O9        1.0  0.64200  0.93400  0.43500  1.0000
  O   O10       1.0  0.16000  0.33200  0.44600  1.0000
  O   O11       1.0  0.04700  0.66800  0.55400  1.0000
  O   O12       1.0  0.14100  0.06600  0.56500  1.0000
  O   O13       1.0  0.64300  0.70300  0.61300  1.0000
  O   O14       1.0  0.48400  0.44900  0.66100  1.0000
  O   O15       1.0  0.98200  0.37300  0.68400  1.0000
  O   O16       1.0  0.44000  0.16500  0.84800  1.0000
  O   O17       1.0  0.00939  0.08940  0.85300  1.0000
  O   O18       1.0  0.43600  0.83700  0.85600  1.0000
  O   O19       1.0  0.88900  0.84900  0.90900  1.0000
  O   O20       1.0  0.82000  0.56700  0.93500  1.0000
  Si  Si1       1.0  0.99800  0.00000  0.00000  1.0000
  Si  Si2       1.0  0.52900  0.22800  0.03470  1.0000
  Si  Si3       1.0  0.74600  0.73300  0.48200  1.0000
  Si  Si4       1.0  0.24500  0.50000  0.50000  1.0000
  Si  Si5       1.0  0.99700  0.26700  0.51800  1.0000
  Si  Si6       1.0  0.72200  0.77200  0.96500  1.0000
