data_image0
_chemical_formula_structural       Ge4Li8O11
_chemical_formula_sum              "Ge4 Li8 O11"
_cell_length_a       9.82618
_cell_length_b       4.9257
_cell_length_c       5.05574
_cell_angle_alpha    99.6256
_cell_angle_beta     99.6843
_cell_angle_gamma    119.148

_space_group_name_H-M_alt    "P 1"
_space_group_IT_number       1

loop_
  _space_group_symop_operation_xyz
  'x, y, z'

loop_
  _atom_site_type_symbol
  _atom_site_label
  _atom_site_symmetry_multiplicity
  _atom_site_fract_x
  _atom_site_fract_y
  _atom_site_fract_z
  _atom_site_occupancy
  Ge  Ge1       1.0  0.07570  0.84000  0.00050  1.0000
  Ge  Ge2       1.0  0.41500  0.17000  0.00166  1.0000
  Ge  Ge3       1.0  0.58800  0.83600  0.00307  1.0000
  Ge  Ge4       1.0  0.92700  0.16100  0.00733  1.0000
  Li  Li1       1.0  0.98600  0.97700  0.49400  1.0000
  Li  Li2       1.0  0.67200  0.65900  0.49900  1.0000
  Li  Li3       1.0  0.50300  0.00023  0.50300  1.0000
  Li  Li4       1.0  0.83000  0.33400  0.50300  1.0000
  Li  Li5       1.0  0.34400  0.35200  0.50800  1.0000
  Li  Li6       1.0  0.17000  0.68800  0.51200  1.0000
  Li  Li7       1.0  0.25200  0.51100  0.97700  1.0000
  Li  Li8       1.0  0.74900  0.49000  0.99600  1.0000
  O   O1        1.0  0.46300  0.57600  0.22500  1.0000
  O   O2        1.0  0.60600  0.21200  0.22600  1.0000
  O   O3        1.0  0.28600  0.94000  0.22600  1.0000
  O   O4        1.0  0.96900  0.57700  0.23100  1.0000
  O   O5        1.0  0.78700  0.92500  0.23200  1.0000
  O   O6        1.0  0.87800  0.75100  0.74700  1.0000
  O   O7        1.0  0.39100  0.78400  0.76900  1.0000
  O   O8        1.0  0.21100  0.07860  0.77300  1.0000
  O   O9        1.0  0.03800  0.43200  0.77600  1.0000
  O   O10       1.0  0.53300  0.42300  0.77900  1.0000
  O   O11       1.0  0.71700  0.06510  0.78400  1.0000
