data_image0
_chemical_formula_structural       Li8O11Sb4
_chemical_formula_sum              "Li8 O11 Sb4"
_cell_length_a       11.085
_cell_length_b       5.46702
_cell_length_c       5.30165
_cell_angle_alpha    101.132
_cell_angle_beta     100.108
_cell_angle_gamma    120.68

_space_group_name_H-M_alt    "P 1"
_space_group_IT_number       1

loop_
  _space_group_symop_operation_xyz
  'x, y, z'

loop_
  _atom_site_type_symbol
  _atom_site_label
  _atom_site_symmetry_multiplicity
  _atom_site_fract_x
  _atom_site_fract_y
  _atom_site_fract_z
  _atom_site_occupancy
  Li  Li1       1.0  0.93500  0.90600  0.46900  1.0000
  Li  Li2       1.0  0.46600  0.95000  0.47600  1.0000
  Li  Li3       1.0  0.36800  0.32900  0.51200  1.0000
  Li  Li4       1.0  0.67300  0.64500  0.51800  1.0000
  Li  Li5       1.0  0.15800  0.71600  0.52400  1.0000
  Li  Li6       1.0  0.82600  0.33200  0.53800  1.0000
  Li  Li7       1.0  0.23300  0.49700  0.89100  1.0000
  Li  Li8       1.0  0.75300  0.48200  0.96200  1.0000
  O   O1        1.0  0.30200  0.91900  0.20900  1.0000
  O   O2        1.0  0.96300  0.62500  0.24500  1.0000
  O   O3        1.0  0.60200  0.20300  0.24900  1.0000
  O   O4        1.0  0.78800  0.95100  0.25700  1.0000
  O   O5        1.0  0.48300  0.54700  0.26400  1.0000
  O   O6        1.0  0.34400  0.76000  0.71000  1.0000
  O   O7        1.0  0.87700  0.76400  0.75700  1.0000
  O   O8        1.0  0.24300  0.13300  0.76400  1.0000
  O   O9        1.0  0.03740  0.48000  0.77100  1.0000
  O   O10       1.0  0.54800  0.35500  0.77600  1.0000
  O   O11       1.0  0.74700  0.10300  0.79500  1.0000
  Sb  Sb1       1.0  0.58800  0.82600  0.00517  1.0000
  Sb  Sb2       1.0  0.09030  0.87900  0.02120  1.0000
  Sb  Sb3       1.0  0.93400  0.20500  0.04240  1.0000
  Sb  Sb4       1.0  0.42000  0.15100  0.99000  1.0000
