data_image0
_chemical_formula_structural       O24P6SrTi4
_chemical_formula_sum              "O24 P6 Sr1 Ti4"
_cell_length_a       8.21934
_cell_length_b       8.21934
_cell_length_c       8.91478
_cell_angle_alpha    62.5486
_cell_angle_beta     117.451
_cell_angle_gamma    120

_space_group_name_H-M_alt    "P 1"
_space_group_IT_number       1

loop_
  _space_group_symop_operation_xyz
  'x, y, z'

loop_
  _atom_site_type_symbol
  _atom_site_label
  _atom_site_symmetry_multiplicity
  _atom_site_fract_x
  _atom_site_fract_y
  _atom_site_fract_z
  _atom_site_occupancy
  O   O1        1.0  0.47400  0.16400  0.09480  1.0000
  O   O2        1.0  0.83600  0.21600  0.09480  1.0000
  O   O3        1.0  0.78400  0.52600  0.09480  1.0000
  O   O4        1.0  0.17700  0.46400  0.20100  1.0000
  O   O5        1.0  0.53600  0.51200  0.20100  1.0000
  O   O6        1.0  0.48800  0.82300  0.20100  1.0000
  O   O7        1.0  0.12100  0.11000  0.26700  1.0000
  O   O8        1.0  0.89000  0.74400  0.26700  1.0000
  O   O9        1.0  0.25600  0.87900  0.26700  1.0000
  O   O10       1.0  0.00364  0.20000  0.42200  1.0000
  O   O11       1.0  0.80000  0.38200  0.42200  1.0000
  O   O12       1.0  0.61800  0.99600  0.42200  1.0000
  O   O13       1.0  0.38200  0.00363  0.57800  1.0000
  O   O14       1.0  0.20000  0.61800  0.57800  1.0000
  O   O15       1.0  0.99600  0.80000  0.57800  1.0000
  O   O16       1.0  0.74400  0.12100  0.73300  1.0000
  O   O17       1.0  0.11000  0.25600  0.73300  1.0000
  O   O18       1.0  0.87900  0.89000  0.73300  1.0000
  O   O19       1.0  0.51200  0.17700  0.79900  1.0000
  O   O20       1.0  0.46400  0.48800  0.79900  1.0000
  O   O21       1.0  0.82300  0.53600  0.79900  1.0000
  O   O22       1.0  0.21600  0.47400  0.90500  1.0000
  O   O23       1.0  0.16400  0.78400  0.90500  1.0000
  O   O24       1.0  0.52600  0.83600  0.90500  1.0000
  P   P1        1.0  0.03250  0.25000  0.24500  1.0000
  P   P2        1.0  0.75000  0.53800  0.24500  1.0000
  P   P3        1.0  0.46200  0.96700  0.24500  1.0000
  P   P4        1.0  0.53800  0.03250  0.75500  1.0000
  P   P5        1.0  0.25000  0.46200  0.75500  1.0000
  P   P6        1.0  0.96700  0.75000  0.75500  1.0000
  Sr  Sr1       1.0  0.00000  0.00000  0.00000  1.0000
  Ti  Ti1       1.0  0.35400  0.64600  0.06270  1.0000
  Ti  Ti2       1.0  0.14700  0.85300  0.44200  1.0000
  Ti  Ti3       1.0  0.85300  0.14700  0.55800  1.0000
  Ti  Ti4       1.0  0.64600  0.35400  0.93700  1.0000
