data_image0
_chemical_formula_structural       Hg4Li8O11
_chemical_formula_sum              "Hg4 Li8 O11"
_cell_length_a       10.7875
_cell_length_b       5.65253
_cell_length_c       5.21774
_cell_angle_alpha    95.1438
_cell_angle_beta     101.512
_cell_angle_gamma    122.489

_space_group_name_H-M_alt    "P 1"
_space_group_IT_number       1

loop_
  _space_group_symop_operation_xyz
  'x, y, z'

loop_
  _atom_site_type_symbol
  _atom_site_label
  _atom_site_symmetry_multiplicity
  _atom_site_fract_x
  _atom_site_fract_y
  _atom_site_fract_z
  _atom_site_occupancy
  Hg  Hg1       1.0  0.07970  0.83400  0.00081  1.0000
  Hg  Hg2       1.0  0.57000  0.81500  0.00877  1.0000
  Hg  Hg3       1.0  0.42600  0.18200  0.01880  1.0000
  Hg  Hg4       1.0  0.91600  0.16900  0.96900  1.0000
  Li  Li1       1.0  0.75800  0.54300  0.05180  1.0000
  Li  Li2       1.0  0.97800  0.98500  0.47900  1.0000
  Li  Li3       1.0  0.84000  0.31700  0.48500  1.0000
  Li  Li4       1.0  0.16700  0.66500  0.49900  1.0000
  Li  Li5       1.0  0.29000  0.32600  0.50400  1.0000
  Li  Li6       1.0  0.53800  0.05350  0.55600  1.0000
  Li  Li7       1.0  0.68500  0.63800  0.56100  1.0000
  Li  Li8       1.0  0.22200  0.44800  0.93000  1.0000
  O   O1        1.0  0.79400  0.94600  0.22500  1.0000
  O   O2        1.0  0.12900  0.33000  0.23600  1.0000
  O   O3        1.0  0.96600  0.65300  0.27000  1.0000
  O   O4        1.0  0.29500  0.01270  0.28100  1.0000
  O   O5        1.0  0.62600  0.29900  0.29000  1.0000
  O   O6        1.0  0.71100  0.00646  0.67900  1.0000
  O   O7        1.0  0.03320  0.35600  0.70300  1.0000
  O   O8        1.0  0.87600  0.67800  0.72300  1.0000
  O   O9        1.0  0.36600  0.70000  0.74700  1.0000
  O   O10       1.0  0.21600  0.07240  0.76300  1.0000
  O   O11       1.0  0.55200  0.36300  0.76700  1.0000
