data_image0
_chemical_formula_structural       C4Cl2H16N8NiS4
_chemical_formula_sum              "C4 Cl2 H16 N8 Ni1 S4"
_cell_length_a       8.01286
_cell_length_b       8.01286
_cell_length_c       8.01286
_cell_angle_alpha    113.827
_cell_angle_beta     107.338
_cell_angle_gamma    107.338

_space_group_name_H-M_alt    "P 1"
_space_group_IT_number       1

loop_
  _space_group_symop_operation_xyz
  'x, y, z'

loop_
  _atom_site_type_symbol
  _atom_site_label
  _atom_site_symmetry_multiplicity
  _atom_site_fract_x
  _atom_site_fract_y
  _atom_site_fract_z
  _atom_site_occupancy
  C   C1        1.0  0.82500  0.75100  0.22900  1.0000
  C   C2        1.0  0.47800  0.22900  0.40400  1.0000
  C   C3        1.0  0.52200  0.92600  0.75100  1.0000
  C   C4        1.0  0.17500  0.40400  0.92600  1.0000
  Cl  Cl1       1.0  0.00000  0.27300  0.27300  1.0000
  Cl  Cl2       1.0  0.00000  0.70900  0.70900  1.0000
  H   H1        1.0  0.99300  0.38100  0.05430  1.0000
  H   H2        1.0  0.67300  0.05430  0.06160  1.0000
  H   H3        1.0  0.63900  0.44600  0.11200  1.0000
  H   H4        1.0  0.32700  0.38800  0.38100  1.0000
  H   H5        1.0  0.78100  0.60500  0.38500  1.0000
  H   H6        1.0  0.00734  0.06160  0.38800  1.0000
  H   H7        1.0  0.33400  0.80700  0.44600  1.0000
  H   H8        1.0  0.66600  0.11200  0.47300  1.0000
  H   H9        1.0  0.98800  0.96600  0.54900  1.0000
  H   H10       1.0  0.58300  0.54900  0.56000  1.0000
  H   H11       1.0  0.77900  0.38500  0.60300  1.0000
  H   H12       1.0  0.22100  0.82400  0.60500  1.0000
  H   H13       1.0  0.36100  0.47300  0.80700  1.0000
  H   H14       1.0  0.21900  0.60300  0.82400  1.0000
  H   H15       1.0  0.41700  0.97800  0.96600  1.0000
  H   H16       1.0  0.01150  0.56000  0.97800  1.0000
  N   N1        1.0  0.74200  0.58800  0.24300  1.0000
  N   N2        1.0  0.94700  0.93900  0.40300  1.0000
  N   N3        1.0  0.46400  0.40300  0.45500  1.0000
  N   N4        1.0  0.65400  0.24300  0.50100  1.0000
  N   N5        1.0  0.34600  0.84600  0.58800  1.0000
  N   N6        1.0  0.25800  0.50100  0.84600  1.0000
  N   N7        1.0  0.53600  0.99200  0.93900  1.0000
  N   N8        1.0  0.05260  0.45500  0.99200  1.0000
  Ni  Ni1       1.0  0.00000  0.99700  0.99700  1.0000
  S   S1        1.0  0.27700  0.98900  0.21600  1.0000
  S   S2        1.0  0.72300  0.93900  0.71200  1.0000
  S   S3        1.0  0.22700  0.21600  0.93900  1.0000
  S   S4        1.0  0.77300  0.71200  0.98900  1.0000
