data_image0
_chemical_formula_structural       CdO24P6Zr4
_chemical_formula_sum              "Cd1 O24 P6 Zr4"
_cell_length_a       8.87765
_cell_length_b       8.87765
_cell_length_c       8.97757
_cell_angle_alpha    90
_cell_angle_beta     119.633
_cell_angle_gamma    60

_space_group_name_H-M_alt    "P 1"
_space_group_IT_number       1

loop_
  _space_group_symop_operation_xyz
  'x, y, z'

loop_
  _atom_site_type_symbol
  _atom_site_label
  _atom_site_symmetry_multiplicity
  _atom_site_fract_x
  _atom_site_fract_y
  _atom_site_fract_z
  _atom_site_occupancy
  Cd  Cd1       1.0  0.00000  0.50000  0.50000  1.0000
  O   O1        1.0  0.57700  0.10500  0.08490  1.0000
  O   O2        1.0  0.18900  0.31900  0.08490  1.0000
  O   O3        1.0  0.40400  0.49200  0.08490  1.0000
  O   O4        1.0  0.19100  0.09540  0.25000  1.0000
  O   O5        1.0  0.34600  0.71400  0.25000  1.0000
  O   O6        1.0  0.96400  0.94000  0.25000  1.0000
  O   O7        1.0  0.02720  0.41700  0.26200  1.0000
  O   O8        1.0  0.67900  0.55500  0.26200  1.0000
  O   O9        1.0  0.81700  0.76500  0.26200  1.0000
  O   O10       1.0  0.41800  0.20900  0.42800  1.0000
  O   O11       1.0  0.63600  0.37300  0.42800  1.0000
  O   O12       1.0  0.80100  0.99100  0.42800  1.0000
  O   O13       1.0  0.19900  0.00942  0.57200  1.0000
  O   O14       1.0  0.36400  0.62700  0.57200  1.0000
  O   O15       1.0  0.58200  0.79100  0.57200  1.0000
  O   O16       1.0  0.18300  0.23500  0.73800  1.0000
  O   O17       1.0  0.32100  0.44500  0.73800  1.0000
  O   O18       1.0  0.97300  0.58300  0.73800  1.0000
  O   O19       1.0  0.03570  0.05970  0.75000  1.0000
  O   O20       1.0  0.65400  0.28600  0.75000  1.0000
  O   O21       1.0  0.80900  0.90500  0.75000  1.0000
  O   O22       1.0  0.59600  0.50800  0.91500  1.0000
  O   O23       1.0  0.81100  0.68100  0.91500  1.0000
  O   O24       1.0  0.42300  0.89500  0.91500  1.0000
  P   P1        1.0  0.21200  0.25600  0.25900  1.0000
  P   P2        1.0  0.51500  0.53200  0.25900  1.0000
  P   P3        1.0  0.79100  0.95200  0.25900  1.0000
  P   P4        1.0  0.20900  0.04750  0.74100  1.0000
  P   P5        1.0  0.48500  0.46800  0.74100  1.0000
  P   P6        1.0  0.78800  0.74400  0.74100  1.0000
  Zr  Zr1       1.0  0.70500  0.64800  0.05750  1.0000
  Zr  Zr2       1.0  0.27100  0.86500  0.40600  1.0000
  Zr  Zr3       1.0  0.72900  0.13500  0.59400  1.0000
  Zr  Zr4       1.0  0.29500  0.35200  0.94300  1.0000
