data_image0
_chemical_formula_structural       Au7Rb4Sn2
_chemical_formula_sum              "Au7 Rb4 Sn2"
_cell_length_a       6.89167
_cell_length_b       6.89167
_cell_length_c       10.5999
_cell_angle_alpha    108.971
_cell_angle_beta     90
_cell_angle_gamma    60

_space_group_name_H-M_alt    "P 1"
_space_group_IT_number       1

loop_
  _space_group_symop_operation_xyz
  'x, y, z'

loop_
  _atom_site_type_symbol
  _atom_site_label
  _atom_site_symmetry_multiplicity
  _atom_site_fract_x
  _atom_site_fract_y
  _atom_site_fract_z
  _atom_site_occupancy
  Au  Au1       1.0  0.00000  0.00000  0.00000  1.0000
  Au  Au2       1.0  0.78700  0.42700  0.23100  1.0000
  Au  Au3       1.0  0.19600  0.01780  0.23100  1.0000
  Au  Au4       1.0  0.78700  0.01780  0.23100  1.0000
  Au  Au5       1.0  0.21300  0.98200  0.76900  1.0000
  Au  Au6       1.0  0.80400  0.98200  0.76900  1.0000
  Au  Au7       1.0  0.21300  0.57300  0.76900  1.0000
  Rb  Rb1       1.0  0.31500  0.37000  0.05440  1.0000
  Rb  Rb2       1.0  0.18800  0.62400  0.43700  1.0000
  Rb  Rb3       1.0  0.81200  0.37600  0.56300  1.0000
  Rb  Rb4       1.0  0.68500  0.63000  0.94600  1.0000
  Sn  Sn1       1.0  0.54900  0.90200  0.35300  1.0000
  Sn  Sn2       1.0  0.45100  0.09810  0.64700  1.0000
