data_image0
_chemical_formula_structural       Cr4Li8O11
_chemical_formula_sum              "Cr4 Li8 O11"
_cell_length_a       9.94493
_cell_length_b       4.96547
_cell_length_c       5.04907
_cell_angle_alpha    100.249
_cell_angle_beta     100.126
_cell_angle_gamma    118.27

_space_group_name_H-M_alt    "P 1"
_space_group_IT_number       1

loop_
  _space_group_symop_operation_xyz
  'x, y, z'

loop_
  _atom_site_type_symbol
  _atom_site_label
  _atom_site_symmetry_multiplicity
  _atom_site_fract_x
  _atom_site_fract_y
  _atom_site_fract_z
  _atom_site_occupancy
  Cr  Cr1       1.0  0.58600  0.83300  0.00513  1.0000
  Cr  Cr2       1.0  0.41600  0.17700  0.01030  1.0000
  Cr  Cr3       1.0  0.90300  0.15800  0.98100  1.0000
  Cr  Cr4       1.0  0.08210  0.80200  0.98200  1.0000
  Li  Li1       1.0  0.83000  0.34100  0.49500  1.0000
  Li  Li2       1.0  0.50000  0.99900  0.50100  1.0000
  Li  Li3       1.0  0.67000  0.65700  0.50300  1.0000
  Li  Li4       1.0  0.18300  0.72100  0.50700  1.0000
  Li  Li5       1.0  0.97900  0.95800  0.50900  1.0000
  Li  Li6       1.0  0.35300  0.35900  0.51700  1.0000
  Li  Li7       1.0  0.26000  0.51900  0.96600  1.0000
  Li  Li8       1.0  0.75000  0.49800  0.99500  1.0000
  O   O1        1.0  0.78400  0.92900  0.23000  1.0000
  O   O2        1.0  0.60900  0.22300  0.23200  1.0000
  O   O3        1.0  0.45800  0.57000  0.23300  1.0000
  O   O4        1.0  0.97300  0.58100  0.23800  1.0000
  O   O5        1.0  0.29000  0.93900  0.24000  1.0000
  O   O6        1.0  0.70200  0.05900  0.76400  1.0000
  O   O7        1.0  0.03850  0.39800  0.76500  1.0000
  O   O8        1.0  0.38700  0.78100  0.76700  1.0000
  O   O9        1.0  0.88300  0.75800  0.76900  1.0000
  O   O10       1.0  0.21500  0.08430  0.77800  1.0000
  O   O11       1.0  0.53700  0.43400  0.78200  1.0000
