data_image0
_chemical_formula_structural       Cs4Li8O11
_chemical_formula_sum              "Cs4 Li8 O11"
_cell_length_a       12.0925
_cell_length_b       6.08219
_cell_length_c       6.28946
_cell_angle_alpha    105.032
_cell_angle_beta     101.609
_cell_angle_gamma    124.957

_space_group_name_H-M_alt    "P 1"
_space_group_IT_number       1

loop_
  _space_group_symop_operation_xyz
  'x, y, z'

loop_
  _atom_site_type_symbol
  _atom_site_label
  _atom_site_symmetry_multiplicity
  _atom_site_fract_x
  _atom_site_fract_y
  _atom_site_fract_z
  _atom_site_occupancy
  Cs  Cs1       1.0  0.06490  0.80700  0.00146  1.0000
  Cs  Cs2       1.0  0.55400  0.82600  0.00458  1.0000
  Cs  Cs3       1.0  0.41100  0.15500  0.01250  1.0000
  Cs  Cs4       1.0  0.91100  0.13600  0.05860  1.0000
  Li  Li1       1.0  0.05830  0.10300  0.50400  1.0000
  Li  Li2       1.0  0.61700  0.71800  0.54100  1.0000
  Li  Li3       1.0  0.10300  0.72500  0.54300  1.0000
  Li  Li4       1.0  0.36600  0.25900  0.54800  1.0000
  Li  Li5       1.0  0.84300  0.16700  0.54900  1.0000
  Li  Li6       1.0  0.60300  0.19400  0.56900  1.0000
  Li  Li7       1.0  0.20600  0.43900  0.87800  1.0000
  Li  Li8       1.0  0.71400  0.49600  0.99200  1.0000
  O   O1        1.0  0.26300  0.69100  0.22000  1.0000
  O   O2        1.0  0.71100  0.74400  0.29500  1.0000
  O   O3        1.0  0.91500  0.65400  0.29500  1.0000
  O   O4        1.0  0.38300  0.51300  0.34600  1.0000
  O   O5        1.0  0.37800  0.74900  0.41800  1.0000
  O   O6        1.0  0.84700  0.65800  0.46200  1.0000
  O   O7        1.0  0.77200  0.39400  0.47800  1.0000
  O   O8        1.0  0.06170  0.42100  0.64600  1.0000
  O   O9        1.0  0.22200  0.15500  0.68300  1.0000
  O   O10       1.0  0.57600  0.45600  0.70600  1.0000
  O   O11       1.0  0.72800  0.15900  0.76000  1.0000
