data_image0
_chemical_formula_structural       C6Cd2Cl6H18N2
_chemical_formula_sum              "C6 Cd2 Cl6 H18 N2"
_cell_length_a       9.01215
_cell_length_b       9.01213
_cell_length_c       6.51417
_cell_angle_alpha    90
_cell_angle_beta     90
_cell_angle_gamma    120.002

_space_group_name_H-M_alt    "P 1"
_space_group_IT_number       1

loop_
  _space_group_symop_operation_xyz
  'x, y, z'

loop_
  _atom_site_type_symbol
  _atom_site_label
  _atom_site_symmetry_multiplicity
  _atom_site_fract_x
  _atom_site_fract_y
  _atom_site_fract_z
  _atom_site_occupancy
  C   C1        1.0  0.15700  0.53800  0.25000  1.0000
  C   C2        1.0  0.46200  0.62000  0.25000  1.0000
  C   C3        1.0  0.38100  0.84300  0.25000  1.0000
  C   C4        1.0  0.61900  0.15700  0.75000  1.0000
  C   C5        1.0  0.53800  0.38000  0.75000  1.0000
  C   C6        1.0  0.84300  0.46200  0.75000  1.0000
  Cd  Cd1       1.0  0.00000  0.00000  0.00000  1.0000
  Cd  Cd2       1.0  0.00000  0.00000  0.50000  1.0000
  Cl  Cl1       1.0  0.83600  0.10500  0.25000  1.0000
  Cl  Cl2       1.0  0.26900  0.16400  0.25000  1.0000
  Cl  Cl3       1.0  0.89500  0.73100  0.25000  1.0000
  Cl  Cl4       1.0  0.10500  0.26900  0.75000  1.0000
  Cl  Cl5       1.0  0.73100  0.83600  0.75000  1.0000
  Cl  Cl6       1.0  0.16400  0.89500  0.75000  1.0000
  H   H1        1.0  0.44300  0.53600  0.11600  1.0000
  H   H2        1.0  0.09290  0.55700  0.11600  1.0000
  H   H3        1.0  0.46400  0.90700  0.11600  1.0000
  H   H4        1.0  0.14100  0.40900  0.25000  1.0000
  H   H5        1.0  0.59100  0.73200  0.25000  1.0000
  H   H6        1.0  0.26800  0.85900  0.25000  1.0000
  H   H7        1.0  0.46400  0.90700  0.38400  1.0000
  H   H8        1.0  0.09290  0.55700  0.38400  1.0000
  H   H9        1.0  0.44300  0.53600  0.38400  1.0000
  H   H10       1.0  0.55700  0.46400  0.61600  1.0000
  H   H11       1.0  0.90700  0.44300  0.61600  1.0000
  H   H12       1.0  0.53600  0.09290  0.61600  1.0000
  H   H13       1.0  0.73200  0.14100  0.75000  1.0000
  H   H14       1.0  0.40900  0.26800  0.75000  1.0000
  H   H15       1.0  0.85900  0.59100  0.75000  1.0000
  H   H16       1.0  0.53600  0.09290  0.88400  1.0000
  H   H17       1.0  0.90700  0.44300  0.88400  1.0000
  H   H18       1.0  0.55700  0.46400  0.88400  1.0000
  N   N1        1.0  0.33300  0.66700  0.25000  1.0000
  N   N2        1.0  0.66700  0.33300  0.75000  1.0000
