data_image0
_chemical_formula_structural       Ac4Li8O11
_chemical_formula_sum              "Ac4 Li8 O11"
_cell_length_a       13.6657
_cell_length_b       6.64715
_cell_length_c       4.25816
_cell_angle_alpha    94.2809
_cell_angle_beta     96.2503
_cell_angle_gamma    131.277

_space_group_name_H-M_alt    "P 1"
_space_group_IT_number       1

loop_
  _space_group_symop_operation_xyz
  'x, y, z'

loop_
  _atom_site_type_symbol
  _atom_site_label
  _atom_site_symmetry_multiplicity
  _atom_site_fract_x
  _atom_site_fract_y
  _atom_site_fract_z
  _atom_site_occupancy
  Ac  Ac1       1.0  0.60100  0.82300  0.15500  1.0000
  Ac  Ac2       1.0  0.43400  0.11700  0.17300  1.0000
  Ac  Ac3       1.0  0.93100  0.18900  0.92300  1.0000
  Ac  Ac4       1.0  0.11500  0.93200  0.98700  1.0000
  Li  Li1       1.0  0.73700  0.56400  0.05560  1.0000
  Li  Li2       1.0  0.94000  0.86300  0.41000  1.0000
  Li  Li3       1.0  0.18800  0.57900  0.50300  1.0000
  Li  Li4       1.0  0.33300  0.45100  0.52700  1.0000
  Li  Li5       1.0  0.71600  0.60600  0.56200  1.0000
  Li  Li6       1.0  0.81300  0.40500  0.56300  1.0000
  Li  Li7       1.0  0.59700  0.14300  0.72400  1.0000
  Li  Li8       1.0  0.27300  0.52000  0.94200  1.0000
  O   O1        1.0  0.19600  0.67000  0.06600  1.0000
  O   O2        1.0  0.35400  0.36900  0.11700  1.0000
  O   O3        1.0  0.94500  0.55400  0.28400  1.0000
  O   O4        1.0  0.65100  0.26800  0.28900  1.0000
  O   O5        1.0  0.80800  0.90200  0.32400  1.0000
  O   O6        1.0  0.13500  0.19800  0.52900  1.0000
  O   O7        1.0  0.02790  0.54400  0.53400  1.0000
  O   O8        1.0  0.41400  0.81000  0.72300  1.0000
  O   O9        1.0  0.71800  0.07120  0.74800  1.0000
  O   O10       1.0  0.56500  0.42700  0.76900  1.0000
  O   O11       1.0  0.88700  0.75100  0.83400  1.0000
