data_image0
_chemical_formula_structural       La4Mn5O22Si4
_chemical_formula_sum              "La4 Mn5 O22 Si4"
_cell_length_a       5.60579
_cell_length_b       7.50849
_cell_length_c       11.2364
_cell_angle_alpha    95.082
_cell_angle_beta     104.445
_cell_angle_gamma    111.919

_space_group_name_H-M_alt    "P 1"
_space_group_IT_number       1

loop_
  _space_group_symop_operation_xyz
  'x, y, z'

loop_
  _atom_site_type_symbol
  _atom_site_label
  _atom_site_symmetry_multiplicity
  _atom_site_fract_x
  _atom_site_fract_y
  _atom_site_fract_z
  _atom_site_occupancy
  La  La1       1.0  0.30500  0.35700  0.25300  1.0000
  La  La2       1.0  0.02330  0.78400  0.26200  1.0000
  La  La3       1.0  0.97700  0.21600  0.73800  1.0000
  La  La4       1.0  0.69500  0.64300  0.74700  1.0000
  Mn  Mn1       1.0  0.25100  0.00000  0.00000  1.0000
  Mn  Mn2       1.0  0.74900  0.00000  0.00000  1.0000
  Mn  Mn3       1.0  0.73500  0.46800  0.00131  1.0000
  Mn  Mn4       1.0  1.00000  0.50000  0.50000  1.0000
  Mn  Mn5       1.0  0.26500  0.53200  0.99900  1.0000
  O   O1        1.0  0.10300  0.19200  0.01330  1.0000
  O   O2        1.0  0.59900  0.18400  0.01430  1.0000
  O   O3        1.0  0.08790  0.54600  0.12500  1.0000
  O   O4        1.0  0.58300  0.54600  0.12500  1.0000
  O   O5        1.0  0.35900  0.03070  0.18100  1.0000
  O   O6        1.0  0.85300  0.03070  0.18100  1.0000
  O   O7        1.0  0.82000  0.32100  0.31800  1.0000
  O   O8        1.0  0.66300  0.95700  0.36900  1.0000
  O   O9        1.0  0.26400  0.12900  0.40000  1.0000
  O   O10       1.0  0.29300  0.64500  0.40200  1.0000
  O   O11       1.0  0.75500  0.64500  0.40200  1.0000
  O   O12       1.0  0.24500  0.35500  0.59800  1.0000
  O   O13       1.0  0.70700  0.35500  0.59800  1.0000
  O   O14       1.0  0.73600  0.87100  0.60000  1.0000
  O   O15       1.0  0.33700  0.04330  0.63100  1.0000
  O   O16       1.0  0.18000  0.67900  0.68200  1.0000
  O   O17       1.0  0.14700  0.96900  0.81900  1.0000
  O   O18       1.0  0.64100  0.96900  0.81900  1.0000
  O   O19       1.0  0.41700  0.45400  0.87500  1.0000
  O   O20       1.0  0.91200  0.45400  0.87500  1.0000
  O   O21       1.0  0.40100  0.81600  0.98600  1.0000
  O   O22       1.0  0.89700  0.80800  0.98700  1.0000
  Si  Si1       1.0  0.67700  0.09130  0.26300  1.0000
  Si  Si2       1.0  0.61700  0.78300  0.45200  1.0000
  Si  Si3       1.0  0.38300  0.21700  0.54800  1.0000
  Si  Si4       1.0  0.32300  0.90900  0.73700  1.0000
