data_image0
_chemical_formula_structural       Gd4Li8O11
_chemical_formula_sum              "Gd4 Li8 O11"
_cell_length_a       11.521
_cell_length_b       5.60148
_cell_length_c       5.21077
_cell_angle_alpha    102.108
_cell_angle_beta     101.607
_cell_angle_gamma    118.159

_space_group_name_H-M_alt    "P 1"
_space_group_IT_number       1

loop_
  _space_group_symop_operation_xyz
  'x, y, z'

loop_
  _atom_site_type_symbol
  _atom_site_label
  _atom_site_symmetry_multiplicity
  _atom_site_fract_x
  _atom_site_fract_y
  _atom_site_fract_z
  _atom_site_occupancy
  Gd  Gd1       1.0  0.92600  0.18200  0.10100  1.0000
  Gd  Gd2       1.0  0.07680  0.75500  0.86600  1.0000
  Gd  Gd3       1.0  0.58300  0.83900  0.98500  1.0000
  Gd  Gd4       1.0  0.42500  0.18900  0.99300  1.0000
  Li  Li1       1.0  0.45900  0.96200  0.43700  1.0000
  Li  Li2       1.0  0.22100  0.78500  0.44700  1.0000
  Li  Li3       1.0  0.35300  0.37000  0.46800  1.0000
  Li  Li4       1.0  0.69400  0.63900  0.52800  1.0000
  Li  Li5       1.0  0.76600  0.24700  0.54600  1.0000
  Li  Li6       1.0  0.93800  0.94100  0.54800  1.0000
  Li  Li7       1.0  0.25300  0.48100  0.88500  1.0000
  Li  Li8       1.0  0.74600  0.51900  0.99200  1.0000
  O   O1        1.0  0.43300  0.59000  0.20200  1.0000
  O   O2        1.0  0.28500  0.96300  0.20400  1.0000
  O   O3        1.0  0.61300  0.23200  0.28600  1.0000
  O   O4        1.0  0.77600  0.89600  0.28800  1.0000
  O   O5        1.0  0.02150  0.65000  0.38000  1.0000
  O   O6        1.0  0.36900  0.75400  0.69000  1.0000
  O   O7        1.0  0.22000  0.09540  0.69900  1.0000
  O   O8        1.0  0.54500  0.42200  0.72200  1.0000
  O   O9        1.0  0.87800  0.75100  0.81600  1.0000
  O   O10       1.0  0.05020  0.33800  0.81600  1.0000
  O   O11       1.0  0.74600  0.15200  0.85800  1.0000
