data_image0
_chemical_formula_structural       I20K8Pr4
_chemical_formula_sum              "I20 K8 Pr4"
_cell_length_a       9.31211
_cell_length_b       9.92524
_cell_length_c       14.6704
_cell_angle_alpha    90
_cell_angle_beta     90
_cell_angle_gamma    90

_space_group_name_H-M_alt    "P 1"
_space_group_IT_number       1

loop_
  _space_group_symop_operation_xyz
  'x, y, z'

loop_
  _atom_site_type_symbol
  _atom_site_label
  _atom_site_symmetry_multiplicity
  _atom_site_fract_x
  _atom_site_fract_y
  _atom_site_fract_z
  _atom_site_occupancy
  I   I1        1.0  0.07060  0.25000  0.00691  1.0000
  I   I2        1.0  0.33000  0.54700  0.07410  1.0000
  I   I3        1.0  0.33000  0.95300  0.07410  1.0000
  I   I4        1.0  0.62000  0.25000  0.18400  1.0000
  I   I5        1.0  0.65600  0.75000  0.20700  1.0000
  I   I6        1.0  0.15600  0.25000  0.29300  1.0000
  I   I7        1.0  0.12000  0.75000  0.31600  1.0000
  I   I8        1.0  0.83000  0.04660  0.42600  1.0000
  I   I9        1.0  0.83000  0.45300  0.42600  1.0000
  I   I10       1.0  0.57100  0.75000  0.49300  1.0000
  I   I11       1.0  0.42900  0.25000  0.50700  1.0000
  I   I12       1.0  0.17000  0.54700  0.57400  1.0000
  I   I13       1.0  0.17000  0.95300  0.57400  1.0000
  I   I14       1.0  0.88000  0.25000  0.68400  1.0000
  I   I15       1.0  0.84400  0.75000  0.70700  1.0000
  I   I16       1.0  0.34400  0.25000  0.79300  1.0000
  I   I17       1.0  0.38000  0.75000  0.81600  1.0000
  I   I18       1.0  0.67000  0.04660  0.92600  1.0000
  I   I19       1.0  0.67000  0.45300  0.92600  1.0000
  I   I20       1.0  0.92900  0.75000  0.99300  1.0000
  K   K1        1.0  0.93500  0.00475  0.17300  1.0000
  K   K2        1.0  0.93500  0.49500  0.17300  1.0000
  K   K3        1.0  0.43500  0.50500  0.32700  1.0000
  K   K4        1.0  0.43500  0.99500  0.32700  1.0000
  K   K5        1.0  0.56500  0.00475  0.67300  1.0000
  K   K6        1.0  0.56500  0.49500  0.67300  1.0000
  K   K7        1.0  0.06460  0.50500  0.82700  1.0000
  K   K8        1.0  0.06460  0.99500  0.82700  1.0000
  Pr  Pr1       1.0  0.41900  0.25000  0.00582  1.0000
  Pr  Pr2       1.0  0.91900  0.75000  0.49400  1.0000
  Pr  Pr3       1.0  0.08070  0.25000  0.50600  1.0000
  Pr  Pr4       1.0  0.58100  0.75000  0.99400  1.0000
