data_image0
_chemical_formula_structural       Bi4Se18Sn12
_chemical_formula_sum              "Bi4 Se18 Sn12"
_cell_length_a       4.21757
_cell_length_b       7.31576
_cell_length_c       32.6208
_cell_angle_alpha    90
_cell_angle_beta     90
_cell_angle_gamma    73.2466

_space_group_name_H-M_alt    "P 1"
_space_group_IT_number       1

loop_
  _space_group_symop_operation_xyz
  'x, y, z'

loop_
  _atom_site_type_symbol
  _atom_site_label
  _atom_site_symmetry_multiplicity
  _atom_site_fract_x
  _atom_site_fract_y
  _atom_site_fract_z
  _atom_site_occupancy
  Bi  Bi1       1.0  0.45600  0.08890  0.11700  1.0000
  Bi  Bi2       1.0  0.45600  0.08890  0.38300  1.0000
  Bi  Bi3       1.0  0.54400  0.91100  0.61700  1.0000
  Bi  Bi4       1.0  0.54400  0.91100  0.88300  1.0000
  Se  Se1       1.0  0.36300  0.27400  0.02890  1.0000
  Se  Se2       1.0  0.08810  0.82400  0.08440  1.0000
  Se  Se3       1.0  0.81900  0.36200  0.14100  1.0000
  Se  Se4       1.0  0.54000  0.92000  0.19600  1.0000
  Se  Se5       1.0  0.27700  0.44600  0.25000  1.0000
  Se  Se6       1.0  0.54000  0.92000  0.30400  1.0000
  Se  Se7       1.0  0.81900  0.36200  0.35900  1.0000
  Se  Se8       1.0  0.08810  0.82400  0.41600  1.0000
  Se  Se9       1.0  0.36300  0.27400  0.47100  1.0000
  Se  Se10      1.0  0.63700  0.72600  0.52900  1.0000
  Se  Se11      1.0  0.91200  0.17600  0.58400  1.0000
  Se  Se12      1.0  0.18100  0.63800  0.64100  1.0000
  Se  Se13      1.0  0.46000  0.08000  0.69600  1.0000
  Se  Se14      1.0  0.72300  0.55400  0.75000  1.0000
  Se  Se15      1.0  0.46000  0.08000  0.80400  1.0000
  Se  Se16      1.0  0.18100  0.63800  0.85900  1.0000
  Se  Se17      1.0  0.91200  0.17600  0.91600  1.0000
  Se  Se18      1.0  0.63700  0.72600  0.97100  1.0000
  Sn  Sn1       1.0  0.00000  0.00000  0.00000  1.0000
  Sn  Sn2       1.0  0.73300  0.53400  0.05880  1.0000
  Sn  Sn3       1.0  0.17600  0.64800  0.17400  1.0000
  Sn  Sn4       1.0  0.91700  0.16500  0.25000  1.0000
  Sn  Sn5       1.0  0.17600  0.64800  0.32600  1.0000
  Sn  Sn6       1.0  0.73300  0.53400  0.44100  1.0000
  Sn  Sn7       1.0  0.00000  0.00000  0.50000  1.0000
  Sn  Sn8       1.0  0.26700  0.46600  0.55900  1.0000
  Sn  Sn9       1.0  0.82400  0.35200  0.67400  1.0000
  Sn  Sn10      1.0  0.08270  0.83500  0.75000  1.0000
  Sn  Sn11      1.0  0.82400  0.35200  0.82600  1.0000
  Sn  Sn12      1.0  0.26700  0.46600  0.94100  1.0000
