data_image0
_chemical_formula_structural       Li8O11Ru4
_chemical_formula_sum              "Li8 O11 Ru4"
_cell_length_a       10.2694
_cell_length_b       4.90533
_cell_length_c       5.09882
_cell_angle_alpha    97.8723
_cell_angle_beta     99.9943
_cell_angle_gamma    121.489

_space_group_name_H-M_alt    "P 1"
_space_group_IT_number       1

loop_
  _space_group_symop_operation_xyz
  'x, y, z'

loop_
  _atom_site_type_symbol
  _atom_site_label
  _atom_site_symmetry_multiplicity
  _atom_site_fract_x
  _atom_site_fract_y
  _atom_site_fract_z
  _atom_site_occupancy
  Li  Li1       1.0  0.82400  0.32500  0.49300  1.0000
  Li  Li2       1.0  0.99600  0.00129  0.49400  1.0000
  Li  Li3       1.0  0.31700  0.31600  0.50600  1.0000
  Li  Li4       1.0  0.18200  0.67200  0.50800  1.0000
  Li  Li5       1.0  0.68700  0.67500  0.51500  1.0000
  Li  Li6       1.0  0.50600  0.01470  0.52200  1.0000
  Li  Li7       1.0  0.24200  0.50100  0.98200  1.0000
  Li  Li8       1.0  0.74600  0.49300  0.98900  1.0000
  O   O1        1.0  0.78700  0.92200  0.22600  1.0000
  O   O2        1.0  0.60600  0.19900  0.22900  1.0000
  O   O3        1.0  0.12300  0.24100  0.23000  1.0000
  O   O4        1.0  0.29500  0.94000  0.23200  1.0000
  O   O5        1.0  0.95800  0.59000  0.26400  1.0000
  O   O6        1.0  0.54100  0.41400  0.73100  1.0000
  O   O7        1.0  0.04080  0.41600  0.73600  1.0000
  O   O8        1.0  0.38400  0.75000  0.76000  1.0000
  O   O9        1.0  0.71400  0.08290  0.76400  1.0000
  O   O10       1.0  0.88300  0.77400  0.77200  1.0000
  O   O11       1.0  0.21500  0.08160  0.78100  1.0000
  Ru  Ru1       1.0  0.07540  0.80500  0.00237  1.0000
  Ru  Ru2       1.0  0.56300  0.77400  0.00820  1.0000
  Ru  Ru3       1.0  0.43100  0.23000  0.01740  1.0000
  Ru  Ru4       1.0  0.92400  0.20300  0.00000  1.0000
