data_image0
_chemical_formula_structural       Be4Na10O17Si4
_chemical_formula_sum              "Be4 Na10 O17 Si4"
_cell_length_a       7.23624
_cell_length_b       7.23624
_cell_length_c       7.23624
_cell_angle_alpha    90
_cell_angle_beta     90
_cell_angle_gamma    90

_space_group_name_H-M_alt    "P 1"
_space_group_IT_number       1

loop_
  _space_group_symop_operation_xyz
  'x, y, z'

loop_
  _atom_site_type_symbol
  _atom_site_label
  _atom_site_symmetry_multiplicity
  _atom_site_fract_x
  _atom_site_fract_y
  _atom_site_fract_z
  _atom_site_occupancy
  Be  Be1       1.0  0.86600  0.13400  0.13400  1.0000
  Be  Be2       1.0  0.13400  0.86600  0.13400  1.0000
  Be  Be3       1.0  0.13400  0.13400  0.86600  1.0000
  Be  Be4       1.0  0.86600  0.86600  0.86600  1.0000
  Na  Na1       1.0  0.50000  0.00000  0.00000  1.0000
  Na  Na2       1.0  0.00000  0.50000  0.00000  1.0000
  Na  Na3       1.0  0.50000  0.50000  0.00000  1.0000
  Na  Na4       1.0  0.66000  0.34000  0.34000  1.0000
  Na  Na5       1.0  0.34000  0.66000  0.34000  1.0000
  Na  Na6       1.0  0.00000  0.00000  0.50000  1.0000
  Na  Na7       1.0  0.50000  0.00000  0.50000  1.0000
  Na  Na8       1.0  0.00000  0.50000  0.50000  1.0000
  Na  Na9       1.0  0.34000  0.34000  0.66000  1.0000
  Na  Na10      1.0  0.66000  0.66000  0.66000  1.0000
  O   O1        1.0  0.00000  0.00000  0.00000  1.0000
  O   O2        1.0  0.73700  0.26300  0.00119  1.0000
  O   O3        1.0  0.26300  0.73700  0.00119  1.0000
  O   O4        1.0  0.73700  0.00119  0.26300  1.0000
  O   O5        1.0  0.99900  0.26300  0.26300  1.0000
  O   O6        1.0  0.00119  0.73700  0.26300  1.0000
  O   O7        1.0  0.26300  0.99900  0.26300  1.0000
  O   O8        1.0  0.34900  0.34900  0.34900  1.0000
  O   O9        1.0  0.65100  0.65100  0.34900  1.0000
  O   O10       1.0  0.65100  0.34900  0.65100  1.0000
  O   O11       1.0  0.34900  0.65100  0.65100  1.0000
  O   O12       1.0  0.26300  0.00119  0.73700  1.0000
  O   O13       1.0  0.00119  0.26300  0.73700  1.0000
  O   O14       1.0  0.99900  0.73700  0.73700  1.0000
  O   O15       1.0  0.73700  0.99900  0.73700  1.0000
  O   O16       1.0  0.26300  0.26300  0.99900  1.0000
  O   O17       1.0  0.73700  0.73700  0.99900  1.0000
  Si  Si1       1.0  0.22100  0.22100  0.22100  1.0000
  Si  Si2       1.0  0.77900  0.77900  0.22100  1.0000
  Si  Si3       1.0  0.77900  0.22100  0.77900  1.0000
  Si  Si4       1.0  0.22100  0.77900  0.77900  1.0000
