data_image0
_chemical_formula_structural       C6Cl4H22N2Sn
_chemical_formula_sum              "C6 Cl4 H22 N2 Sn1"
_cell_length_a       6.59353
_cell_length_b       7.25942
_cell_length_c       8.42964
_cell_angle_alpha    109.677
_cell_angle_beta     99.0125
_cell_angle_gamma    93.0067

_space_group_name_H-M_alt    "P 1"
_space_group_IT_number       1

loop_
  _space_group_symop_operation_xyz
  'x, y, z'

loop_
  _atom_site_type_symbol
  _atom_site_label
  _atom_site_symmetry_multiplicity
  _atom_site_fract_x
  _atom_site_fract_y
  _atom_site_fract_z
  _atom_site_occupancy
  C   C1        1.0  0.29900  0.81900  0.02810  1.0000
  C   C2        1.0  0.05600  0.91500  0.23100  1.0000
  C   C3        1.0  0.73500  0.62200  0.40400  1.0000
  C   C4        1.0  0.26500  0.37800  0.59600  1.0000
  C   C5        1.0  0.94400  0.08490  0.76900  1.0000
  C   C6        1.0  0.70100  0.18100  0.97200  1.0000
  Cl  Cl1       1.0  0.25200  0.40700  0.19500  1.0000
  Cl  Cl2       1.0  0.64800  0.15600  0.39300  1.0000
  Cl  Cl3       1.0  0.35200  0.84400  0.60700  1.0000
  Cl  Cl4       1.0  0.74800  0.59300  0.80500  1.0000
  H   H1        1.0  0.44600  0.75600  0.01340  1.0000
  H   H2        1.0  0.30800  0.96300  0.01460  1.0000
  H   H3        1.0  0.82800  0.28000  0.06720  1.0000
  H   H4        1.0  0.93400  0.81400  0.13100  1.0000
  H   H5        1.0  0.26200  0.70500  0.21900  1.0000
  H   H6        1.0  0.05710  0.06300  0.22400  1.0000
  H   H7        1.0  0.72100  0.53100  0.26900  1.0000
  H   H8        1.0  0.37800  0.94000  0.29200  1.0000
  H   H9        1.0  0.03410  0.91900  0.35800  1.0000
  H   H10       1.0  0.70800  0.77300  0.41700  1.0000
  H   H11       1.0  0.88600  0.61700  0.47700  1.0000
  H   H12       1.0  0.11400  0.38300  0.52300  1.0000
  H   H13       1.0  0.29200  0.22700  0.58300  1.0000
  H   H14       1.0  0.96600  0.08140  0.64200  1.0000
  H   H15       1.0  0.62200  0.05980  0.70800  1.0000
  H   H16       1.0  0.27900  0.46900  0.73100  1.0000
  H   H17       1.0  0.94300  0.93700  0.77600  1.0000
  H   H18       1.0  0.73800  0.29500  0.78100  1.0000
  H   H19       1.0  0.06590  0.18600  0.86900  1.0000
  H   H20       1.0  0.17200  0.72000  0.93300  1.0000
  H   H21       1.0  0.69200  0.03680  0.98500  1.0000
  H   H22       1.0  0.55400  0.24400  0.98700  1.0000
  N   N1        1.0  0.25800  0.84200  0.20200  1.0000
  N   N2        1.0  0.74200  0.15800  0.79800  1.0000
  Sn  Sn1       1.0  0.50000  0.50000  0.50000  1.0000
