data_image0
_chemical_formula_structural       Li8Nd4O11
_chemical_formula_sum              "Li8 Nd4 O11"
_cell_length_a       12.3779
_cell_length_b       6.13689
_cell_length_c       4.94642
_cell_angle_alpha    97.2946
_cell_angle_beta     96.4015
_cell_angle_gamma    128.175

_space_group_name_H-M_alt    "P 1"
_space_group_IT_number       1

loop_
  _space_group_symop_operation_xyz
  'x, y, z'

loop_
  _atom_site_type_symbol
  _atom_site_label
  _atom_site_symmetry_multiplicity
  _atom_site_fract_x
  _atom_site_fract_y
  _atom_site_fract_z
  _atom_site_occupancy
  Li  Li1       1.0  0.23300  0.50100  0.05850  1.0000
  Li  Li2       1.0  0.93900  0.89400  0.41100  1.0000
  Li  Li3       1.0  0.80300  0.37300  0.48000  1.0000
  Li  Li4       1.0  0.69600  0.60800  0.49500  1.0000
  Li  Li5       1.0  0.19500  0.60900  0.50000  1.0000
  Li  Li6       1.0  0.55300  0.08960  0.54900  1.0000
  Li  Li7       1.0  0.27300  0.35800  0.56700  1.0000
  Li  Li8       1.0  0.76200  0.48400  0.99600  1.0000
  Nd  Nd1       1.0  0.91900  0.18600  0.00527  1.0000
  Nd  Nd2       1.0  0.56200  0.77400  0.95200  1.0000
  Nd  Nd3       1.0  0.08670  0.88100  0.97300  1.0000
  Nd  Nd4       1.0  0.42500  0.12300  0.99500  1.0000
  O   O1        1.0  0.75500  0.82500  0.21400  1.0000
  O   O2        1.0  0.62100  0.20300  0.22300  1.0000
  O   O3        1.0  0.25000  0.83300  0.22800  1.0000
  O   O4        1.0  0.93900  0.57600  0.24500  1.0000
  O   O5        1.0  0.10300  0.21900  0.28900  1.0000
  O   O6        1.0  0.54000  0.39900  0.66700  1.0000
  O   O7        1.0  0.39400  0.77500  0.68000  1.0000
  O   O8        1.0  0.72000  0.11100  0.73400  1.0000
  O   O9        1.0  0.87800  0.76900  0.74000  1.0000
  O   O10       1.0  0.10000  0.52000  0.79900  1.0000
  O   O11       1.0  0.31000  0.31700  0.94300  1.0000
