data_image0
_chemical_formula_structural       Ca5P8
_chemical_formula_sum              "Ca5 P8"
_cell_length_a       6.87481
_cell_length_b       6.87481
_cell_length_c       7.49037
_cell_angle_alpha    98.9943
_cell_angle_beta     98.9943
_cell_angle_gamma    119.687

_space_group_name_H-M_alt    "P 1"
_space_group_IT_number       1

loop_
  _space_group_symop_operation_xyz
  'x, y, z'

loop_
  _atom_site_type_symbol
  _atom_site_label
  _atom_site_symmetry_multiplicity
  _atom_site_fract_x
  _atom_site_fract_y
  _atom_site_fract_z
  _atom_site_occupancy
  Ca  Ca1       1.0  0.66500  0.33500  0.00000  1.0000
  Ca  Ca2       1.0  0.33500  0.66500  0.00000  1.0000
  Ca  Ca3       1.0  0.82500  0.17500  0.50000  1.0000
  Ca  Ca4       1.0  0.50000  0.50000  0.50000  1.0000
  Ca  Ca5       1.0  0.17500  0.82500  0.50000  1.0000
  P   P1        1.0  0.05270  0.05270  0.16400  1.0000
  P   P2        1.0  0.38600  0.07900  0.24000  1.0000
  P   P3        1.0  0.07900  0.38600  0.24000  1.0000
  P   P4        1.0  0.77700  0.77700  0.24300  1.0000
  P   P5        1.0  0.22300  0.22300  0.75700  1.0000
  P   P6        1.0  0.92100  0.61400  0.76000  1.0000
  P   P7        1.0  0.61400  0.92100  0.76000  1.0000
  P   P8        1.0  0.94700  0.94700  0.83600  1.0000
