data_image0
_chemical_formula_structural       Li8O11Pt4
_chemical_formula_sum              "Li8 O11 Pt4"
_cell_length_a       10.3145
_cell_length_b       5.15758
_cell_length_c       5.03976
_cell_angle_alpha    100.051
_cell_angle_beta     99.9318
_cell_angle_gamma    119.551

_space_group_name_H-M_alt    "P 1"
_space_group_IT_number       1

loop_
  _space_group_symop_operation_xyz
  'x, y, z'

loop_
  _atom_site_type_symbol
  _atom_site_label
  _atom_site_symmetry_multiplicity
  _atom_site_fract_x
  _atom_site_fract_y
  _atom_site_fract_z
  _atom_site_occupancy
  Li  Li1       1.0  0.98800  0.97500  0.49300  1.0000
  Li  Li2       1.0  0.66900  0.66700  0.50100  1.0000
  Li  Li3       1.0  0.50100  0.00253  0.50100  1.0000
  Li  Li4       1.0  0.83600  0.33000  0.50600  1.0000
  Li  Li5       1.0  0.34200  0.33800  0.50600  1.0000
  Li  Li6       1.0  0.16400  0.68600  0.51100  1.0000
  Li  Li7       1.0  0.25200  0.51000  0.97700  1.0000
  Li  Li8       1.0  0.74900  0.49100  0.00000  1.0000
  O   O1        1.0  0.79200  0.92000  0.23600  1.0000
  O   O2        1.0  0.45900  0.58000  0.23600  1.0000
  O   O3        1.0  0.61500  0.23500  0.23900  1.0000
  O   O4        1.0  0.96600  0.57300  0.24000  1.0000
  O   O5        1.0  0.28500  0.93300  0.24200  1.0000
  O   O6        1.0  0.87500  0.74800  0.75200  1.0000
  O   O7        1.0  0.38100  0.76400  0.75400  1.0000
  O   O8        1.0  0.04710  0.41000  0.76300  1.0000
  O   O9        1.0  0.53900  0.42000  0.76400  1.0000
  O   O10       1.0  0.70900  0.08240  0.76400  1.0000
  O   O11       1.0  0.20700  0.08880  0.76400  1.0000
  Pt  Pt1       1.0  0.92800  0.15700  0.00376  1.0000
  Pt  Pt2       1.0  0.07680  0.84600  0.00388  1.0000
  Pt  Pt3       1.0  0.41300  0.16600  0.99800  1.0000
  Pt  Pt4       1.0  0.58500  0.83600  0.00000  1.0000
