data_image0
_chemical_formula_structural       Rb12S16Ta4
_chemical_formula_sum              "Rb12 S16 Ta4"
_cell_length_a       9.67306
_cell_length_b       9.76056
_cell_length_c       11.2079
_cell_angle_alpha    90
_cell_angle_beta     90
_cell_angle_gamma    90

_space_group_name_H-M_alt    "P 1"
_space_group_IT_number       1

loop_
  _space_group_symop_operation_xyz
  'x, y, z'

loop_
  _atom_site_type_symbol
  _atom_site_label
  _atom_site_symmetry_multiplicity
  _atom_site_fract_x
  _atom_site_fract_y
  _atom_site_fract_z
  _atom_site_occupancy
  Rb  Rb1       1.0  0.55100  0.21100  0.04330  1.0000
  Rb  Rb2       1.0  0.05090  0.28900  0.04330  1.0000
  Rb  Rb3       1.0  0.35600  0.58300  0.25000  1.0000
  Rb  Rb4       1.0  0.85600  0.91700  0.25000  1.0000
  Rb  Rb5       1.0  0.55100  0.21100  0.45700  1.0000
  Rb  Rb6       1.0  0.05090  0.28900  0.45700  1.0000
  Rb  Rb7       1.0  0.94900  0.71100  0.54300  1.0000
  Rb  Rb8       1.0  0.44900  0.78900  0.54300  1.0000
  Rb  Rb9       1.0  0.14400  0.08270  0.75000  1.0000
  Rb  Rb10      1.0  0.64400  0.41700  0.75000  1.0000
  Rb  Rb11      1.0  0.94900  0.71100  0.95700  1.0000
  Rb  Rb12      1.0  0.44900  0.78900  0.95700  1.0000
  S   S1        1.0  0.66700  0.55200  0.08120  1.0000
  S   S2        1.0  0.16700  0.94800  0.08120  1.0000
  S   S3        1.0  0.29900  0.24800  0.25000  1.0000
  S   S4        1.0  0.79900  0.25200  0.25000  1.0000
  S   S5        1.0  0.99900  0.57900  0.25000  1.0000
  S   S6        1.0  0.49900  0.92100  0.25000  1.0000
  S   S7        1.0  0.66700  0.55200  0.41900  1.0000
  S   S8        1.0  0.16700  0.94800  0.41900  1.0000
  S   S9        1.0  0.83300  0.05170  0.58100  1.0000
  S   S10       1.0  0.33300  0.44800  0.58100  1.0000
  S   S11       1.0  0.50100  0.07850  0.75000  1.0000
  S   S12       1.0  0.00101  0.42100  0.75000  1.0000
  S   S13       1.0  0.20100  0.74800  0.75000  1.0000
  S   S14       1.0  0.70100  0.75200  0.75000  1.0000
  S   S15       1.0  0.83300  0.05170  0.91900  1.0000
  S   S16       1.0  0.33300  0.44800  0.91900  1.0000
  Ta  Ta1       1.0  0.28100  0.01440  0.25000  1.0000
  Ta  Ta2       1.0  0.78100  0.48600  0.25000  1.0000
  Ta  Ta3       1.0  0.21900  0.51400  0.75000  1.0000
  Ta  Ta4       1.0  0.71900  0.98600  0.75000  1.0000
