data_image0
_chemical_formula_structural       BaCu8P4
_chemical_formula_sum              "Ba1 Cu8 P4"
_cell_length_a       3.85641
_cell_length_b       7.45241
_cell_length_c       7.45241
_cell_angle_alpha    93.8385
_cell_angle_beta     75.0049
_cell_angle_gamma    104.995

_space_group_name_H-M_alt    "P 1"
_space_group_IT_number       1

loop_
  _space_group_symop_operation_xyz
  'x, y, z'

loop_
  _atom_site_type_symbol
  _atom_site_label
  _atom_site_symmetry_multiplicity
  _atom_site_fract_x
  _atom_site_fract_y
  _atom_site_fract_z
  _atom_site_occupancy
  Ba  Ba1       1.0  0.00000  0.00000  0.00000  1.0000
  Cu  Cu1       1.0  0.22700  0.56400  0.10900  1.0000
  Cu  Cu2       1.0  0.63500  0.62000  0.35000  1.0000
  Cu  Cu3       1.0  0.98500  0.35000  0.38000  1.0000
  Cu  Cu4       1.0  0.33600  0.10900  0.43600  1.0000
  Cu  Cu5       1.0  0.66400  0.89100  0.56400  1.0000
  Cu  Cu6       1.0  0.01500  0.65000  0.62000  1.0000
  Cu  Cu7       1.0  0.36500  0.38000  0.65000  1.0000
  Cu  Cu8       1.0  0.77300  0.43600  0.89100  1.0000
  P   P1        1.0  0.57400  0.33900  0.19100  1.0000
  P   P2        1.0  0.23500  0.80900  0.33900  1.0000
  P   P3        1.0  0.76500  0.19100  0.66100  1.0000
  P   P4        1.0  0.42600  0.66100  0.80900  1.0000
