data_image0
_chemical_formula_structural       Nd4O22Si4V5
_chemical_formula_sum              "Nd4 O22 Si4 V5"
_cell_length_a       5.64238
_cell_length_b       7.22682
_cell_length_c       11.0239
_cell_angle_alpha    99.4949
_cell_angle_beta     90
_cell_angle_gamma    112.978

_space_group_name_H-M_alt    "P 1"
_space_group_IT_number       1

loop_
  _space_group_symop_operation_xyz
  'x, y, z'

loop_
  _atom_site_type_symbol
  _atom_site_label
  _atom_site_symmetry_multiplicity
  _atom_site_fract_x
  _atom_site_fract_y
  _atom_site_fract_z
  _atom_site_occupancy
  Nd  Nd1       1.0  0.35800  0.71600  0.24200  1.0000
  Nd  Nd2       1.0  0.06890  0.13800  0.24700  1.0000
  Nd  Nd3       1.0  0.93100  0.86200  0.75300  1.0000
  Nd  Nd4       1.0  0.64200  0.28400  0.75800  1.0000
  O   O1        1.0  0.16400  0.85600  0.08710  1.0000
  O   O2        1.0  0.69200  0.85600  0.08710  1.0000
  O   O3        1.0  0.18700  0.37500  0.10400  1.0000
  O   O4        1.0  0.77100  0.54200  0.12500  1.0000
  O   O5        1.0  0.58200  0.16400  0.16800  1.0000
  O   O6        1.0  0.48500  0.45200  0.31200  1.0000
  O   O7        1.0  0.96700  0.45200  0.31200  1.0000
  O   O8        1.0  0.21700  0.95000  0.36600  1.0000
  O   O9        1.0  0.73300  0.95000  0.36600  1.0000
  O   O10       1.0  0.13800  0.27600  0.47600  1.0000
  O   O11       1.0  0.35000  0.69900  0.48800  1.0000
  O   O12       1.0  0.65000  0.30100  0.51200  1.0000
  O   O13       1.0  0.86200  0.72400  0.52400  1.0000
  O   O14       1.0  0.26700  0.05020  0.63400  1.0000
  O   O15       1.0  0.78300  0.05020  0.63400  1.0000
  O   O16       1.0  0.03300  0.54800  0.68800  1.0000
  O   O17       1.0  0.51500  0.54800  0.68800  1.0000
  O   O18       1.0  0.41800  0.83600  0.83200  1.0000
  O   O19       1.0  0.22900  0.45800  0.87500  1.0000
  O   O20       1.0  0.81300  0.62500  0.89600  1.0000
  O   O21       1.0  0.30800  0.14400  0.91300  1.0000
  O   O22       1.0  0.83600  0.14400  0.91300  1.0000
  Si  Si1       1.0  0.85900  0.71700  0.03980  1.0000
  Si  Si2       1.0  0.70100  0.40200  0.23000  1.0000
  Si  Si3       1.0  0.29900  0.59800  0.77000  1.0000
  Si  Si4       1.0  0.14100  0.28300  0.96000  1.0000
  V   V1        1.0  0.50000  0.00000  0.00000  1.0000
  V   V2        1.0  0.00000  0.50000  0.50000  1.0000
  V   V3        1.0  0.50000  0.50000  0.50000  1.0000
  V   V4        1.0  0.00000  0.00000  0.50000  1.0000
  V   V5        1.0  0.50000  0.00000  0.50000  1.0000
