data_image0
_chemical_formula_structural       As4BaCu8
_chemical_formula_sum              "As4 Ba1 Cu8"
_cell_length_a       3.9493
_cell_length_b       7.67061
_cell_length_c       7.67061
_cell_angle_alpha    93.7998
_cell_angle_beta     75.0824
_cell_angle_gamma    104.918

_space_group_name_H-M_alt    "P 1"
_space_group_IT_number       1

loop_
  _space_group_symop_operation_xyz
  'x, y, z'

loop_
  _atom_site_type_symbol
  _atom_site_label
  _atom_site_symmetry_multiplicity
  _atom_site_fract_x
  _atom_site_fract_y
  _atom_site_fract_z
  _atom_site_occupancy
  As  As1       1.0  0.57100  0.32700  0.18600  1.0000
  As  As2       1.0  0.24400  0.81400  0.32700  1.0000
  As  As3       1.0  0.75600  0.18600  0.67300  1.0000
  As  As4       1.0  0.42900  0.67300  0.81400  1.0000
  Ba  Ba1       1.0  0.00000  0.00000  0.00000  1.0000
  Cu  Cu1       1.0  0.21500  0.54300  0.11300  1.0000
  Cu  Cu2       1.0  0.62700  0.60900  0.35500  1.0000
  Cu  Cu3       1.0  0.98200  0.35500  0.39100  1.0000
  Cu  Cu4       1.0  0.32800  0.11300  0.45700  1.0000
  Cu  Cu5       1.0  0.67200  0.88700  0.54300  1.0000
  Cu  Cu6       1.0  0.01790  0.64500  0.60900  1.0000
  Cu  Cu7       1.0  0.37300  0.39100  0.64500  1.0000
  Cu  Cu8       1.0  0.78500  0.45700  0.88700  1.0000
