data_image0
_chemical_formula_structural       Li8O11Ti4
_chemical_formula_sum              "Li8 O11 Ti4"
_cell_length_a       10.1806
_cell_length_b       5.02622
_cell_length_c       5.06794
_cell_angle_alpha    99.2465
_cell_angle_beta     100.142
_cell_angle_gamma    120.358

_space_group_name_H-M_alt    "P 1"
_space_group_IT_number       1

loop_
  _space_group_symop_operation_xyz
  'x, y, z'

loop_
  _atom_site_type_symbol
  _atom_site_label
  _atom_site_symmetry_multiplicity
  _atom_site_fract_x
  _atom_site_fract_y
  _atom_site_fract_z
  _atom_site_occupancy
  Li  Li1       1.0  0.75000  0.50200  0.00319  1.0000
  Li  Li2       1.0  0.68000  0.66000  0.49300  1.0000
  Li  Li3       1.0  0.99800  0.00224  0.49900  1.0000
  Li  Li4       1.0  0.83100  0.33400  0.49900  1.0000
  Li  Li5       1.0  0.16800  0.65400  0.49900  1.0000
  Li  Li6       1.0  0.50300  0.03560  0.51300  1.0000
  Li  Li7       1.0  0.31800  0.32200  0.51800  1.0000
  Li  Li8       1.0  0.23800  0.49500  0.99200  1.0000
  O   O1        1.0  0.96600  0.57900  0.23300  1.0000
  O   O2        1.0  0.79000  0.92600  0.23300  1.0000
  O   O3        1.0  0.11600  0.23200  0.23600  1.0000
  O   O4        1.0  0.61000  0.21100  0.23700  1.0000
  O   O5        1.0  0.29300  0.94600  0.23900  1.0000
  O   O6        1.0  0.38900  0.76500  0.75700  1.0000
  O   O7        1.0  0.71500  0.06670  0.75900  1.0000
  O   O8        1.0  0.53300  0.41700  0.76200  1.0000
  O   O9        1.0  0.88900  0.77400  0.76700  1.0000
  O   O10       1.0  0.03870  0.43200  0.77200  1.0000
  O   O11       1.0  0.21600  0.08740  0.78000  1.0000
  Ti  Ti1       1.0  0.91200  0.16200  0.00122  1.0000
  Ti  Ti2       1.0  0.08280  0.83400  0.00285  1.0000
  Ti  Ti3       1.0  0.58200  0.83000  0.98100  1.0000
  Ti  Ti4       1.0  0.41400  0.15700  0.99500  1.0000
