data_image0
_chemical_formula_structural       Li8O11Ta4
_chemical_formula_sum              "Li8 O11 Ta4"
_cell_length_a       10.2765
_cell_length_b       5.05233
_cell_length_c       5.23262
_cell_angle_alpha    98.701
_cell_angle_beta     99.1551
_cell_angle_gamma    118.89

_space_group_name_H-M_alt    "P 1"
_space_group_IT_number       1

loop_
  _space_group_symop_operation_xyz
  'x, y, z'

loop_
  _atom_site_type_symbol
  _atom_site_label
  _atom_site_symmetry_multiplicity
  _atom_site_fract_x
  _atom_site_fract_y
  _atom_site_fract_z
  _atom_site_occupancy
  Li  Li1       1.0  0.67700  0.65600  0.49300  1.0000
  Li  Li2       1.0  0.99800  0.99700  0.49800  1.0000
  Li  Li3       1.0  0.82900  0.33200  0.50000  1.0000
  Li  Li4       1.0  0.17300  0.66200  0.50300  1.0000
  Li  Li5       1.0  0.31700  0.32800  0.51600  1.0000
  Li  Li6       1.0  0.50500  0.03430  0.51900  1.0000
  Li  Li7       1.0  0.24200  0.49400  0.98200  1.0000
  Li  Li8       1.0  0.75000  0.49500  0.99700  1.0000
  O   O1        1.0  0.96800  0.58600  0.22900  1.0000
  O   O2        1.0  0.79400  0.92800  0.23100  1.0000
  O   O3        1.0  0.29700  0.96000  0.23900  1.0000
  O   O4        1.0  0.12900  0.26200  0.26100  1.0000
  O   O5        1.0  0.62600  0.23400  0.26700  1.0000
  O   O6        1.0  0.37900  0.75300  0.72900  1.0000
  O   O7        1.0  0.87300  0.73700  0.73300  1.0000
  O   O8        1.0  0.70700  0.05320  0.76500  1.0000
  O   O9        1.0  0.53700  0.41300  0.76500  1.0000
  O   O10       1.0  0.20500  0.06580  0.76800  1.0000
  O   O11       1.0  0.03310  0.41000  0.77000  1.0000
  Ta  Ta1       1.0  0.07530  0.85000  0.00107  1.0000
  Ta  Ta2       1.0  0.42600  0.17600  0.01110  1.0000
  Ta  Ta3       1.0  0.57000  0.84000  0.99400  1.0000
  Ta  Ta4       1.0  0.92100  0.14300  0.99800  1.0000
