data_image0
_chemical_formula_structural       C2F6H12O12S2V
_chemical_formula_sum              "C2 F6 H12 O12 S2 V1"
_cell_length_a       6.4262
_cell_length_b       6.84052
_cell_length_c       9.25384
_cell_angle_alpha    111.691
_cell_angle_beta     104.687
_cell_angle_gamma    90

_space_group_name_H-M_alt    "P 1"
_space_group_IT_number       1

loop_
  _space_group_symop_operation_xyz
  'x, y, z'

loop_
  _atom_site_type_symbol
  _atom_site_label
  _atom_site_symmetry_multiplicity
  _atom_site_fract_x
  _atom_site_fract_y
  _atom_site_fract_z
  _atom_site_occupancy
  C   C1        1.0  0.71500  0.73400  0.46700  1.0000
  C   C2        1.0  0.28500  0.26600  0.53300  1.0000
  F   F1        1.0  0.17700  0.07280  0.46800  1.0000
  F   F2        1.0  0.17700  0.39500  0.46800  1.0000
  F   F3        1.0  0.51700  0.74700  0.49500  1.0000
  F   F4        1.0  0.48300  0.25300  0.50500  1.0000
  F   F5        1.0  0.82300  0.60500  0.53200  1.0000
  F   F6        1.0  0.82300  0.92700  0.53200  1.0000
  H   H1        1.0  0.67700  0.18800  0.14400  1.0000
  H   H2        1.0  0.67700  0.95500  0.14400  1.0000
  H   H3        1.0  0.31000  0.35600  0.16900  1.0000
  H   H4        1.0  0.31000  0.81300  0.16900  1.0000
  H   H5        1.0  0.07730  0.42100  0.19200  1.0000
  H   H6        1.0  0.07730  0.77100  0.19200  1.0000
  H   H7        1.0  0.92300  0.22900  0.80800  1.0000
  H   H8        1.0  0.92300  0.57900  0.80800  1.0000
  H   H9        1.0  0.69000  0.18700  0.83100  1.0000
  H   H10       1.0  0.69000  0.64400  0.83100  1.0000
  H   H11       1.0  0.32300  0.04480  0.85600  1.0000
  H   H12       1.0  0.32300  0.81200  0.85600  1.0000
  O   O1        1.0  0.74400  0.05570  0.11100  1.0000
  O   O2        1.0  0.16200  0.30200  0.15700  1.0000
  O   O3        1.0  0.16200  0.85500  0.15700  1.0000
  O   O4        1.0  0.56900  0.41600  0.18800  1.0000
  O   O5        1.0  0.56900  0.77200  0.18800  1.0000
  O   O6        1.0  0.91100  0.61900  0.23800  1.0000
  O   O7        1.0  0.08880  0.38100  0.76200  1.0000
  O   O8        1.0  0.43100  0.22800  0.81200  1.0000
  O   O9        1.0  0.43100  0.58400  0.81200  1.0000
  O   O10       1.0  0.83800  0.14500  0.84300  1.0000
  O   O11       1.0  0.83800  0.69800  0.84300  1.0000
  O   O12       1.0  0.25600  0.94400  0.88900  1.0000
  S   S1        1.0  0.68900  0.62400  0.24800  1.0000
  S   S2        1.0  0.31100  0.37600  0.75200  1.0000
  V   V1        1.0  0.00000  0.00000  0.00000  1.0000
