data_image0
_chemical_formula_structural       As4Br16Ga4Hg11
_chemical_formula_sum              "As4 Br16 Ga4 Hg11"
_cell_length_a       7.87401
_cell_length_b       7.93239
_cell_length_c       23.1851
_cell_angle_alpha    97.7662
_cell_angle_beta     90
_cell_angle_gamma    119.757

_space_group_name_H-M_alt    "P 1"
_space_group_IT_number       1

loop_
  _space_group_symop_operation_xyz
  'x, y, z'

loop_
  _atom_site_type_symbol
  _atom_site_label
  _atom_site_symmetry_multiplicity
  _atom_site_fract_x
  _atom_site_fract_y
  _atom_site_fract_z
  _atom_site_occupancy
  As  As1       1.0  0.05730  0.11500  0.23200  1.0000
  As  As2       1.0  0.41500  0.82900  0.32900  1.0000
  As  As3       1.0  0.58500  0.17100  0.67100  1.0000
  As  As4       1.0  0.94300  0.88500  0.76800  1.0000
  Br  Br1       1.0  0.33600  0.67200  0.00934  1.0000
  Br  Br2       1.0  0.04980  0.58400  0.15100  1.0000
  Br  Br3       1.0  0.53400  0.58400  0.15100  1.0000
  Br  Br4       1.0  0.53200  0.06400  0.15100  1.0000
  Br  Br5       1.0  0.73800  0.47600  0.28200  1.0000
  Br  Br6       1.0  0.43300  0.35900  0.41400  1.0000
  Br  Br7       1.0  0.92600  0.35900  0.41400  1.0000
  Br  Br8       1.0  0.92800  0.85600  0.42100  1.0000
  Br  Br9       1.0  0.07200  0.14400  0.57900  1.0000
  Br  Br10      1.0  0.07390  0.64100  0.58600  1.0000
  Br  Br11      1.0  0.56700  0.64100  0.58600  1.0000
  Br  Br12      1.0  0.26200  0.52400  0.71800  1.0000
  Br  Br13      1.0  0.46800  0.93600  0.84900  1.0000
  Br  Br14      1.0  0.46600  0.41600  0.84900  1.0000
  Br  Br15      1.0  0.95000  0.41600  0.84900  1.0000
  Br  Br16      1.0  0.66400  0.32800  0.99100  1.0000
  Ga  Ga1       1.0  0.36200  0.72300  0.11100  1.0000
  Ga  Ga2       1.0  0.75800  0.51600  0.38500  1.0000
  Ga  Ga3       1.0  0.24200  0.48400  0.61500  1.0000
  Ga  Ga4       1.0  0.63800  0.27700  0.88900  1.0000
  Hg  Hg1       1.0  0.00000  0.00000  0.00000  1.0000
  Hg  Hg2       1.0  0.03170  0.06340  0.11700  1.0000
  Hg  Hg3       1.0  0.23500  0.96700  0.27900  1.0000
  Hg  Hg4       1.0  0.73300  0.96700  0.27900  1.0000
  Hg  Hg5       1.0  0.23400  0.46800  0.28300  1.0000
  Hg  Hg6       1.0  0.47400  0.94700  0.44200  1.0000
  Hg  Hg7       1.0  0.52600  0.05300  0.55800  1.0000
  Hg  Hg8       1.0  0.76600  0.53200  0.71700  1.0000
  Hg  Hg9       1.0  0.26700  0.03260  0.72100  1.0000
  Hg  Hg10      1.0  0.76500  0.03260  0.72100  1.0000
  Hg  Hg11      1.0  0.96800  0.93700  0.88300  1.0000
