data_image0
_chemical_formula_structural       CaO24P6Zr4
_chemical_formula_sum              "Ca1 O24 P6 Zr4"
_cell_length_a       8.81845
_cell_length_b       8.81845
_cell_length_c       9.06432
_cell_angle_alpha    119.107
_cell_angle_beta     119.107
_cell_angle_gamma    60

_space_group_name_H-M_alt    "P 1"
_space_group_IT_number       1

loop_
  _space_group_symop_operation_xyz
  'x, y, z'

loop_
  _atom_site_type_symbol
  _atom_site_label
  _atom_site_symmetry_multiplicity
  _atom_site_fract_x
  _atom_site_fract_y
  _atom_site_fract_z
  _atom_site_occupancy
  Ca  Ca1       1.0  0.50000  0.50000  0.50000  1.0000
  O   O1        1.0  0.89700  0.50900  0.08610  1.0000
  O   O2        1.0  0.50900  0.68000  0.08610  1.0000
  O   O3        1.0  0.68000  0.89700  0.08610  1.0000
  O   O4        1.0  0.59300  0.24000  0.25600  1.0000
  O   O5        1.0  0.24000  0.42300  0.25600  1.0000
  O   O6        1.0  0.42300  0.59300  0.25600  1.0000
  O   O7        1.0  0.92100  0.04060  0.26300  1.0000
  O   O8        1.0  0.04060  0.30100  0.26300  1.0000
  O   O9        1.0  0.30100  0.92100  0.26300  1.0000
  O   O10       1.0  0.76600  0.01780  0.42200  1.0000
  O   O11       1.0  0.01780  0.63900  0.42200  1.0000
  O   O12       1.0  0.63900  0.76600  0.42200  1.0000
  O   O13       1.0  0.36100  0.23400  0.57800  1.0000
  O   O14       1.0  0.98200  0.36100  0.57800  1.0000
  O   O15       1.0  0.23400  0.98200  0.57800  1.0000
  O   O16       1.0  0.69900  0.07900  0.73700  1.0000
  O   O17       1.0  0.95900  0.69900  0.73700  1.0000
  O   O18       1.0  0.07900  0.95900  0.73700  1.0000
  O   O19       1.0  0.57700  0.40700  0.74400  1.0000
  O   O20       1.0  0.76000  0.57700  0.74400  1.0000
  O   O21       1.0  0.40700  0.76000  0.74400  1.0000
  O   O22       1.0  0.32000  0.10300  0.91400  1.0000
  O   O23       1.0  0.49100  0.32000  0.91400  1.0000
  O   O24       1.0  0.10300  0.49100  0.91400  1.0000
  P   P1        1.0  0.74300  0.04670  0.25800  1.0000
  P   P2        1.0  0.04670  0.46900  0.25800  1.0000
  P   P3        1.0  0.46900  0.74300  0.25800  1.0000
  P   P4        1.0  0.53100  0.25700  0.74200  1.0000
  P   P5        1.0  0.95300  0.53100  0.74200  1.0000
  P   P6        1.0  0.25700  0.95300  0.74200  1.0000
  Zr  Zr1       1.0  0.35200  0.35200  0.05630  1.0000
  Zr  Zr2       1.0  0.13800  0.13800  0.41300  1.0000
  Zr  Zr3       1.0  0.86200  0.86200  0.58700  1.0000
  Zr  Zr4       1.0  0.64800  0.64800  0.94400  1.0000
