data_image0
_chemical_formula_structural       Br8Gd5
_chemical_formula_sum              "Br8 Gd5"
_cell_length_a       3.85747
_cell_length_b       10.1903
_cell_length_c       10.6951
_cell_angle_alpha    93.2709
_cell_angle_beta     100.389
_cell_angle_gamma    100.91

_space_group_name_H-M_alt    "P 1"
_space_group_IT_number       1

loop_
  _space_group_symop_operation_xyz
  'x, y, z'

loop_
  _atom_site_type_symbol
  _atom_site_label
  _atom_site_symmetry_multiplicity
  _atom_site_fract_x
  _atom_site_fract_y
  _atom_site_fract_z
  _atom_site_occupancy
  Br  Br1       1.0  0.46200  0.82400  0.10000  1.0000
  Br  Br2       1.0  0.82800  0.49700  0.15800  1.0000
  Br  Br3       1.0  0.20000  0.16100  0.23800  1.0000
  Br  Br4       1.0  0.13500  0.84300  0.42800  1.0000
  Br  Br5       1.0  0.86500  0.15700  0.57200  1.0000
  Br  Br6       1.0  0.80000  0.83900  0.76200  1.0000
  Br  Br7       1.0  0.17200  0.50300  0.84200  1.0000
  Br  Br8       1.0  0.53800  0.17600  0.90000  1.0000
  Gd  Gd1       1.0  0.00000  0.00000  0.00000  1.0000
  Gd  Gd2       1.0  0.48500  0.64000  0.32900  1.0000
  Gd  Gd3       1.0  0.86800  0.35200  0.38400  1.0000
  Gd  Gd4       1.0  0.13200  0.64800  0.61600  1.0000
  Gd  Gd5       1.0  0.51500  0.36000  0.67100  1.0000
