data_image0
_chemical_formula_structural       La4O22Si4V5
_chemical_formula_sum              "La4 O22 Si4 V5"
_cell_length_a       5.6412
_cell_length_b       7.32284
_cell_length_c       11.1325
_cell_angle_alpha    99.7289
_cell_angle_beta     90
_cell_angle_gamma    112.655

_space_group_name_H-M_alt    "P 1"
_space_group_IT_number       1

loop_
  _space_group_symop_operation_xyz
  'x, y, z'

loop_
  _atom_site_type_symbol
  _atom_site_label
  _atom_site_symmetry_multiplicity
  _atom_site_fract_x
  _atom_site_fract_y
  _atom_site_fract_z
  _atom_site_occupancy
  La  La1       1.0  0.35700  0.71300  0.24100  1.0000
  La  La2       1.0  0.07210  0.14400  0.24800  1.0000
  La  La3       1.0  0.92800  0.85600  0.75200  1.0000
  La  La4       1.0  0.64300  0.28700  0.75900  1.0000
  O   O1        1.0  0.16700  0.86100  0.08610  1.0000
  O   O2        1.0  0.69400  0.86100  0.08610  1.0000
  O   O3        1.0  0.19000  0.37900  0.09840  1.0000
  O   O4        1.0  0.78400  0.56800  0.13800  1.0000
  O   O5        1.0  0.58900  0.17800  0.16100  1.0000
  O   O6        1.0  0.48500  0.45100  0.31200  1.0000
  O   O7        1.0  0.96600  0.45100  0.31200  1.0000
  O   O8        1.0  0.23500  0.95900  0.36900  1.0000
  O   O9        1.0  0.72400  0.95900  0.36900  1.0000
  O   O10       1.0  0.14400  0.28700  0.47700  1.0000
  O   O11       1.0  0.35200  0.70400  0.48700  1.0000
  O   O12       1.0  0.64800  0.29600  0.51300  1.0000
  O   O13       1.0  0.85600  0.71300  0.52300  1.0000
  O   O14       1.0  0.27600  0.04120  0.63100  1.0000
  O   O15       1.0  0.76500  0.04120  0.63100  1.0000
  O   O16       1.0  0.03420  0.54900  0.68800  1.0000
  O   O17       1.0  0.51500  0.54900  0.68800  1.0000
  O   O18       1.0  0.41100  0.82200  0.83900  1.0000
  O   O19       1.0  0.21600  0.43200  0.86200  1.0000
  O   O20       1.0  0.81000  0.62100  0.90200  1.0000
  O   O21       1.0  0.30600  0.13900  0.91400  1.0000
  O   O22       1.0  0.83300  0.13900  0.91400  1.0000
  Si  Si1       1.0  0.86200  0.72400  0.04260  1.0000
  Si  Si2       1.0  0.70400  0.40800  0.23100  1.0000
  Si  Si3       1.0  0.29600  0.59200  0.76900  1.0000
  Si  Si4       1.0  0.13800  0.27600  0.95700  1.0000
  V   V1        1.0  0.50000  0.00000  0.00000  1.0000
  V   V2        1.0  0.00000  0.00000  0.50000  1.0000
  V   V3        1.0  0.50000  0.00000  0.50000  1.0000
  V   V4        1.0  0.00000  0.50000  0.50000  1.0000
  V   V5        1.0  0.50000  0.50000  0.50000  1.0000
