data_image0
_chemical_formula_structural       Li8O11Pu4
_chemical_formula_sum              "Li8 O11 Pu4"
_cell_length_a       11.6763
_cell_length_b       5.57429
_cell_length_c       5.4069
_cell_angle_alpha    102.832
_cell_angle_beta     99.7874
_cell_angle_gamma    117.643

_space_group_name_H-M_alt    "P 1"
_space_group_IT_number       1

loop_
  _space_group_symop_operation_xyz
  'x, y, z'

loop_
  _atom_site_type_symbol
  _atom_site_label
  _atom_site_symmetry_multiplicity
  _atom_site_fract_x
  _atom_site_fract_y
  _atom_site_fract_z
  _atom_site_occupancy
  Li  Li1       1.0  0.19100  0.83600  0.45700  1.0000
  Li  Li2       1.0  0.46100  0.93900  0.46600  1.0000
  Li  Li3       1.0  0.93000  0.89500  0.48900  1.0000
  Li  Li4       1.0  0.67900  0.64400  0.50400  1.0000
  Li  Li5       1.0  0.38300  0.39100  0.51200  1.0000
  Li  Li6       1.0  0.77000  0.28700  0.55400  1.0000
  Li  Li7       1.0  0.23000  0.45300  0.81500  1.0000
  Li  Li8       1.0  0.74400  0.50800  0.97300  1.0000
  O   O1        1.0  0.29400  0.96500  0.24400  1.0000
  O   O2        1.0  0.78100  0.89800  0.26400  1.0000
  O   O3        1.0  0.00349  0.67000  0.27400  1.0000
  O   O4        1.0  0.48700  0.61100  0.28000  1.0000
  O   O5        1.0  0.61000  0.22500  0.28300  1.0000
  O   O6        1.0  0.38700  0.74800  0.74100  1.0000
  O   O7        1.0  0.86100  0.72000  0.75200  1.0000
  O   O8        1.0  0.04150  0.34800  0.75400  1.0000
  O   O9        1.0  0.54300  0.41000  0.77000  1.0000
  O   O10       1.0  0.23400  0.11500  0.77300  1.0000
  O   O11       1.0  0.73700  0.12300  0.83400  1.0000
  Pu  Pu1       1.0  0.42000  0.17100  0.01090  1.0000
  Pu  Pu2       1.0  0.59200  0.84100  0.01490  1.0000
  Pu  Pu3       1.0  0.92700  0.18000  0.06610  1.0000
  Pu  Pu4       1.0  0.07280  0.77900  0.91600  1.0000
