data_image0
_chemical_formula_structural       Eu4Li8O11
_chemical_formula_sum              "Eu4 Li8 O11"
_cell_length_a       11.4124
_cell_length_b       5.65594
_cell_length_c       4.9085
_cell_angle_alpha    102.471
_cell_angle_beta     100.26
_cell_angle_gamma    119.872

_space_group_name_H-M_alt    "P 1"
_space_group_IT_number       1

loop_
  _space_group_symop_operation_xyz
  'x, y, z'

loop_
  _atom_site_type_symbol
  _atom_site_label
  _atom_site_symmetry_multiplicity
  _atom_site_fract_x
  _atom_site_fract_y
  _atom_site_fract_z
  _atom_site_occupancy
  Eu  Eu1       1.0  0.10600  0.86200  0.00414  1.0000
  Eu  Eu2       1.0  0.89700  0.18500  0.01210  1.0000
  Eu  Eu3       1.0  0.43300  0.19400  0.03450  1.0000
  Eu  Eu4       1.0  0.58200  0.83300  0.06710  1.0000
  Li  Li1       1.0  0.19900  0.71200  0.49800  1.0000
  Li  Li2       1.0  0.95800  0.93100  0.51900  1.0000
  Li  Li3       1.0  0.82700  0.38800  0.52000  1.0000
  Li  Li4       1.0  0.47900  0.96500  0.52200  1.0000
  Li  Li5       1.0  0.69700  0.65100  0.54500  1.0000
  Li  Li6       1.0  0.36000  0.38200  0.54700  1.0000
  Li  Li7       1.0  0.23500  0.45900  0.87800  1.0000
  Li  Li8       1.0  0.71700  0.44500  0.91300  1.0000
  O   O1        1.0  0.29600  0.81700  0.20400  1.0000
  O   O2        1.0  0.37800  0.51700  0.22500  1.0000
  O   O3        1.0  0.66300  0.32100  0.22700  1.0000
  O   O4        1.0  0.00530  0.65400  0.36000  1.0000
  O   O5        1.0  0.80900  0.99700  0.39200  1.0000
  O   O6        1.0  0.21100  0.08190  0.65900  1.0000
  O   O7        1.0  0.68000  0.04500  0.69500  1.0000
  O   O8        1.0  0.53700  0.40400  0.69700  1.0000
  O   O9        1.0  0.36600  0.73400  0.73100  1.0000
  O   O10       1.0  0.04370  0.38600  0.73100  1.0000
  O   O11       1.0  0.87800  0.74800  0.83100  1.0000
