data_image0
_chemical_formula_structural       O24P6SrZr4
_chemical_formula_sum              "O24 P6 Sr1 Zr4"
_cell_length_a       8.65094
_cell_length_b       8.65095
_cell_length_c       9.24621
_cell_angle_alpha    117.892
_cell_angle_beta     117.892
_cell_angle_gamma    60

_space_group_name_H-M_alt    "P 1"
_space_group_IT_number       1

loop_
  _space_group_symop_operation_xyz
  'x, y, z'

loop_
  _atom_site_type_symbol
  _atom_site_label
  _atom_site_symmetry_multiplicity
  _atom_site_fract_x
  _atom_site_fract_y
  _atom_site_fract_z
  _atom_site_occupancy
  O   O1        1.0  0.68900  0.50300  0.08790  1.0000
  O   O2        1.0  0.89500  0.68900  0.08790  1.0000
  O   O3        1.0  0.50300  0.89500  0.08790  1.0000
  O   O4        1.0  0.39400  0.24200  0.24100  1.0000
  O   O5        1.0  0.60600  0.39400  0.24100  1.0000
  O   O6        1.0  0.24200  0.60600  0.24100  1.0000
  O   O7        1.0  0.32100  0.02280  0.28700  1.0000
  O   O8        1.0  0.94300  0.32100  0.28700  1.0000
  O   O9        1.0  0.02280  0.94300  0.28700  1.0000
  O   O10       1.0  0.65100  0.02670  0.40800  1.0000
  O   O11       1.0  0.73100  0.65100  0.40800  1.0000
  O   O12       1.0  0.02670  0.73100  0.40800  1.0000
  O   O13       1.0  0.97300  0.26900  0.59200  1.0000
  O   O14       1.0  0.26900  0.34900  0.59200  1.0000
  O   O15       1.0  0.34900  0.97300  0.59200  1.0000
  O   O16       1.0  0.97700  0.05690  0.71300  1.0000
  O   O17       1.0  0.05690  0.67900  0.71300  1.0000
  O   O18       1.0  0.67900  0.97700  0.71300  1.0000
  O   O19       1.0  0.75800  0.39400  0.75900  1.0000
  O   O20       1.0  0.39400  0.60600  0.75900  1.0000
  O   O21       1.0  0.60600  0.75800  0.75900  1.0000
  O   O22       1.0  0.49700  0.10500  0.91200  1.0000
  O   O23       1.0  0.10500  0.31100  0.91200  1.0000
  O   O24       1.0  0.31100  0.49700  0.91200  1.0000
  P   P1        1.0  0.46900  0.04400  0.25700  1.0000
  P   P2        1.0  0.74500  0.46900  0.25700  1.0000
  P   P3        1.0  0.04400  0.74500  0.25700  1.0000
  P   P4        1.0  0.95600  0.25500  0.74300  1.0000
  P   P5        1.0  0.25500  0.53100  0.74300  1.0000
  P   P6        1.0  0.53100  0.95600  0.74300  1.0000
  Sr  Sr1       1.0  0.50000  0.50000  0.50000  1.0000
  Zr  Zr1       1.0  0.35200  0.35200  0.05450  1.0000
  Zr  Zr2       1.0  0.14400  0.14400  0.43100  1.0000
  Zr  Zr3       1.0  0.85600  0.85600  0.56900  1.0000
  Zr  Zr4       1.0  0.64800  0.64800  0.94500  1.0000
