data_image0
_chemical_formula_structural       Br16C8Fe3N8
_chemical_formula_sum              "Br16 C8 Fe3 N8"
_cell_length_a       12.4159
_cell_length_b       8.17962
_cell_length_c       9.59055
_cell_angle_alpha    89.1896
_cell_angle_beta     77.4668
_cell_angle_gamma    87.7365

_space_group_name_H-M_alt    "P 1"
_space_group_IT_number       1

loop_
  _space_group_symop_operation_xyz
  'x, y, z'

loop_
  _atom_site_type_symbol
  _atom_site_label
  _atom_site_symmetry_multiplicity
  _atom_site_fract_x
  _atom_site_fract_y
  _atom_site_fract_z
  _atom_site_occupancy
  Br  Br1       1.0  0.58000  0.75800  0.00647  1.0000
  Br  Br2       1.0  0.26600  0.63000  0.12200  1.0000
  Br  Br3       1.0  0.09790  0.02650  0.13100  1.0000
  Br  Br4       1.0  0.93800  0.36200  0.15200  1.0000
  Br  Br5       1.0  0.36800  0.01980  0.27300  1.0000
  Br  Br6       1.0  0.70600  0.98900  0.27800  1.0000
  Br  Br7       1.0  0.12300  0.31100  0.47200  1.0000
  Br  Br8       1.0  0.12000  0.80700  0.48500  1.0000
  Br  Br9       1.0  0.88000  0.19300  0.51500  1.0000
  Br  Br10      1.0  0.87700  0.68900  0.52800  1.0000
  Br  Br11      1.0  0.29400  0.01090  0.72200  1.0000
  Br  Br12      1.0  0.63200  0.98000  0.72700  1.0000
  Br  Br13      1.0  0.06240  0.63800  0.84800  1.0000
  Br  Br14      1.0  0.90200  0.97400  0.86900  1.0000
  Br  Br15      1.0  0.73400  0.37000  0.87800  1.0000
  Br  Br16      1.0  0.42000  0.24200  0.99400  1.0000
  C   C1        1.0  0.85700  0.55000  0.16600  1.0000
  C   C2        1.0  0.54700  0.65900  0.17700  1.0000
  C   C3        1.0  0.63200  0.16600  0.36000  1.0000
  C   C4        1.0  0.25800  0.38000  0.47100  1.0000
  C   C5        1.0  0.74200  0.62000  0.52900  1.0000
  C   C6        1.0  0.36800  0.83400  0.64000  1.0000
  C   C7        1.0  0.45300  0.34100  0.82300  1.0000
  C   C8        1.0  0.14300  0.45000  0.83400  1.0000
  Fe  Fe1       1.0  0.21300  0.87000  0.25000  1.0000
  Fe  Fe2       1.0  0.50000  0.50000  0.50000  1.0000
  Fe  Fe3       1.0  0.78700  0.13000  0.75000  1.0000
  N   N1        1.0  0.80600  0.67500  0.17700  1.0000
  N   N2        1.0  0.52800  0.60000  0.29100  1.0000
  N   N3        1.0  0.58100  0.28100  0.41300  1.0000
  N   N4        1.0  0.34600  0.42100  0.47500  1.0000
  N   N5        1.0  0.65400  0.57900  0.52500  1.0000
  N   N6        1.0  0.41900  0.71900  0.58700  1.0000
  N   N7        1.0  0.47200  0.40000  0.70900  1.0000
  N   N8        1.0  0.19400  0.32500  0.82300  1.0000
