data_image0
_chemical_formula_structural       C2F6FeH12O12S2
_chemical_formula_sum              "C2 F6 Fe1 H12 O12 S2"
_cell_length_a       6.4287
_cell_length_b       6.74988
_cell_length_c       9.3135
_cell_angle_alpha    111.246
_cell_angle_beta     105.002
_cell_angle_gamma    90

_space_group_name_H-M_alt    "P 1"
_space_group_IT_number       1

loop_
  _space_group_symop_operation_xyz
  'x, y, z'

loop_
  _atom_site_type_symbol
  _atom_site_label
  _atom_site_symmetry_multiplicity
  _atom_site_fract_x
  _atom_site_fract_y
  _atom_site_fract_z
  _atom_site_occupancy
  C   C1        1.0  0.71000  0.73100  0.46200  1.0000
  C   C2        1.0  0.29000  0.26900  0.53800  1.0000
  F   F1        1.0  0.18100  0.07320  0.47400  1.0000
  F   F2        1.0  0.18100  0.40000  0.47400  1.0000
  F   F3        1.0  0.51300  0.74500  0.48900  1.0000
  F   F4        1.0  0.48700  0.25500  0.51100  1.0000
  F   F5        1.0  0.81900  0.60000  0.52600  1.0000
  F   F6        1.0  0.81900  0.92700  0.52600  1.0000
  Fe  Fe1       1.0  0.00000  0.00000  0.00000  1.0000
  H   H1        1.0  0.67600  0.18500  0.13500  1.0000
  H   H2        1.0  0.67600  0.95000  0.13500  1.0000
  H   H3        1.0  0.30300  0.35300  0.16900  1.0000
  H   H4        1.0  0.30300  0.81600  0.16900  1.0000
  H   H5        1.0  0.06910  0.41600  0.19300  1.0000
  H   H6        1.0  0.06910  0.77700  0.19300  1.0000
  H   H7        1.0  0.93100  0.22300  0.80700  1.0000
  H   H8        1.0  0.93100  0.58400  0.80700  1.0000
  H   H9        1.0  0.69700  0.18400  0.83100  1.0000
  H   H10       1.0  0.69700  0.64700  0.83100  1.0000
  H   H11       1.0  0.32400  0.05030  0.86500  1.0000
  H   H12       1.0  0.32400  0.81500  0.86500  1.0000
  O   O1        1.0  0.74300  0.05090  0.10200  1.0000
  O   O2        1.0  0.15600  0.29800  0.15800  1.0000
  O   O3        1.0  0.15600  0.86100  0.15800  1.0000
  O   O4        1.0  0.56300  0.41300  0.18700  1.0000
  O   O5        1.0  0.56300  0.77400  0.18700  1.0000
  O   O6        1.0  0.90500  0.61700  0.23500  1.0000
  O   O7        1.0  0.09510  0.38300  0.76500  1.0000
  O   O8        1.0  0.43700  0.22600  0.81300  1.0000
  O   O9        1.0  0.43700  0.58700  0.81300  1.0000
  O   O10       1.0  0.84400  0.13900  0.84200  1.0000
  O   O11       1.0  0.84400  0.70200  0.84200  1.0000
  O   O12       1.0  0.25700  0.94900  0.89800  1.0000
  S   S1        1.0  0.68300  0.62300  0.24600  1.0000
  S   S2        1.0  0.31700  0.37700  0.75400  1.0000
