data_image0
_chemical_formula_structural       CaO24P6Sn4
_chemical_formula_sum              "Ca1 O24 P6 Sn4"
_cell_length_a       8.29635
_cell_length_b       8.29606
_cell_length_c       8.97665
_cell_angle_alpha    62.4781
_cell_angle_beta     117.523
_cell_angle_gamma    120.004

_space_group_name_H-M_alt    "P 1"
_space_group_IT_number       1

loop_
  _space_group_symop_operation_xyz
  'x, y, z'

loop_
  _atom_site_type_symbol
  _atom_site_label
  _atom_site_symmetry_multiplicity
  _atom_site_fract_x
  _atom_site_fract_y
  _atom_site_fract_z
  _atom_site_occupancy
  Ca  Ca1       1.0  0.00000  0.00000  0.00000  1.0000
  O   O1        1.0  0.46500  0.15900  0.09920  1.0000
  O   O2        1.0  0.79200  0.53500  0.09920  1.0000
  O   O3        1.0  0.84100  0.20800  0.09920  1.0000
  O   O4        1.0  0.49800  0.82700  0.20700  1.0000
  O   O5        1.0  0.53600  0.50200  0.20700  1.0000
  O   O6        1.0  0.17300  0.46400  0.20700  1.0000
  O   O7        1.0  0.24300  0.87000  0.25400  1.0000
  O   O8        1.0  0.88100  0.75700  0.25400  1.0000
  O   O9        1.0  0.13000  0.11900  0.25400  1.0000
  O   O10       1.0  0.81100  0.40100  0.42600  1.0000
  O   O11       1.0  0.01510  0.18900  0.42600  1.0000
  O   O12       1.0  0.59900  0.98500  0.42600  1.0000
  O   O13       1.0  0.40100  0.01510  0.57400  1.0000
  O   O14       1.0  0.98500  0.81100  0.57400  1.0000
  O   O15       1.0  0.18900  0.59900  0.57400  1.0000
  O   O16       1.0  0.87000  0.88100  0.74600  1.0000
  O   O17       1.0  0.11900  0.24300  0.74600  1.0000
  O   O18       1.0  0.75700  0.13000  0.74600  1.0000
  O   O19       1.0  0.82700  0.53600  0.79300  1.0000
  O   O20       1.0  0.46400  0.49800  0.79300  1.0000
  O   O21       1.0  0.50200  0.17300  0.79300  1.0000
  O   O22       1.0  0.15900  0.79200  0.90100  1.0000
  O   O23       1.0  0.20800  0.46500  0.90100  1.0000
  O   O24       1.0  0.53500  0.84100  0.90100  1.0000
  P   P1        1.0  0.03850  0.24900  0.24600  1.0000
  P   P2        1.0  0.45700  0.96200  0.24600  1.0000
  P   P3        1.0  0.75100  0.54300  0.24600  1.0000
  P   P4        1.0  0.24900  0.45700  0.75400  1.0000
  P   P5        1.0  0.54300  0.03850  0.75400  1.0000
  P   P6        1.0  0.96200  0.75100  0.75400  1.0000
  Sn  Sn1       1.0  0.35100  0.64900  0.05400  1.0000
  Sn  Sn2       1.0  0.14700  0.85300  0.44000  1.0000
  Sn  Sn3       1.0  0.85300  0.14700  0.56000  1.0000
  Sn  Sn4       1.0  0.64900  0.35100  0.94600  1.0000
