data_image0
_chemical_formula_structural       Ba14CaN6Na14
_chemical_formula_sum              "Ba14 Ca1 N6 Na14"
_cell_length_a       12.5475
_cell_length_b       12.5475
_cell_length_c       12.5475
_cell_angle_alpha    120
_cell_angle_beta     90
_cell_angle_gamma    120

_space_group_name_H-M_alt    "P 1"
_space_group_IT_number       1

loop_
  _space_group_symop_operation_xyz
  'x, y, z'

loop_
  _atom_site_type_symbol
  _atom_site_label
  _atom_site_symmetry_multiplicity
  _atom_site_fract_x
  _atom_site_fract_y
  _atom_site_fract_z
  _atom_site_occupancy
  Ba  Ba1       1.0  0.32300  0.21600  0.10800  1.0000
  Ba  Ba2       1.0  0.89200  0.21600  0.10800  1.0000
  Ba  Ba3       1.0  0.89200  0.78400  0.10800  1.0000
  Ba  Ba4       1.0  0.71300  0.00000  0.28700  1.0000
  Ba  Ba5       1.0  0.28700  0.00000  0.28700  1.0000
  Ba  Ba6       1.0  0.28700  0.57300  0.28700  1.0000
  Ba  Ba7       1.0  0.10800  0.21600  0.32300  1.0000
  Ba  Ba8       1.0  0.89200  0.78400  0.67700  1.0000
  Ba  Ba9       1.0  0.28700  0.00000  0.71300  1.0000
  Ba  Ba10      1.0  0.71300  0.00000  0.71300  1.0000
  Ba  Ba11      1.0  0.71300  0.42700  0.71300  1.0000
  Ba  Ba12      1.0  0.10800  0.21600  0.89200  1.0000
  Ba  Ba13      1.0  0.10800  0.78400  0.89200  1.0000
  Ba  Ba14      1.0  0.67700  0.78400  0.89200  1.0000
  Ca  Ca1       1.0  0.00000  0.00000  0.00000  1.0000
  N   N1        1.0  0.14400  0.00000  0.14400  1.0000
  N   N2        1.0  0.14400  0.28900  0.14400  1.0000
  N   N3        1.0  0.85600  0.00000  0.14400  1.0000
  N   N4        1.0  0.14400  0.00000  0.85600  1.0000
  N   N5        1.0  0.85600  0.00000  0.85600  1.0000
  N   N6        1.0  0.85600  0.71100  0.85600  1.0000
  Na  Na1       1.0  0.50000  0.00000  0.00000  1.0000
  Na  Na2       1.0  0.00000  0.50000  0.00000  1.0000
  Na  Na3       1.0  0.50000  0.50000  0.00000  1.0000
  Na  Na4       1.0  0.67100  0.34200  0.01280  1.0000
  Na  Na5       1.0  0.67100  0.34200  0.32900  1.0000
  Na  Na6       1.0  0.67100  0.65800  0.32900  1.0000
  Na  Na7       1.0  0.98700  0.65800  0.32900  1.0000
  Na  Na8       1.0  0.00000  0.00000  0.50000  1.0000
  Na  Na9       1.0  0.00000  0.50000  0.50000  1.0000
  Na  Na10      1.0  0.50000  0.50000  0.50000  1.0000
  Na  Na11      1.0  0.01280  0.34200  0.67100  1.0000
  Na  Na12      1.0  0.32900  0.34200  0.67100  1.0000
  Na  Na13      1.0  0.32900  0.65800  0.67100  1.0000
  Na  Na14      1.0  0.32900  0.65800  0.98700  1.0000
