data_image0
_chemical_formula_structural       CaO24P6Ti4
_chemical_formula_sum              "Ca1 O24 P6 Ti4"
_cell_length_a       8.30126
_cell_length_b       8.30126
_cell_length_c       8.76105
_cell_angle_alpha    61.7214
_cell_angle_beta     118.279
_cell_angle_gamma    120

_space_group_name_H-M_alt    "P 1"
_space_group_IT_number       1

loop_
  _space_group_symop_operation_xyz
  'x, y, z'

loop_
  _atom_site_type_symbol
  _atom_site_label
  _atom_site_symmetry_multiplicity
  _atom_site_fract_x
  _atom_site_fract_y
  _atom_site_fract_z
  _atom_site_occupancy
  Ca  Ca1       1.0  0.00000  0.00000  0.00000  1.0000
  O   O1        1.0  0.47600  0.16300  0.08590  1.0000
  O   O2        1.0  0.83700  0.22700  0.08590  1.0000
  O   O3        1.0  0.77300  0.52400  0.08590  1.0000
  O   O4        1.0  0.18200  0.45600  0.21400  1.0000
  O   O5        1.0  0.54400  0.51200  0.21400  1.0000
  O   O6        1.0  0.48800  0.81800  0.21400  1.0000
  O   O7        1.0  0.11200  0.10800  0.25600  1.0000
  O   O8        1.0  0.89200  0.74800  0.25600  1.0000
  O   O9        1.0  0.25200  0.88800  0.25600  1.0000
  O   O10       1.0  0.61400  0.00158  0.42500  1.0000
  O   O11       1.0  0.99800  0.18800  0.42500  1.0000
  O   O12       1.0  0.81200  0.38600  0.42500  1.0000
  O   O13       1.0  0.18800  0.61400  0.57500  1.0000
  O   O14       1.0  0.00158  0.81200  0.57500  1.0000
  O   O15       1.0  0.38600  0.99800  0.57500  1.0000
  O   O16       1.0  0.74800  0.11200  0.74400  1.0000
  O   O17       1.0  0.10800  0.25200  0.74400  1.0000
  O   O18       1.0  0.88800  0.89200  0.74400  1.0000
  O   O19       1.0  0.51200  0.18200  0.78600  1.0000
  O   O20       1.0  0.45600  0.48800  0.78600  1.0000
  O   O21       1.0  0.81800  0.54400  0.78600  1.0000
  O   O22       1.0  0.22700  0.47600  0.91400  1.0000
  O   O23       1.0  0.16300  0.77300  0.91400  1.0000
  O   O24       1.0  0.52400  0.83700  0.91400  1.0000
  P   P1        1.0  0.03060  0.24800  0.24300  1.0000
  P   P2        1.0  0.75200  0.54000  0.24300  1.0000
  P   P3        1.0  0.46000  0.96900  0.24300  1.0000
  P   P4        1.0  0.54000  0.03060  0.75700  1.0000
  P   P5        1.0  0.24800  0.46000  0.75700  1.0000
  P   P6        1.0  0.96900  0.75200  0.75700  1.0000
  Ti  Ti1       1.0  0.35800  0.64200  0.07340  1.0000
  Ti  Ti2       1.0  0.14600  0.85400  0.43900  1.0000
  Ti  Ti3       1.0  0.85400  0.14600  0.56100  1.0000
  Ti  Ti4       1.0  0.64200  0.35800  0.92700  1.0000
