data_image0
_chemical_formula_structural       Li8O11Tl4
_chemical_formula_sum              "Li8 O11 Tl4"
_cell_length_a       10.9291
_cell_length_b       5.46502
_cell_length_c       5.28748
_cell_angle_alpha    100.197
_cell_angle_beta     100.33
_cell_angle_gamma    119.132

_space_group_name_H-M_alt    "P 1"
_space_group_IT_number       1

loop_
  _space_group_symop_operation_xyz
  'x, y, z'

loop_
  _atom_site_type_symbol
  _atom_site_label
  _atom_site_symmetry_multiplicity
  _atom_site_fract_x
  _atom_site_fract_y
  _atom_site_fract_z
  _atom_site_occupancy
  Li  Li1       1.0  0.50000  0.99900  0.49500  1.0000
  Li  Li2       1.0  0.37200  0.39700  0.49600  1.0000
  Li  Li3       1.0  0.19100  0.75100  0.50200  1.0000
  Li  Li4       1.0  0.81800  0.31100  0.50700  1.0000
  Li  Li5       1.0  0.67400  0.65800  0.50700  1.0000
  Li  Li6       1.0  0.97200  0.93800  0.52400  1.0000
  Li  Li7       1.0  0.25100  0.47600  0.90700  1.0000
  Li  Li8       1.0  0.74000  0.48600  0.98600  1.0000
  O   O1        1.0  0.44200  0.59500  0.22400  1.0000
  O   O2        1.0  0.62900  0.26100  0.25900  1.0000
  O   O3        1.0  0.80200  0.92100  0.27600  1.0000
  O   O4        1.0  0.29500  0.98700  0.28000  1.0000
  O   O5        1.0  0.98000  0.59400  0.28900  1.0000
  O   O6        1.0  0.36000  0.73700  0.70600  1.0000
  O   O7        1.0  0.54600  0.42800  0.73900  1.0000
  O   O8        1.0  0.19500  0.07170  0.74500  1.0000
  O   O9        1.0  0.70100  0.07480  0.74600  1.0000
  O   O10       1.0  0.86800  0.71600  0.76100  1.0000
  O   O11       1.0  0.04640  0.37300  0.78600  1.0000
  Tl  Tl1       1.0  0.58200  0.83700  0.00026  1.0000
  Tl  Tl2       1.0  0.91200  0.15300  0.01890  1.0000
  Tl  Tl3       1.0  0.41500  0.16800  0.98900  1.0000
  Tl  Tl4       1.0  0.08040  0.80700  0.99300  1.0000
