data_image0
_chemical_formula_structural       Be4Li8O11
_chemical_formula_sum              "Be4 Li8 O11"
_cell_length_a       9.3675
_cell_length_b       4.7926
_cell_length_c       5.09621
_cell_angle_alpha    110.471
_cell_angle_beta     96.9246
_cell_angle_gamma    115.332

_space_group_name_H-M_alt    "P 1"
_space_group_IT_number       1

loop_
  _space_group_symop_operation_xyz
  'x, y, z'

loop_
  _atom_site_type_symbol
  _atom_site_label
  _atom_site_symmetry_multiplicity
  _atom_site_fract_x
  _atom_site_fract_y
  _atom_site_fract_z
  _atom_site_occupancy
  Be  Be1       1.0  0.62000  0.86100  0.05100  1.0000
  Be  Be2       1.0  0.92200  0.07390  0.06820  1.0000
  Be  Be3       1.0  0.37800  0.09710  0.89400  1.0000
  Be  Be4       1.0  0.07370  0.88800  0.90700  1.0000
  Li  Li1       1.0  0.29000  0.51400  0.01180  1.0000
  Li  Li2       1.0  0.73100  0.47200  0.04510  1.0000
  Li  Li3       1.0  0.14500  0.63600  0.36300  1.0000
  Li  Li4       1.0  0.68800  0.69600  0.48300  1.0000
  Li  Li5       1.0  0.31200  0.30700  0.49800  1.0000
  Li  Li6       1.0  0.00693  0.02900  0.51700  1.0000
  Li  Li7       1.0  0.52500  0.18000  0.59100  1.0000
  Li  Li8       1.0  0.83900  0.33100  0.61500  1.0000
  O   O1        1.0  0.93400  0.42400  0.05780  1.0000
  O   O2        1.0  0.40200  0.05470  0.20100  1.0000
  O   O3        1.0  0.11400  0.18300  0.23100  1.0000
  O   O4        1.0  0.79900  0.96900  0.25300  1.0000
  O   O5        1.0  0.58800  0.17200  0.27200  1.0000
  O   O6        1.0  0.41700  0.80200  0.65800  1.0000
  O   O7        1.0  0.19700  0.00455  0.72700  1.0000
  O   O8        1.0  0.88200  0.78500  0.74400  1.0000
  O   O9        1.0  0.60500  0.94300  0.75100  1.0000
  O   O10       1.0  0.06330  0.53400  0.90900  1.0000
  O   O11       1.0  0.50200  0.46600  0.93300  1.0000
