data_image0
_chemical_formula_structural       Al4Li8O11
_chemical_formula_sum              "Al4 Li8 O11"
_cell_length_a       9.8668
_cell_length_b       4.91642
_cell_length_c       4.94903
_cell_angle_alpha    100.911
_cell_angle_beta     99.9094
_cell_angle_gamma    119.362

_space_group_name_H-M_alt    "P 1"
_space_group_IT_number       1

loop_
  _space_group_symop_operation_xyz
  'x, y, z'

loop_
  _atom_site_type_symbol
  _atom_site_label
  _atom_site_symmetry_multiplicity
  _atom_site_fract_x
  _atom_site_fract_y
  _atom_site_fract_z
  _atom_site_occupancy
  Al  Al1       1.0  0.08360  0.83700  0.00156  1.0000
  Al  Al2       1.0  0.59600  0.86400  0.96600  1.0000
  Al  Al3       1.0  0.40400  0.10500  0.98800  1.0000
  Al  Al4       1.0  0.91900  0.16900  0.99400  1.0000
  Li  Li1       1.0  0.70600  0.68800  0.47800  1.0000
  Li  Li2       1.0  0.16900  0.65500  0.49100  1.0000
  Li  Li3       1.0  0.00258  0.00186  0.49800  1.0000
  Li  Li4       1.0  0.82800  0.33600  0.50400  1.0000
  Li  Li5       1.0  0.50400  0.06010  0.52700  1.0000
  Li  Li6       1.0  0.30500  0.30700  0.53100  1.0000
  Li  Li7       1.0  0.23600  0.48600  0.98400  1.0000
  Li  Li8       1.0  0.75400  0.50300  0.99600  1.0000
  O   O1        1.0  0.78800  0.93300  0.21100  1.0000
  O   O2        1.0  0.96500  0.57900  0.22100  1.0000
  O   O3        1.0  0.11400  0.23000  0.23000  1.0000
  O   O4        1.0  0.60400  0.20100  0.23200  1.0000
  O   O5        1.0  0.29600  0.95100  0.24200  1.0000
  O   O6        1.0  0.71000  0.06070  0.74300  1.0000
  O   O7        1.0  0.38900  0.75700  0.75600  1.0000
  O   O8        1.0  0.89000  0.77500  0.76700  1.0000
  O   O9        1.0  0.03550  0.42300  0.77500  1.0000
  O   O10       1.0  0.21400  0.07020  0.78900  1.0000
  O   O11       1.0  0.52500  0.43200  0.84700  1.0000
