data_image0
_chemical_formula_structural       Ca4K2O21Si8
_chemical_formula_sum              "Ca4 K2 O21 Si8"
_cell_length_a       6.74998
_cell_length_b       7.01107
_cell_length_c       11.154
_cell_angle_alpha    96.6398
_cell_angle_beta     105.303
_cell_angle_gamma    109.483

_space_group_name_H-M_alt    "P 1"
_space_group_IT_number       1

loop_
  _space_group_symop_operation_xyz
  'x, y, z'

loop_
  _atom_site_type_symbol
  _atom_site_label
  _atom_site_symmetry_multiplicity
  _atom_site_fract_x
  _atom_site_fract_y
  _atom_site_fract_z
  _atom_site_occupancy
  Ca  Ca1       1.0  0.37300  0.73000  0.04230  1.0000
  Ca  Ca2       1.0  0.34900  0.21900  0.18700  1.0000
  Ca  Ca3       1.0  0.65100  0.78100  0.81300  1.0000
  Ca  Ca4       1.0  0.62700  0.27000  0.95800  1.0000
  K   K1        1.0  0.74200  0.71600  0.43600  1.0000
  K   K2        1.0  0.25800  0.28400  0.56400  1.0000
  O   O1        1.0  0.32900  0.32000  0.00385  1.0000
  O   O2        1.0  0.12900  0.88000  0.08470  1.0000
  O   O3        1.0  0.91700  0.53200  0.14700  1.0000
  O   O4        1.0  0.61400  0.08880  0.14700  1.0000
  O   O5        1.0  0.36100  0.59900  0.22500  1.0000
  O   O6        1.0  0.87700  0.88000  0.23700  1.0000
  O   O7        1.0  0.06110  0.27800  0.26000  1.0000
  O   O8        1.0  0.13900  0.65200  0.39200  1.0000
  O   O9        1.0  0.54100  0.32400  0.39400  1.0000
  O   O10       1.0  0.81900  0.11900  0.40100  1.0000
  O   O11       1.0  0.50000  0.00000  0.50000  1.0000
  O   O12       1.0  0.18100  0.88100  0.59900  1.0000
  O   O13       1.0  0.45900  0.67600  0.60600  1.0000
  O   O14       1.0  0.86100  0.34800  0.60800  1.0000
  O   O15       1.0  0.93900  0.72200  0.74000  1.0000
  O   O16       1.0  0.12300  0.12000  0.76300  1.0000
  O   O17       1.0  0.63900  0.40100  0.77500  1.0000
  O   O18       1.0  0.38600  0.91100  0.85300  1.0000
  O   O19       1.0  0.08320  0.46800  0.85300  1.0000
  O   O20       1.0  0.87100  0.12000  0.91500  1.0000
  O   O21       1.0  0.67100  0.68000  0.99600  1.0000
  Si  Si1       1.0  0.90200  0.75400  0.10900  1.0000
  Si  Si2       1.0  0.82800  0.09280  0.25400  1.0000
  Si  Si3       1.0  0.13500  0.52800  0.25700  1.0000
  Si  Si4       1.0  0.67000  0.20400  0.47300  1.0000
  Si  Si5       1.0  0.33000  0.79600  0.52700  1.0000
  Si  Si6       1.0  0.86500  0.47200  0.74300  1.0000
  Si  Si7       1.0  0.17200  0.90700  0.74600  1.0000
  Si  Si8       1.0  0.09790  0.24600  0.89100  1.0000
