data_image0
_chemical_formula_structural       C12Ce2N18
_chemical_formula_sum              "C12 Ce2 N18"
_cell_length_a       7.54755
_cell_length_b       7.54755
_cell_length_c       8.12533
_cell_angle_alpha    90
_cell_angle_beta     90
_cell_angle_gamma    94.7153

_space_group_name_H-M_alt    "P 1"
_space_group_IT_number       1

loop_
  _space_group_symop_operation_xyz
  'x, y, z'

loop_
  _atom_site_type_symbol
  _atom_site_label
  _atom_site_symmetry_multiplicity
  _atom_site_fract_x
  _atom_site_fract_y
  _atom_site_fract_z
  _atom_site_occupancy
  C   C1        1.0  0.54300  0.26100  0.12800  1.0000
  C   C2        1.0  0.73900  0.45700  0.12800  1.0000
  C   C3        1.0  0.49000  0.12000  0.25000  1.0000
  C   C4        1.0  0.88000  0.51000  0.25000  1.0000
  C   C5        1.0  0.54300  0.26100  0.37200  1.0000
  C   C6        1.0  0.73900  0.45700  0.37200  1.0000
  C   C7        1.0  0.26100  0.54300  0.62800  1.0000
  C   C8        1.0  0.45700  0.73900  0.62800  1.0000
  C   C9        1.0  0.12000  0.49000  0.75000  1.0000
  C   C10       1.0  0.51000  0.88000  0.75000  1.0000
  C   C11       1.0  0.26100  0.54300  0.87200  1.0000
  C   C12       1.0  0.45700  0.73900  0.87200  1.0000
  Ce  Ce1       1.0  0.33600  0.66400  0.25000  1.0000
  Ce  Ce2       1.0  0.66400  0.33600  0.75000  1.0000
  N   N1        1.0  0.70300  0.29700  0.05110  1.0000
  N   N2        1.0  0.10500  0.18800  0.18100  1.0000
  N   N3        1.0  0.81200  0.89500  0.18100  1.0000
  N   N4        1.0  0.56800  0.43200  0.25000  1.0000
  N   N5        1.0  0.04090  0.56000  0.25000  1.0000
  N   N6        1.0  0.44000  0.95900  0.25000  1.0000
  N   N7        1.0  0.10500  0.18800  0.31900  1.0000
  N   N8        1.0  0.81200  0.89500  0.31900  1.0000
  N   N9        1.0  0.70300  0.29700  0.44900  1.0000
  N   N10       1.0  0.29700  0.70300  0.55100  1.0000
  N   N11       1.0  0.18800  0.10500  0.68100  1.0000
  N   N12       1.0  0.89500  0.81200  0.68100  1.0000
  N   N13       1.0  0.56000  0.04090  0.75000  1.0000
  N   N14       1.0  0.95900  0.44000  0.75000  1.0000
  N   N15       1.0  0.43200  0.56800  0.75000  1.0000
  N   N16       1.0  0.18800  0.10500  0.81900  1.0000
  N   N17       1.0  0.89500  0.81200  0.81900  1.0000
  N   N18       1.0  0.29700  0.70300  0.94900  1.0000
