data_image0
_chemical_formula_structural       O24P6PbTi4
_chemical_formula_sum              "O24 P6 Pb1 Ti4"
_cell_length_a       8.20812
_cell_length_b       8.20812
_cell_length_c       8.93687
_cell_angle_alpha    62.6627
_cell_angle_beta     117.337
_cell_angle_gamma    120

_space_group_name_H-M_alt    "P 1"
_space_group_IT_number       1

loop_
  _space_group_symop_operation_xyz
  'x, y, z'

loop_
  _atom_site_type_symbol
  _atom_site_label
  _atom_site_symmetry_multiplicity
  _atom_site_fract_x
  _atom_site_fract_y
  _atom_site_fract_z
  _atom_site_occupancy
  O   O1        1.0  0.47500  0.16300  0.09600  1.0000
  O   O2        1.0  0.83700  0.21500  0.09600  1.0000
  O   O3        1.0  0.78500  0.52500  0.09600  1.0000
  O   O4        1.0  0.17700  0.46500  0.20000  1.0000
  O   O5        1.0  0.53500  0.51200  0.20000  1.0000
  O   O6        1.0  0.48800  0.82300  0.20000  1.0000
  O   O7        1.0  0.12400  0.11100  0.27000  1.0000
  O   O8        1.0  0.88900  0.74300  0.27000  1.0000
  O   O9        1.0  0.25700  0.87600  0.27000  1.0000
  O   O10       1.0  0.00469  0.20300  0.42100  1.0000
  O   O11       1.0  0.79700  0.38100  0.42100  1.0000
  O   O12       1.0  0.61900  0.99500  0.42100  1.0000
  O   O13       1.0  0.38100  0.00469  0.57900  1.0000
  O   O14       1.0  0.20300  0.61900  0.57900  1.0000
  O   O15       1.0  0.99500  0.79700  0.57900  1.0000
  O   O16       1.0  0.74300  0.12400  0.73000  1.0000
  O   O17       1.0  0.11100  0.25700  0.73000  1.0000
  O   O18       1.0  0.87600  0.88900  0.73000  1.0000
  O   O19       1.0  0.51200  0.17700  0.80000  1.0000
  O   O20       1.0  0.46500  0.48800  0.80000  1.0000
  O   O21       1.0  0.82300  0.53500  0.80000  1.0000
  O   O22       1.0  0.21500  0.47500  0.90400  1.0000
  O   O23       1.0  0.16300  0.78500  0.90400  1.0000
  O   O24       1.0  0.52500  0.83700  0.90400  1.0000
  P   P1        1.0  0.03340  0.25100  0.24500  1.0000
  P   P2        1.0  0.74900  0.53700  0.24500  1.0000
  P   P3        1.0  0.46300  0.96700  0.24500  1.0000
  P   P4        1.0  0.53700  0.03340  0.75500  1.0000
  P   P5        1.0  0.25100  0.46300  0.75500  1.0000
  P   P6        1.0  0.96700  0.74900  0.75500  1.0000
  Pb  Pb1       1.0  0.00000  0.00000  0.00000  1.0000
  Ti  Ti1       1.0  0.35300  0.64700  0.06020  1.0000
  Ti  Ti2       1.0  0.14800  0.85200  0.44400  1.0000
  Ti  Ti3       1.0  0.85200  0.14800  0.55600  1.0000
  Ti  Ti4       1.0  0.64700  0.35300  0.94000  1.0000
