data_image0
_chemical_formula_structural       Li8O11Sm4
_chemical_formula_sum              "Li8 O11 Sm4"
_cell_length_a       11.7178
_cell_length_b       5.63428
_cell_length_c       5.23783
_cell_angle_alpha    102.363
_cell_angle_beta     101.399
_cell_angle_gamma    118.279

_space_group_name_H-M_alt    "P 1"
_space_group_IT_number       1

loop_
  _space_group_symop_operation_xyz
  'x, y, z'

loop_
  _atom_site_type_symbol
  _atom_site_label
  _atom_site_symmetry_multiplicity
  _atom_site_fract_x
  _atom_site_fract_y
  _atom_site_fract_z
  _atom_site_occupancy
  Li  Li1       1.0  0.45700  0.96200  0.44000  1.0000
  Li  Li2       1.0  0.22300  0.78800  0.45300  1.0000
  Li  Li3       1.0  0.34900  0.36500  0.47300  1.0000
  Li  Li4       1.0  0.69700  0.64400  0.52400  1.0000
  Li  Li5       1.0  0.93600  0.93100  0.54100  1.0000
  Li  Li6       1.0  0.76600  0.27300  0.55900  1.0000
  Li  Li7       1.0  0.25300  0.48000  0.88400  1.0000
  Li  Li8       1.0  0.74400  0.51800  0.99000  1.0000
  O   O1        1.0  0.43200  0.59500  0.20500  1.0000
  O   O2        1.0  0.28500  0.96000  0.20800  1.0000
  O   O3        1.0  0.77500  0.88300  0.28000  1.0000
  O   O4        1.0  0.61500  0.23700  0.28900  1.0000
  O   O5        1.0  0.02480  0.66200  0.37400  1.0000
  O   O6        1.0  0.36700  0.74900  0.68900  1.0000
  O   O7        1.0  0.22300  0.09750  0.70400  1.0000
  O   O8        1.0  0.54300  0.41400  0.71400  1.0000
  O   O9        1.0  0.04890  0.33000  0.80300  1.0000
  O   O10       1.0  0.87400  0.74000  0.80400  1.0000
  O   O11       1.0  0.74900  0.15600  0.85900  1.0000
  Sm  Sm1       1.0  0.42600  0.19200  0.00175  1.0000
  Sm  Sm2       1.0  0.92800  0.18000  0.10300  1.0000
  Sm  Sm3       1.0  0.07720  0.75600  0.86900  1.0000
  Sm  Sm4       1.0  0.58400  0.84000  0.98300  1.0000
