data_image0
_chemical_formula_structural       Li8O11Sn4
_chemical_formula_sum              "Li8 O11 Sn4"
_cell_length_a       10.6429
_cell_length_b       5.26528
_cell_length_c       5.20993
_cell_angle_alpha    99.4027
_cell_angle_beta     99.7508
_cell_angle_gamma    120.301

_space_group_name_H-M_alt    "P 1"
_space_group_IT_number       1

loop_
  _space_group_symop_operation_xyz
  'x, y, z'

loop_
  _atom_site_type_symbol
  _atom_site_label
  _atom_site_symmetry_multiplicity
  _atom_site_fract_x
  _atom_site_fract_y
  _atom_site_fract_z
  _atom_site_occupancy
  Li  Li1       1.0  0.75300  0.49400  0.00235  1.0000
  Li  Li2       1.0  0.99500  0.99200  0.49500  1.0000
  Li  Li3       1.0  0.17800  0.66700  0.49700  1.0000
  Li  Li4       1.0  0.82900  0.33200  0.49900  1.0000
  Li  Li5       1.0  0.68800  0.65400  0.51400  1.0000
  Li  Li6       1.0  0.31300  0.31000  0.51400  1.0000
  Li  Li7       1.0  0.50900  0.04470  0.52500  1.0000
  Li  Li8       1.0  0.23500  0.49700  0.96400  1.0000
  O   O1        1.0  0.28900  0.92400  0.23500  1.0000
  O   O2        1.0  0.96500  0.58200  0.23900  1.0000
  O   O3        1.0  0.11800  0.23600  0.23900  1.0000
  O   O4        1.0  0.79100  0.91700  0.24100  1.0000
  O   O5        1.0  0.62000  0.22500  0.24600  1.0000
  O   O6        1.0  0.53600  0.42000  0.72100  1.0000
  O   O7        1.0  0.03280  0.41700  0.75900  1.0000
  O   O8        1.0  0.88600  0.76800  0.76100  1.0000
  O   O9        1.0  0.21000  0.08210  0.76200  1.0000
  O   O10       1.0  0.38300  0.78300  0.76500  1.0000
  O   O11       1.0  0.70700  0.06580  0.76700  1.0000
  Sn  Sn1       1.0  0.57600  0.81100  0.00195  1.0000
  Sn  Sn2       1.0  0.91400  0.16400  0.00322  1.0000
  Sn  Sn3       1.0  0.42600  0.20000  0.01580  1.0000
  Sn  Sn4       1.0  0.08500  0.83600  0.99700  1.0000
