data_image0
_chemical_formula_structural       O21Si6Sr7Zr
_chemical_formula_sum              "O21 Si6 Sr7 Zr1"
_cell_length_a       8.3867
_cell_length_b       8.40743
_cell_length_c       8.4149
_cell_angle_alpha    106.173
_cell_angle_beta     106.317
_cell_angle_gamma    106.098

_space_group_name_H-M_alt    "P 1"
_space_group_IT_number       1

loop_
  _space_group_symop_operation_xyz
  'x, y, z'

loop_
  _atom_site_type_symbol
  _atom_site_label
  _atom_site_symmetry_multiplicity
  _atom_site_fract_x
  _atom_site_fract_y
  _atom_site_fract_z
  _atom_site_occupancy
  O   O1        1.0  0.50000  0.00000  0.00000  1.0000
  O   O2        1.0  0.00000  0.50000  0.00000  1.0000
  O   O3        1.0  0.45400  0.67800  0.01120  1.0000
  O   O4        1.0  0.75800  0.87200  0.01780  1.0000
  O   O5        1.0  0.97900  0.24100  0.12500  1.0000
  O   O6        1.0  0.12700  0.98100  0.24200  1.0000
  O   O7        1.0  0.29000  0.54100  0.25200  1.0000
  O   O8        1.0  0.54700  0.25700  0.29000  1.0000
  O   O9        1.0  0.99200  0.54700  0.32300  1.0000
  O   O10       1.0  0.67600  0.00946  0.45300  1.0000
  O   O11       1.0  0.74700  0.71000  0.45700  1.0000
  O   O12       1.0  0.00000  0.00000  0.50000  1.0000
  O   O13       1.0  0.25300  0.29000  0.54300  1.0000
  O   O14       1.0  0.32400  0.99100  0.54700  1.0000
  O   O15       1.0  0.00829  0.45300  0.67700  1.0000
  O   O16       1.0  0.45300  0.74300  0.71000  1.0000
  O   O17       1.0  0.71000  0.45900  0.74800  1.0000
  O   O18       1.0  0.87300  0.01910  0.75800  1.0000
  O   O19       1.0  0.02120  0.75900  0.87500  1.0000
  O   O20       1.0  0.24200  0.12800  0.98200  1.0000
  O   O21       1.0  0.54600  0.32200  0.98900  1.0000
  Si  Si1       1.0  0.46100  0.18600  0.07460  1.0000
  Si  Si2       1.0  0.07470  0.45900  0.18500  1.0000
  Si  Si3       1.0  0.18600  0.07470  0.46000  1.0000
  Si  Si4       1.0  0.81400  0.92500  0.54000  1.0000
  Si  Si5       1.0  0.92500  0.54100  0.81500  1.0000
  Si  Si6       1.0  0.53900  0.81400  0.92500  1.0000
  Sr  Sr1       1.0  0.75400  0.63100  0.15100  1.0000
  Sr  Sr2       1.0  0.36700  0.84700  0.24600  1.0000
  Sr  Sr3       1.0  0.85100  0.24500  0.36900  1.0000
  Sr  Sr4       1.0  0.50000  0.50000  0.50000  1.0000
  Sr  Sr5       1.0  0.14900  0.75500  0.63100  1.0000
  Sr  Sr6       1.0  0.63300  0.15300  0.75400  1.0000
  Sr  Sr7       1.0  0.24600  0.36900  0.84900  1.0000
  Zr  Zr1       1.0  0.00000  0.00000  0.00000  1.0000
