data_image0
_chemical_formula_structural       C5Ti8
_chemical_formula_sum              "C5 Ti8"
_cell_length_a       6.08549
_cell_length_b       6.08549
_cell_length_c       6.08549
_cell_angle_alpha    119.476
_cell_angle_beta     60.524
_cell_angle_gamma    119.476

_space_group_name_H-M_alt    "P 1"
_space_group_IT_number       1

loop_
  _space_group_symop_operation_xyz
  'x, y, z'

loop_
  _atom_site_type_symbol
  _atom_site_label
  _atom_site_symmetry_multiplicity
  _atom_site_fract_x
  _atom_site_fract_y
  _atom_site_fract_z
  _atom_site_occupancy
  C   C1        1.0  0.50000  1.00000  0.00000  1.0000
  C   C2        1.0  0.00000  0.00000  0.00000  1.0000
  C   C3        1.0  0.00000  0.50000  0.00000  1.0000
  C   C4        1.0  0.50000  0.50000  0.50000  1.0000
  C   C5        1.0  0.00000  0.00000  0.50000  1.0000
  Ti  Ti1       1.0  0.75000  0.25000  0.23700  1.0000
  Ti  Ti2       1.0  0.24500  0.75500  0.24500  1.0000
  Ti  Ti3       1.0  0.76300  0.75000  0.25000  1.0000
  Ti  Ti4       1.0  0.25000  0.23700  0.25000  1.0000
  Ti  Ti5       1.0  0.75000  0.76300  0.75000  1.0000
  Ti  Ti6       1.0  0.23700  0.25000  0.75000  1.0000
  Ti  Ti7       1.0  0.75500  0.24500  0.75500  1.0000
  Ti  Ti8       1.0  0.25000  0.75000  0.76300  1.0000
