data_image0
_chemical_formula_structural       Li8O11Tm4
_chemical_formula_sum              "Li8 O11 Tm4"
_cell_length_a       11.2272
_cell_length_b       5.57892
_cell_length_c       5.07936
_cell_angle_alpha    99.0014
_cell_angle_beta     99.9976
_cell_angle_gamma    121.344

_space_group_name_H-M_alt    "P 1"
_space_group_IT_number       1

loop_
  _space_group_symop_operation_xyz
  'x, y, z'

loop_
  _atom_site_type_symbol
  _atom_site_label
  _atom_site_symmetry_multiplicity
  _atom_site_fract_x
  _atom_site_fract_y
  _atom_site_fract_z
  _atom_site_occupancy
  Li  Li1       1.0  0.75500  0.50400  0.01410  1.0000
  Li  Li2       1.0  0.18000  0.62900  0.48500  1.0000
  Li  Li3       1.0  0.99300  0.98700  0.49700  1.0000
  Li  Li4       1.0  0.70100  0.64000  0.49700  1.0000
  Li  Li5       1.0  0.82200  0.35000  0.50700  1.0000
  Li  Li6       1.0  0.52000  0.08430  0.51200  1.0000
  Li  Li7       1.0  0.30000  0.33000  0.53200  1.0000
  Li  Li8       1.0  0.22600  0.48200  0.96300  1.0000
  O   O1        1.0  0.61900  0.23700  0.23700  1.0000
  O   O2        1.0  0.78100  0.89100  0.24000  1.0000
  O   O3        1.0  0.12200  0.24400  0.25500  1.0000
  O   O4        1.0  0.29500  0.92000  0.26000  1.0000
  O   O5        1.0  0.95900  0.57900  0.26200  1.0000
  O   O6        1.0  0.53400  0.42100  0.73400  1.0000
  O   O7        1.0  0.71000  0.08750  0.73800  1.0000
  O   O8        1.0  0.04290  0.42700  0.74900  1.0000
  O   O9        1.0  0.37500  0.74000  0.75100  1.0000
  O   O10       1.0  0.88100  0.75800  0.76100  1.0000
  O   O11       1.0  0.22400  0.13200  0.79800  1.0000
  Tm  Tm1       1.0  0.91800  0.16700  0.00369  1.0000
  Tm  Tm2       1.0  0.08660  0.84100  0.00744  1.0000
  Tm  Tm3       1.0  0.59100  0.84300  0.96900  1.0000
  Tm  Tm4       1.0  0.41300  0.12900  0.97400  1.0000
