data_image0
_chemical_formula_structural       Li8O11Sr4
_chemical_formula_sum              "Li8 O11 Sr4"
_cell_length_a       12.5343
_cell_length_b       6.2245
_cell_length_c       4.60711
_cell_angle_alpha    101.091
_cell_angle_beta     99.4652
_cell_angle_gamma    122.329

_space_group_name_H-M_alt    "P 1"
_space_group_IT_number       1

loop_
  _space_group_symop_operation_xyz
  'x, y, z'

loop_
  _atom_site_type_symbol
  _atom_site_label
  _atom_site_symmetry_multiplicity
  _atom_site_fract_x
  _atom_site_fract_y
  _atom_site_fract_z
  _atom_site_occupancy
  Li  Li1       1.0  0.79000  0.52600  0.02460  1.0000
  Li  Li2       1.0  0.40300  0.79300  0.42800  1.0000
  Li  Li3       1.0  0.80700  0.44000  0.48400  1.0000
  Li  Li4       1.0  0.69100  0.62400  0.50500  1.0000
  Li  Li5       1.0  0.20300  0.63900  0.53500  1.0000
  Li  Li6       1.0  0.01450  0.98000  0.56100  1.0000
  Li  Li7       1.0  0.32400  0.36300  0.57400  1.0000
  Li  Li8       1.0  0.22900  0.47800  0.92800  1.0000
  O   O1        1.0  0.64800  0.33000  0.16500  1.0000
  O   O2        1.0  0.26700  0.81300  0.25300  1.0000
  O   O3        1.0  0.95000  0.60200  0.31300  1.0000
  O   O4        1.0  0.47600  0.59400  0.36300  1.0000
  O   O5        1.0  0.77500  0.97700  0.43900  1.0000
  O   O6        1.0  0.51300  0.47600  0.58000  1.0000
  O   O7        1.0  0.06140  0.34800  0.63400  1.0000
  O   O8        1.0  0.75000  0.13500  0.65500  1.0000
  O   O9        1.0  0.36700  0.71600  0.78600  1.0000
  O   O10       1.0  0.21000  0.13800  0.79100  1.0000
  O   O11       1.0  0.86800  0.76000  0.81100  1.0000
  Sr  Sr1       1.0  0.59400  0.88600  0.00767  1.0000
  Sr  Sr2       1.0  0.41300  0.16000  0.01690  1.0000
  Sr  Sr3       1.0  0.93300  0.19200  0.08310  1.0000
  Sr  Sr4       1.0  0.07050  0.74900  0.93600  1.0000
