data_image0
_chemical_formula_structural       Li8O11V4
_chemical_formula_sum              "Li8 O11 V4"
_cell_length_a       10.0683
_cell_length_b       5.04271
_cell_length_c       5.00104
_cell_angle_alpha    99.0588
_cell_angle_beta     99.1609
_cell_angle_gamma    120.241

_space_group_name_H-M_alt    "P 1"
_space_group_IT_number       1

loop_
  _space_group_symop_operation_xyz
  'x, y, z'

loop_
  _atom_site_type_symbol
  _atom_site_label
  _atom_site_symmetry_multiplicity
  _atom_site_fract_x
  _atom_site_fract_y
  _atom_site_fract_z
  _atom_site_occupancy
  Li  Li1       1.0  0.74800  0.50200  0.00587  1.0000
  Li  Li2       1.0  0.82700  0.33300  0.49300  1.0000
  Li  Li3       1.0  0.67000  0.65100  0.49900  1.0000
  Li  Li4       1.0  0.49900  0.99600  0.49900  1.0000
  Li  Li5       1.0  0.98300  0.97000  0.50400  1.0000
  Li  Li6       1.0  0.18000  0.71700  0.51200  1.0000
  Li  Li7       1.0  0.35300  0.36100  0.51800  1.0000
  Li  Li8       1.0  0.25900  0.51100  0.96400  1.0000
  O   O1        1.0  0.46200  0.58400  0.22800  1.0000
  O   O2        1.0  0.29200  0.94500  0.23000  1.0000
  O   O3        1.0  0.61200  0.22300  0.23700  1.0000
  O   O4        1.0  0.79200  0.92700  0.24100  1.0000
  O   O5        1.0  0.97100  0.57600  0.24200  1.0000
  O   O6        1.0  0.38500  0.77700  0.76000  1.0000
  O   O7        1.0  0.69700  0.04950  0.76500  1.0000
  O   O8        1.0  0.21100  0.08850  0.76600  1.0000
  O   O9        1.0  0.88000  0.75800  0.76900  1.0000
  O   O10       1.0  0.04380  0.40100  0.77800  1.0000
  O   O11       1.0  0.53500  0.41500  0.77900  1.0000
  V   V1        1.0  0.58600  0.84000  0.00880  1.0000
  V   V2        1.0  0.07630  0.81500  0.98000  1.0000
  V   V3        1.0  0.90800  0.16500  0.98800  1.0000
  V   V4        1.0  0.41600  0.16600  0.00000  1.0000
