data_image0
_chemical_formula_structural       Cd4Li8O11
_chemical_formula_sum              "Cd4 Li8 O11"
_cell_length_a       10.706
_cell_length_b       5.32088
_cell_length_c       5.16777
_cell_angle_alpha    100.448
_cell_angle_beta     99.3691
_cell_angle_gamma    120.13

_space_group_name_H-M_alt    "P 1"
_space_group_IT_number       1

loop_
  _space_group_symop_operation_xyz
  'x, y, z'

loop_
  _atom_site_type_symbol
  _atom_site_label
  _atom_site_symmetry_multiplicity
  _atom_site_fract_x
  _atom_site_fract_y
  _atom_site_fract_z
  _atom_site_occupancy
  Cd  Cd1       1.0  0.41700  0.16400  0.00050  1.0000
  Cd  Cd2       1.0  0.08360  0.83400  0.00477  1.0000
  Cd  Cd3       1.0  0.58300  0.83800  0.99500  1.0000
  Cd  Cd4       1.0  0.91400  0.16500  0.99900  1.0000
  Li  Li1       1.0  0.16600  0.66600  0.49800  1.0000
  Li  Li2       1.0  0.99900  0.99800  0.49900  1.0000
  Li  Li3       1.0  0.83500  0.32800  0.50300  1.0000
  Li  Li4       1.0  0.69000  0.67100  0.51300  1.0000
  Li  Li5       1.0  0.50500  0.03550  0.51900  1.0000
  Li  Li6       1.0  0.31900  0.30600  0.52000  1.0000
  Li  Li7       1.0  0.23000  0.49000  0.96200  1.0000
  Li  Li8       1.0  0.75200  0.50300  0.99800  1.0000
  O   O1        1.0  0.78400  0.90700  0.25300  1.0000
  O   O2        1.0  0.95600  0.58900  0.26100  1.0000
  O   O3        1.0  0.61900  0.24600  0.26500  1.0000
  O   O4        1.0  0.30400  0.92400  0.26500  1.0000
  O   O5        1.0  0.13600  0.26300  0.27000  1.0000
  O   O6        1.0  0.70200  0.07630  0.70800  1.0000
  O   O7        1.0  0.37400  0.71700  0.72000  1.0000
  O   O8        1.0  0.87400  0.75200  0.73400  1.0000
  O   O9        1.0  0.04200  0.41700  0.73600  1.0000
  O   O10       1.0  0.54100  0.41800  0.75200  1.0000
  O   O11       1.0  0.21500  0.10300  0.76800  1.0000
