data_image0
_chemical_formula_structural       Li8Mn2Nb2O11
_chemical_formula_sum              "Li8 Mn2 Nb2 O11"
_cell_length_a       10.3699
_cell_length_b       5.22786
_cell_length_c       5.13306
_cell_angle_alpha    99.932
_cell_angle_beta     99.4576
_cell_angle_gamma    119.969

_space_group_name_H-M_alt    "P 1"
_space_group_IT_number       1

loop_
  _space_group_symop_operation_xyz
  'x, y, z'

loop_
  _atom_site_type_symbol
  _atom_site_label
  _atom_site_symmetry_multiplicity
  _atom_site_fract_x
  _atom_site_fract_y
  _atom_site_fract_z
  _atom_site_occupancy
  Li  Li1       1.0  0.73800  0.49200  0.00778  1.0000
  Li  Li2       1.0  0.99700  0.99600  0.48300  1.0000
  Li  Li3       1.0  0.34500  0.40400  0.49300  1.0000
  Li  Li4       1.0  0.66400  0.64900  0.49400  1.0000
  Li  Li5       1.0  0.81100  0.30000  0.50500  1.0000
  Li  Li6       1.0  0.52300  0.02300  0.52400  1.0000
  Li  Li7       1.0  0.16600  0.63400  0.52900  1.0000
  Li  Li8       1.0  0.24800  0.45800  0.96900  1.0000
  Mn  Mn1       1.0  0.92000  0.18300  0.01980  1.0000
  Mn  Mn2       1.0  0.42000  0.17500  0.98600  1.0000
  Nb  Nb1       1.0  0.58300  0.83400  0.00191  1.0000
  Nb  Nb2       1.0  0.05750  0.81800  0.96500  1.0000
  O   O1        1.0  0.45800  0.59600  0.23300  1.0000
  O   O2        1.0  0.13200  0.22000  0.24100  1.0000
  O   O3        1.0  0.61500  0.22600  0.24600  1.0000
  O   O4        1.0  0.77800  0.91000  0.24600  1.0000
  O   O5        1.0  0.99100  0.62400  0.25600  1.0000
  O   O6        1.0  0.87200  0.73700  0.74200  1.0000
  O   O7        1.0  0.53800  0.44000  0.74700  1.0000
  O   O8        1.0  0.38400  0.76200  0.75300  1.0000
  O   O9        1.0  0.20500  0.05350  0.77200  1.0000
  O   O10       1.0  0.70500  0.08410  0.77400  1.0000
  O   O11       1.0  0.05800  0.45000  0.78500  1.0000
