data_image0
_chemical_formula_structural       B4F28S4
_chemical_formula_sum              "B4 F28 S4"
_cell_length_a       8.75313
_cell_length_b       5.12227
_cell_length_c       8.36933
_cell_angle_alpha    90
_cell_angle_beta     90
_cell_angle_gamma    90

_space_group_name_H-M_alt    "P 1"
_space_group_IT_number       1

loop_
  _space_group_symop_operation_xyz
  'x, y, z'

loop_
  _atom_site_type_symbol
  _atom_site_label
  _atom_site_symmetry_multiplicity
  _atom_site_fract_x
  _atom_site_fract_y
  _atom_site_fract_z
  _atom_site_occupancy
  B   B1        1.0  0.48900  0.75000  0.17400  1.0000
  B   B2        1.0  0.98900  0.75000  0.32600  1.0000
  B   B3        1.0  0.01060  0.25000  0.67400  1.0000
  B   B4        1.0  0.51100  0.25000  0.82600  1.0000
  F   F1        1.0  0.43200  0.75000  0.01950  1.0000
  F   F2        1.0  0.16700  0.02300  0.04270  1.0000
  F   F3        1.0  0.16700  0.47700  0.04270  1.0000
  F   F4        1.0  0.65100  0.75000  0.16900  1.0000
  F   F5        1.0  0.70200  0.25000  0.22500  1.0000
  F   F6        1.0  0.93800  0.52600  0.24500  1.0000
  F   F7        1.0  0.93800  0.97400  0.24500  1.0000
  F   F8        1.0  0.43800  0.52600  0.25500  1.0000
  F   F9        1.0  0.43800  0.97400  0.25500  1.0000
  F   F10       1.0  0.20200  0.25000  0.27500  1.0000
  F   F11       1.0  0.15100  0.75000  0.33100  1.0000
  F   F12       1.0  0.66700  0.02300  0.45700  1.0000
  F   F13       1.0  0.66700  0.47700  0.45700  1.0000
  F   F14       1.0  0.93200  0.75000  0.48100  1.0000
  F   F15       1.0  0.06850  0.25000  0.51900  1.0000
  F   F16       1.0  0.33300  0.52300  0.54300  1.0000
  F   F17       1.0  0.33300  0.97700  0.54300  1.0000
  F   F18       1.0  0.84900  0.25000  0.66900  1.0000
  F   F19       1.0  0.79800  0.75000  0.72500  1.0000
  F   F20       1.0  0.56200  0.02610  0.74500  1.0000
  F   F21       1.0  0.56200  0.47400  0.74500  1.0000
  F   F22       1.0  0.06220  0.02610  0.75500  1.0000
  F   F23       1.0  0.06220  0.47400  0.75500  1.0000
  F   F24       1.0  0.29800  0.75000  0.77500  1.0000
  F   F25       1.0  0.34900  0.25000  0.83100  1.0000
  F   F26       1.0  0.83300  0.52300  0.95700  1.0000
  F   F27       1.0  0.83300  0.97700  0.95700  1.0000
  F   F28       1.0  0.56800  0.25000  0.98100  1.0000
  S   S1        1.0  0.26900  0.25000  0.10600  1.0000
  S   S2        1.0  0.76900  0.25000  0.39400  1.0000
  S   S3        1.0  0.23100  0.75000  0.60600  1.0000
  S   S4        1.0  0.73100  0.75000  0.89400  1.0000
