data_image0
_chemical_formula_structural       BaNi4O8
_chemical_formula_sum              "Ba1 Ni4 O8"
_cell_length_a       5.62584
_cell_length_b       5.62584
_cell_length_c       7.05554
_cell_angle_alpha    90
_cell_angle_beta     113.496
_cell_angle_gamma    60

_space_group_name_H-M_alt    "P 1"
_space_group_IT_number       1

loop_
  _space_group_symop_operation_xyz
  'x, y, z'

loop_
  _atom_site_type_symbol
  _atom_site_label
  _atom_site_symmetry_multiplicity
  _atom_site_fract_x
  _atom_site_fract_y
  _atom_site_fract_z
  _atom_site_occupancy
  Ba  Ba1       1.0  0.00000  0.50000  0.50000  1.0000
  Ni  Ni1       1.0  0.50000  0.00000  0.00000  1.0000
  Ni  Ni2       1.0  0.00000  0.00000  0.00000  1.0000
  Ni  Ni3       1.0  0.50000  0.50000  0.00000  1.0000
  Ni  Ni4       1.0  0.00000  0.50000  0.00000  1.0000
  O   O1        1.0  0.43600  0.28200  0.15500  1.0000
  O   O2        1.0  0.92900  0.30000  0.15800  1.0000
  O   O3        1.0  0.45700  0.77100  0.15800  1.0000
  O   O4        1.0  0.92900  0.77100  0.15800  1.0000
  O   O5        1.0  0.07090  0.22900  0.84200  1.0000
  O   O6        1.0  0.54300  0.22900  0.84200  1.0000
  O   O7        1.0  0.07090  0.70000  0.84200  1.0000
  O   O8        1.0  0.56400  0.71800  0.84500  1.0000
