data_image0
_chemical_formula_structural       Li8O11Tb4
_chemical_formula_sum              "Li8 O11 Tb4"
_cell_length_a       11.689
_cell_length_b       5.87267
_cell_length_c       5.01049
_cell_angle_alpha    97.1595
_cell_angle_beta     97.4154
_cell_angle_gamma    126.204

_space_group_name_H-M_alt    "P 1"
_space_group_IT_number       1

loop_
  _space_group_symop_operation_xyz
  'x, y, z'

loop_
  _atom_site_type_symbol
  _atom_site_label
  _atom_site_symmetry_multiplicity
  _atom_site_fract_x
  _atom_site_fract_y
  _atom_site_fract_z
  _atom_site_occupancy
  Li  Li1       1.0  0.75600  0.50100  0.00253  1.0000
  Li  Li2       1.0  0.24000  0.52100  0.04970  1.0000
  Li  Li3       1.0  0.95000  0.92500  0.44200  1.0000
  Li  Li4       1.0  0.32800  0.41500  0.45600  1.0000
  Li  Li5       1.0  0.81300  0.36800  0.49000  1.0000
  Li  Li6       1.0  0.19500  0.60900  0.52000  1.0000
  Li  Li7       1.0  0.70000  0.63400  0.52200  1.0000
  Li  Li8       1.0  0.55100  0.09010  0.56300  1.0000
  O   O1        1.0  0.35400  0.39000  0.07670  1.0000
  O   O2        1.0  0.61900  0.21600  0.24500  1.0000
  O   O3        1.0  0.94200  0.58400  0.24500  1.0000
  O   O4        1.0  0.77500  0.89400  0.26300  1.0000
  O   O5        1.0  0.26900  0.86400  0.26400  1.0000
  O   O6        1.0  0.11000  0.23900  0.29800  1.0000
  O   O7        1.0  0.39800  0.77000  0.70700  1.0000
  O   O8        1.0  0.55900  0.42900  0.74300  1.0000
  O   O9        1.0  0.72100  0.10900  0.75500  1.0000
  O   O10       1.0  0.89400  0.79900  0.76600  1.0000
  O   O11       1.0  0.10100  0.54100  0.81900  1.0000
  Tb  Tb1       1.0  0.92400  0.19700  0.01470  1.0000
  Tb  Tb2       1.0  0.09190  0.89300  0.02730  1.0000
  Tb  Tb3       1.0  0.57000  0.78800  0.99400  1.0000
  Tb  Tb4       1.0  0.42500  0.11900  0.99600  1.0000
