data_image0
_chemical_formula_structural       Li8O11Yb4
_chemical_formula_sum              "Li8 O11 Yb4"
_cell_length_a       12.2504
_cell_length_b       6.16898
_cell_length_c       4.00579
_cell_angle_alpha    100.583
_cell_angle_beta     100.503
_cell_angle_gamma    122.544

_space_group_name_H-M_alt    "P 1"
_space_group_IT_number       1

loop_
  _space_group_symop_operation_xyz
  'x, y, z'

loop_
  _atom_site_type_symbol
  _atom_site_label
  _atom_site_symmetry_multiplicity
  _atom_site_fract_x
  _atom_site_fract_y
  _atom_site_fract_z
  _atom_site_occupancy
  Li  Li1       1.0  0.79100  0.49200  0.01310  1.0000
  Li  Li2       1.0  0.39700  0.81100  0.38800  1.0000
  Li  Li3       1.0  0.31500  0.29000  0.44900  1.0000
  Li  Li4       1.0  0.81100  0.41000  0.49800  1.0000
  Li  Li5       1.0  0.70200  0.63300  0.52200  1.0000
  Li  Li6       1.0  0.99600  0.95200  0.52500  1.0000
  Li  Li7       1.0  0.19600  0.69400  0.56300  1.0000
  Li  Li8       1.0  0.22700  0.42600  0.86300  1.0000
  O   O1        1.0  0.64500  0.31300  0.16100  1.0000
  O   O2        1.0  0.29500  0.94700  0.31700  1.0000
  O   O3        1.0  0.96300  0.57600  0.33300  1.0000
  O   O4        1.0  0.46400  0.59000  0.34800  1.0000
  O   O5        1.0  0.77100  0.97000  0.42000  1.0000
  O   O6        1.0  0.52500  0.50100  0.60200  1.0000
  O   O7        1.0  0.73300  0.10600  0.67700  1.0000
  O   O8        1.0  0.05900  0.36100  0.71000  1.0000
  O   O9        1.0  0.20400  0.09960  0.72000  1.0000
  O   O10       1.0  0.36700  0.75700  0.85100  1.0000
  O   O11       1.0  0.89100  0.78300  0.86900  1.0000
  Yb  Yb1       1.0  0.58500  0.88900  0.01790  1.0000
  Yb  Yb2       1.0  0.92300  0.18000  0.06810  1.0000
  Yb  Yb3       1.0  0.07520  0.75900  0.96000  1.0000
  Yb  Yb4       1.0  0.43400  0.20100  0.98800  1.0000
