data_image0
_chemical_formula_structural       O22Pr4Si4V5
_chemical_formula_sum              "O22 Pr4 Si4 V5"
_cell_length_a       5.62241
_cell_length_b       7.27942
_cell_length_c       11.0936
_cell_angle_alpha    99.7051
_cell_angle_beta     90
_cell_angle_gamma    112.717

_space_group_name_H-M_alt    "P 1"
_space_group_IT_number       1

loop_
  _space_group_symop_operation_xyz
  'x, y, z'

loop_
  _atom_site_type_symbol
  _atom_site_label
  _atom_site_symmetry_multiplicity
  _atom_site_fract_x
  _atom_site_fract_y
  _atom_site_fract_z
  _atom_site_occupancy
  O   O1        1.0  0.16700  0.86000  0.08670  1.0000
  O   O2        1.0  0.69300  0.86000  0.08670  1.0000
  O   O3        1.0  0.18900  0.37800  0.10100  1.0000
  O   O4        1.0  0.77800  0.55700  0.13200  1.0000
  O   O5        1.0  0.58700  0.17300  0.16600  1.0000
  O   O6        1.0  0.48600  0.45500  0.31200  1.0000
  O   O7        1.0  0.96900  0.45500  0.31200  1.0000
  O   O8        1.0  0.21800  0.95300  0.36800  1.0000
  O   O9        1.0  0.73500  0.95300  0.36800  1.0000
  O   O10       1.0  0.14200  0.28400  0.47500  1.0000
  O   O11       1.0  0.35100  0.70200  0.48800  1.0000
  O   O12       1.0  0.64900  0.29800  0.51200  1.0000
  O   O13       1.0  0.85800  0.71600  0.52500  1.0000
  O   O14       1.0  0.26500  0.04700  0.63200  1.0000
  O   O15       1.0  0.78200  0.04700  0.63200  1.0000
  O   O16       1.0  0.03120  0.54500  0.68800  1.0000
  O   O17       1.0  0.51400  0.54500  0.68800  1.0000
  O   O18       1.0  0.41300  0.82700  0.83400  1.0000
  O   O19       1.0  0.22200  0.44300  0.86800  1.0000
  O   O20       1.0  0.81100  0.62200  0.89900  1.0000
  O   O21       1.0  0.30700  0.14000  0.91300  1.0000
  O   O22       1.0  0.83300  0.14000  0.91300  1.0000
  Pr  Pr1       1.0  0.35700  0.71400  0.24300  1.0000
  Pr  Pr2       1.0  0.07270  0.14500  0.24800  1.0000
  Pr  Pr3       1.0  0.92700  0.85500  0.75200  1.0000
  Pr  Pr4       1.0  0.64300  0.28600  0.75700  1.0000
  Si  Si1       1.0  0.86100  0.72100  0.04140  1.0000
  Si  Si2       1.0  0.70400  0.40700  0.23100  1.0000
  Si  Si3       1.0  0.29600  0.59300  0.76900  1.0000
  Si  Si4       1.0  0.13900  0.27900  0.95900  1.0000
  V   V1        1.0  0.50000  0.00000  0.00000  1.0000
  V   V2        1.0  0.00000  0.50000  0.50000  1.0000
  V   V3        1.0  0.50000  0.50000  0.50000  1.0000
  V   V4        1.0  0.00000  0.00000  0.50000  1.0000
  V   V5        1.0  0.50000  0.00000  0.50000  1.0000
