data_image0
_chemical_formula_structural       C10CoH14N8O2
_chemical_formula_sum              "C10 Co1 H14 N8 O2"
_cell_length_a       7.31339
_cell_length_b       7.50942
_cell_length_c       7.89787
_cell_angle_alpha    108.9
_cell_angle_beta     90
_cell_angle_gamma    119.14

_space_group_name_H-M_alt    "P 1"
_space_group_IT_number       1

loop_
  _space_group_symop_operation_xyz
  'x, y, z'

loop_
  _atom_site_type_symbol
  _atom_site_label
  _atom_site_symmetry_multiplicity
  _atom_site_fract_x
  _atom_site_fract_y
  _atom_site_fract_z
  _atom_site_occupancy
  C   C1        1.0  0.36100  0.72100  0.09820  1.0000
  C   C2        1.0  0.18300  0.36500  0.15000  1.0000
  C   C3        1.0  0.81700  0.63300  0.15300  1.0000
  C   C4        1.0  0.46200  0.23100  0.41600  1.0000
  C   C5        1.0  0.76900  0.23100  0.41600  1.0000
  C   C6        1.0  0.23100  0.76900  0.58400  1.0000
  C   C7        1.0  0.53800  0.76900  0.58400  1.0000
  C   C8        1.0  0.18300  0.36700  0.84700  1.0000
  C   C9        1.0  0.81700  0.63500  0.85000  1.0000
  C   C10       1.0  0.63900  0.27900  0.90200  1.0000
  Co  Co1       1.0  0.00000  0.00000  0.50000  1.0000
  H   H1        1.0  0.61100  0.22200  0.01600  1.0000
  H   H2        1.0  0.00888  0.26000  0.12700  1.0000
  H   H3        1.0  0.25100  0.26000  0.12700  1.0000
  H   H4        1.0  0.26900  0.78400  0.18200  1.0000
  H   H5        1.0  0.51400  0.78400  0.18200  1.0000
  H   H6        1.0  0.76800  0.53700  0.24100  1.0000
  H   H7        1.0  0.24200  0.48400  0.29000  1.0000
  H   H8        1.0  0.75800  0.51600  0.71000  1.0000
  H   H9        1.0  0.23200  0.46300  0.75900  1.0000
  H   H10       1.0  0.48600  0.21600  0.81800  1.0000
  H   H11       1.0  0.73100  0.21600  0.81800  1.0000
  H   H12       1.0  0.74900  0.74000  0.87300  1.0000
  H   H13       1.0  0.99100  0.74000  0.87300  1.0000
  H   H14       1.0  0.38900  0.77800  0.98400  1.0000
  N   N1        1.0  0.24100  0.48300  0.02570  1.0000
  N   N2        1.0  0.63000  0.26100  0.34700  1.0000
  N   N3        1.0  0.30500  0.20700  0.47200  1.0000
  N   N4        1.0  0.90200  0.20700  0.47200  1.0000
  N   N5        1.0  0.09760  0.79300  0.52800  1.0000
  N   N6        1.0  0.69500  0.79300  0.52800  1.0000
  N   N7        1.0  0.37000  0.73900  0.65300  1.0000
  N   N8        1.0  0.75900  0.51700  0.97400  1.0000
  O   O1        1.0  0.92000  0.84000  0.21600  1.0000
  O   O2        1.0  0.07990  0.16000  0.78400  1.0000
