data_image0
_chemical_formula_structural       P16Se20
_chemical_formula_sum              "P16 Se20"
_cell_length_a       13.2578
_cell_length_b       11.513
_cell_length_c       6.82627
_cell_angle_alpha    90
_cell_angle_beta     90
_cell_angle_gamma    90

_space_group_name_H-M_alt    "P 1"
_space_group_IT_number       1

loop_
  _space_group_symop_operation_xyz
  'x, y, z'

loop_
  _atom_site_type_symbol
  _atom_site_label
  _atom_site_symmetry_multiplicity
  _atom_site_fract_x
  _atom_site_fract_y
  _atom_site_fract_z
  _atom_site_occupancy
  P   P1        1.0  0.44000  0.53100  0.00962  1.0000
  P   P2        1.0  0.18100  0.51400  0.03930  1.0000
  P   P3        1.0  0.40100  0.34800  0.10000  1.0000
  P   P4        1.0  0.10900  0.98100  0.20200  1.0000
  P   P5        1.0  0.60900  0.98100  0.29800  1.0000
  P   P6        1.0  0.90100  0.34800  0.40000  1.0000
  P   P7        1.0  0.68100  0.51400  0.46100  1.0000
  P   P8        1.0  0.94000  0.53100  0.49000  1.0000
  P   P9        1.0  0.06030  0.03140  0.51000  1.0000
  P   P10       1.0  0.31900  0.01360  0.53900  1.0000
  P   P11       1.0  0.09890  0.84800  0.60000  1.0000
  P   P12       1.0  0.39100  0.48100  0.70200  1.0000
  P   P13       1.0  0.89100  0.48100  0.79800  1.0000
  P   P14       1.0  0.59900  0.84800  0.90000  1.0000
  P   P15       1.0  0.81900  0.01360  0.96100  1.0000
  P   P16       1.0  0.56000  0.03140  0.99000  1.0000
  Se  Se1       1.0  0.31200  0.63300  0.13700  1.0000
  Se  Se2       1.0  0.23200  0.34000  0.17200  1.0000
  Se  Se3       1.0  0.98700  0.25800  0.18100  1.0000
  Se  Se4       1.0  0.28200  0.00107  0.21300  1.0000
  Se  Se5       1.0  0.56900  0.79000  0.21800  1.0000
  Se  Se6       1.0  0.06910  0.79000  0.28200  1.0000
  Se  Se7       1.0  0.78200  0.00107  0.28700  1.0000
  Se  Se8       1.0  0.48700  0.25800  0.31900  1.0000
  Se  Se9       1.0  0.73200  0.34000  0.32800  1.0000
  Se  Se10      1.0  0.81200  0.63300  0.36300  1.0000
  Se  Se11      1.0  0.18800  0.13300  0.63700  1.0000
  Se  Se12      1.0  0.26800  0.84000  0.67200  1.0000
  Se  Se13      1.0  0.51300  0.75800  0.68100  1.0000
  Se  Se14      1.0  0.21800  0.50100  0.71300  1.0000
  Se  Se15      1.0  0.93100  0.29000  0.71800  1.0000
  Se  Se16      1.0  0.43100  0.29000  0.78200  1.0000
  Se  Se17      1.0  0.71800  0.50100  0.78700  1.0000
  Se  Se18      1.0  0.01320  0.75800  0.81900  1.0000
  Se  Se19      1.0  0.76800  0.84000  0.82800  1.0000
  Se  Se20      1.0  0.68800  0.13300  0.86300  1.0000
