data_image0
_chemical_formula_structural       Li8Mn2O11Pa2
_chemical_formula_sum              "Li8 Mn2 O11 Pa2"
_cell_length_a       10.8754
_cell_length_b       5.41284
_cell_length_c       5.19933
_cell_angle_alpha    98.559
_cell_angle_beta     99.2503
_cell_angle_gamma    120.575

_space_group_name_H-M_alt    "P 1"
_space_group_IT_number       1

loop_
  _space_group_symop_operation_xyz
  'x, y, z'

loop_
  _atom_site_type_symbol
  _atom_site_label
  _atom_site_symmetry_multiplicity
  _atom_site_fract_x
  _atom_site_fract_y
  _atom_site_fract_z
  _atom_site_occupancy
  Li  Li1       1.0  0.82700  0.32800  0.49700  1.0000
  Li  Li2       1.0  0.36700  0.35800  0.50400  1.0000
  Li  Li3       1.0  0.49000  0.01920  0.50500  1.0000
  Li  Li4       1.0  0.68300  0.62100  0.51700  1.0000
  Li  Li5       1.0  0.96800  0.98800  0.52200  1.0000
  Li  Li6       1.0  0.19600  0.72400  0.52200  1.0000
  Li  Li7       1.0  0.25300  0.48900  0.92200  1.0000
  Li  Li8       1.0  0.74600  0.49500  0.99900  1.0000
  Mn  Mn1       1.0  0.90200  0.15600  0.98500  1.0000
  Mn  Mn2       1.0  0.41900  0.16700  0.00000  1.0000
  O   O1        1.0  0.42700  0.55100  0.21800  1.0000
  O   O2        1.0  0.62300  0.24800  0.25200  1.0000
  O   O3        1.0  0.79900  0.92500  0.25200  1.0000
  O   O4        1.0  0.28900  0.93300  0.25600  1.0000
  O   O5        1.0  0.96700  0.57800  0.25700  1.0000
  O   O6        1.0  0.19600  0.07060  0.73600  1.0000
  O   O7        1.0  0.37800  0.75600  0.73900  1.0000
  O   O8        1.0  0.54500  0.42700  0.75300  1.0000
  O   O9        1.0  0.71000  0.08750  0.75500  1.0000
  O   O10       1.0  0.88000  0.75500  0.76900  1.0000
  O   O11       1.0  0.05020  0.41500  0.77600  1.0000
  Pa  Pa1       1.0  0.08430  0.82900  0.00448  1.0000
  Pa  Pa2       1.0  0.58200  0.83200  0.01110  1.0000
