data_image0
_chemical_formula_structural       Al4Ca4H4O20Si4
_chemical_formula_sum              "Al4 Ca4 H4 O20 Si4"
_cell_length_a       7.015
_cell_length_b       8.52239
_cell_length_c       5.66913
_cell_angle_alpha    90
_cell_angle_beta     90
_cell_angle_gamma    90

_space_group_name_H-M_alt    "P 1"
_space_group_IT_number       1

loop_
  _space_group_symop_operation_xyz
  'x, y, z'

loop_
  _atom_site_type_symbol
  _atom_site_label
  _atom_site_symmetry_multiplicity
  _atom_site_fract_x
  _atom_site_fract_y
  _atom_site_fract_z
  _atom_site_occupancy
  Al  Al1       1.0  0.24000  0.00455  0.24500  1.0000
  Al  Al2       1.0  0.76000  0.50500  0.25500  1.0000
  Al  Al3       1.0  0.26000  0.99500  0.74500  1.0000
  Al  Al4       1.0  0.74000  0.49500  0.75500  1.0000
  Ca  Ca1       1.0  0.36300  0.66500  0.02880  1.0000
  Ca  Ca2       1.0  0.63700  0.16500  0.47100  1.0000
  Ca  Ca3       1.0  0.13700  0.33500  0.52900  1.0000
  Ca  Ca4       1.0  0.86300  0.83500  0.97100  1.0000
  H   H1        1.0  0.52900  0.99400  0.02110  1.0000
  H   H2        1.0  0.47100  0.49400  0.47900  1.0000
  H   H3        1.0  0.97100  0.00583  0.52100  1.0000
  H   H4        1.0  0.02850  0.50600  0.97900  1.0000
  O   O1        1.0  0.39900  0.93500  0.00533  1.0000
  O   O2        1.0  0.57200  0.43000  0.01070  1.0000
  O   O3        1.0  0.71000  0.06710  0.07420  1.0000
  O   O4        1.0  0.35200  0.21200  0.23600  1.0000
  O   O5        1.0  0.88900  0.30700  0.24300  1.0000
  O   O6        1.0  0.11100  0.80700  0.25700  1.0000
  O   O7        1.0  0.64800  0.71200  0.26400  1.0000
  O   O8        1.0  0.29000  0.56700  0.42600  1.0000
  O   O9        1.0  0.42800  0.93000  0.48900  1.0000
  O   O10       1.0  0.60100  0.43500  0.49500  1.0000
  O   O11       1.0  0.10100  0.06500  0.50500  1.0000
  O   O12       1.0  0.92800  0.57000  0.51100  1.0000
  O   O13       1.0  0.79000  0.93300  0.57400  1.0000
  O   O14       1.0  0.14800  0.78800  0.73600  1.0000
  O   O15       1.0  0.61100  0.69300  0.74300  1.0000
  O   O16       1.0  0.38900  0.19300  0.75700  1.0000
  O   O17       1.0  0.85200  0.28800  0.76400  1.0000
  O   O18       1.0  0.21000  0.43300  0.92600  1.0000
  O   O19       1.0  0.07170  0.07020  0.98900  1.0000
  O   O20       1.0  0.89900  0.56500  0.99500  1.0000
  Si  Si1       1.0  0.88000  0.19000  0.01140  1.0000
  Si  Si2       1.0  0.12000  0.69000  0.48900  1.0000
  Si  Si3       1.0  0.62000  0.81000  0.51100  1.0000
  Si  Si4       1.0  0.38000  0.31000  0.98900  1.0000
