data_image0
_chemical_formula_structural       Li8O11W4
_chemical_formula_sum              "Li8 O11 W4"
_cell_length_a       9.94089
_cell_length_b       4.96574
_cell_length_c       5.20504
_cell_angle_alpha    99.3214
_cell_angle_beta     99.4477
_cell_angle_gamma    117.396

_space_group_name_H-M_alt    "P 1"
_space_group_IT_number       1

loop_
  _space_group_symop_operation_xyz
  'x, y, z'

loop_
  _atom_site_type_symbol
  _atom_site_label
  _atom_site_symmetry_multiplicity
  _atom_site_fract_x
  _atom_site_fract_y
  _atom_site_fract_z
  _atom_site_occupancy
  Li  Li1       1.0  0.99000  0.97700  0.49200  1.0000
  Li  Li2       1.0  0.49800  0.99700  0.49400  1.0000
  Li  Li3       1.0  0.33400  0.34300  0.49600  1.0000
  Li  Li4       1.0  0.67100  0.66800  0.50600  1.0000
  Li  Li5       1.0  0.16500  0.66000  0.51200  1.0000
  Li  Li6       1.0  0.82800  0.32700  0.51300  1.0000
  Li  Li7       1.0  0.24400  0.48700  0.97100  1.0000
  Li  Li8       1.0  0.75100  0.50100  0.00000  1.0000
  O   O1        1.0  0.78900  0.93200  0.22500  1.0000
  O   O2        1.0  0.46200  0.58100  0.22600  1.0000
  O   O3        1.0  0.29100  0.93800  0.23300  1.0000
  O   O4        1.0  0.97300  0.57800  0.23800  1.0000
  O   O5        1.0  0.63400  0.27300  0.26800  1.0000
  O   O6        1.0  0.36400  0.73300  0.72300  1.0000
  O   O7        1.0  0.87700  0.74500  0.74900  1.0000
  O   O8        1.0  0.03080  0.39700  0.76200  1.0000
  O   O9        1.0  0.70100  0.06790  0.76400  1.0000
  O   O10       1.0  0.53700  0.42200  0.76600  1.0000
  O   O11       1.0  0.21000  0.06790  0.76800  1.0000
  W   W1        1.0  0.93900  0.15600  0.01610  1.0000
  W   W2        1.0  0.08000  0.87100  0.01680  1.0000
  W   W3        1.0  0.57100  0.86000  0.99500  1.0000
  W   W4        1.0  0.42900  0.15100  0.99600  1.0000
