data_image0
_chemical_formula_structural       Li8Mn2O11Pb2
_chemical_formula_sum              "Li8 Mn2 O11 Pb2"
_cell_length_a       10.6044
_cell_length_b       5.17257
_cell_length_c       5.15363
_cell_angle_alpha    100.933
_cell_angle_beta     98.9606
_cell_angle_gamma    120.021

_space_group_name_H-M_alt    "P 1"
_space_group_IT_number       1

loop_
  _space_group_symop_operation_xyz
  'x, y, z'

loop_
  _atom_site_type_symbol
  _atom_site_label
  _atom_site_symmetry_multiplicity
  _atom_site_fract_x
  _atom_site_fract_y
  _atom_site_fract_z
  _atom_site_occupancy
  Li  Li1       1.0  0.75900  0.49900  0.00058  1.0000
  Li  Li2       1.0  0.17500  0.68200  0.50900  1.0000
  Li  Li3       1.0  0.81900  0.31200  0.51000  1.0000
  Li  Li4       1.0  0.01420  0.98800  0.51000  1.0000
  Li  Li5       1.0  0.69700  0.67000  0.51600  1.0000
  Li  Li6       1.0  0.30800  0.30700  0.52900  1.0000
  Li  Li7       1.0  0.52200  0.04690  0.54300  1.0000
  Li  Li8       1.0  0.23100  0.50300  0.96900  1.0000
  Mn  Mn1       1.0  0.57900  0.82000  0.96600  1.0000
  Mn  Mn2       1.0  0.08500  0.83500  0.99300  1.0000
  O   O1        1.0  0.75700  0.86800  0.21300  1.0000
  O   O2        1.0  0.96900  0.61800  0.22700  1.0000
  O   O3        1.0  0.26200  0.89800  0.22900  1.0000
  O   O4        1.0  0.12500  0.22400  0.24200  1.0000
  O   O5        1.0  0.62100  0.18300  0.24600  1.0000
  O   O6        1.0  0.53200  0.43900  0.70200  1.0000
  O   O7        1.0  0.03950  0.44300  0.75000  1.0000
  O   O8        1.0  0.70500  0.07380  0.75100  1.0000
  O   O9        1.0  0.89500  0.75600  0.75500  1.0000
  O   O10       1.0  0.39200  0.76800  0.77300  1.0000
  O   O11       1.0  0.19800  0.06890  0.77600  1.0000
  Pb  Pb1       1.0  0.91600  0.16500  0.01220  1.0000
  Pb  Pb2       1.0  0.43200  0.22600  0.04910  1.0000
