data_image0
_chemical_formula_structural       Ca2Cu6P5
_chemical_formula_sum              "Ca2 Cu6 P5"
_cell_length_a       3.99792
_cell_length_b       3.99792
_cell_length_c       12.6197
_cell_angle_alpha    99.114
_cell_angle_beta     99.114
_cell_angle_gamma    90

_space_group_name_H-M_alt    "P 1"
_space_group_IT_number       1

loop_
  _space_group_symop_operation_xyz
  'x, y, z'

loop_
  _atom_site_type_symbol
  _atom_site_label
  _atom_site_symmetry_multiplicity
  _atom_site_fract_x
  _atom_site_fract_y
  _atom_site_fract_z
  _atom_site_occupancy
  Ca  Ca1       1.0  0.64900  0.64900  0.29800  1.0000
  Ca  Ca2       1.0  0.35100  0.35100  0.70200  1.0000
  Cu  Cu1       1.0  0.55400  0.05380  0.10800  1.0000
  Cu  Cu2       1.0  0.05380  0.55400  0.10800  1.0000
  Cu  Cu3       1.0  0.75000  0.25000  0.50000  1.0000
  Cu  Cu4       1.0  0.25000  0.75000  0.50000  1.0000
  Cu  Cu5       1.0  0.94600  0.44600  0.89200  1.0000
  Cu  Cu6       1.0  0.44600  0.94600  0.89200  1.0000
  P   P1        1.0  0.50000  0.50000  0.00000  1.0000
  P   P2        1.0  0.10600  0.10600  0.21300  1.0000
  P   P3        1.0  0.19800  0.19800  0.39500  1.0000
  P   P4        1.0  0.80200  0.80200  0.60500  1.0000
  P   P5        1.0  0.89400  0.89400  0.78700  1.0000
