data_image0
_chemical_formula_structural       MnO24P6Zr4
_chemical_formula_sum              "Mn1 O24 P6 Zr4"
_cell_length_a       8.88194
_cell_length_b       8.88194
_cell_length_c       8.84879
_cell_angle_alpha    90
_cell_angle_beta     120.124
_cell_angle_gamma    120

_space_group_name_H-M_alt    "P 1"
_space_group_IT_number       1

loop_
  _space_group_symop_operation_xyz
  'x, y, z'

loop_
  _atom_site_type_symbol
  _atom_site_label
  _atom_site_symmetry_multiplicity
  _atom_site_fract_x
  _atom_site_fract_y
  _atom_site_fract_z
  _atom_site_occupancy
  Mn  Mn1       1.0  0.00000  0.00000  0.00000  1.0000
  O   O1        1.0  0.19200  0.49000  0.06500  1.0000
  O   O2        1.0  0.57500  0.70200  0.06500  1.0000
  O   O3        1.0  0.36300  0.87300  0.06500  1.0000
  O   O4        1.0  0.30900  0.04900  0.22600  1.0000
  O   O5        1.0  0.17700  0.26000  0.22600  1.0000
  O   O6        1.0  0.96600  0.91700  0.22600  1.0000
  O   O7        1.0  0.65400  0.21500  0.25700  1.0000
  O   O8        1.0  0.04280  0.44000  0.25700  1.0000
  O   O9        1.0  0.81800  0.60300  0.25700  1.0000
  O   O10       1.0  0.42900  0.60100  0.41400  1.0000
  O   O11       1.0  0.81300  0.82800  0.41400  1.0000
  O   O12       1.0  0.58600  0.98500  0.41400  1.0000
  O   O13       1.0  0.41400  0.01480  0.58600  1.0000
  O   O14       1.0  0.18700  0.17200  0.58600  1.0000
  O   O15       1.0  0.57100  0.39900  0.58600  1.0000
  O   O16       1.0  0.18200  0.39700  0.74300  1.0000
  O   O17       1.0  0.95700  0.56000  0.74300  1.0000
  O   O18       1.0  0.34600  0.78500  0.74300  1.0000
  O   O19       1.0  0.03360  0.08260  0.77400  1.0000
  O   O20       1.0  0.82300  0.74000  0.77400  1.0000
  O   O21       1.0  0.69100  0.95100  0.77400  1.0000
  O   O22       1.0  0.63700  0.12700  0.93500  1.0000
  O   O23       1.0  0.42500  0.29800  0.93500  1.0000
  O   O24       1.0  0.80800  0.51000  0.93500  1.0000
  P   P1        1.0  0.47900  0.02940  0.23700  1.0000
  P   P2        1.0  0.20800  0.44900  0.23700  1.0000
  P   P3        1.0  0.78800  0.75900  0.23700  1.0000
  P   P4        1.0  0.21200  0.24100  0.76300  1.0000
  P   P5        1.0  0.79200  0.55100  0.76300  1.0000
  P   P6        1.0  0.52100  0.97100  0.76300  1.0000
  Zr  Zr1       1.0  0.73600  0.36800  0.10400  1.0000
  Zr  Zr2       1.0  0.29400  0.14700  0.44000  1.0000
  Zr  Zr3       1.0  0.70600  0.85300  0.56000  1.0000
  Zr  Zr4       1.0  0.26400  0.63200  0.89600  1.0000
