data_image0
_chemical_formula_structural       Mn5O8
_chemical_formula_sum              "Mn5 O8"
_cell_length_a       4.89892
_cell_length_b       5.76725
_cell_length_c       5.91683
_cell_angle_alpha    119.167
_cell_angle_beta     107.115
_cell_angle_gamma    90

_space_group_name_H-M_alt    "P 1"
_space_group_IT_number       1

loop_
  _space_group_symop_operation_xyz
  'x, y, z'

loop_
  _atom_site_type_symbol
  _atom_site_label
  _atom_site_symmetry_multiplicity
  _atom_site_fract_x
  _atom_site_fract_y
  _atom_site_fract_z
  _atom_site_occupancy
  Mn  Mn1       1.0  0.50000  0.00000  0.00000  1.0000
  Mn  Mn2       1.0  0.00000  0.25900  0.00000  1.0000
  Mn  Mn3       1.0  0.00000  0.74100  0.00000  1.0000
  Mn  Mn4       1.0  0.66000  0.72200  0.44500  1.0000
  Mn  Mn5       1.0  0.34000  0.27800  0.55500  1.0000
  O   O1        1.0  0.91300  0.10600  0.21200  1.0000
  O   O2        1.0  0.93500  0.60800  0.21600  1.0000
  O   O3        1.0  0.39900  0.34000  0.22500  1.0000
  O   O4        1.0  0.39900  0.88400  0.22500  1.0000
  O   O5        1.0  0.60100  0.11600  0.77500  1.0000
  O   O6        1.0  0.60100  0.66000  0.77500  1.0000
  O   O7        1.0  0.06490  0.39200  0.78400  1.0000
  O   O8        1.0  0.08690  0.89400  0.78800  1.0000
