data_image0
_chemical_formula_structural       C6CoH12N8O8
_chemical_formula_sum              "C6 Co1 H12 N8 O8"
_cell_length_a       6.43171
_cell_length_b       6.93457
_cell_length_c       8.33376
_cell_angle_alpha    108.6
_cell_angle_beta     88.9523
_cell_angle_gamma    107.571

_space_group_name_H-M_alt    "P 1"
_space_group_IT_number       1

loop_
  _space_group_symop_operation_xyz
  'x, y, z'

loop_
  _atom_site_type_symbol
  _atom_site_label
  _atom_site_symmetry_multiplicity
  _atom_site_fract_x
  _atom_site_fract_y
  _atom_site_fract_z
  _atom_site_occupancy
  C   C1        1.0  0.36900  0.29400  0.09540  1.0000
  C   C2        1.0  0.36300  0.01400  0.38800  1.0000
  C   C3        1.0  0.37100  0.81700  0.38900  1.0000
  C   C4        1.0  0.62900  0.18300  0.61100  1.0000
  C   C5        1.0  0.63700  0.98600  0.61200  1.0000
  C   C6        1.0  0.63100  0.70600  0.90500  1.0000
  Co  Co1       1.0  0.50000  0.50000  0.50000  1.0000
  H   H1        1.0  0.88200  0.39000  0.12600  1.0000
  H   H2        1.0  0.84600  0.61200  0.14000  1.0000
  H   H3        1.0  0.25200  0.02420  0.29600  1.0000
  H   H4        1.0  0.26400  0.67000  0.30000  1.0000
  H   H5        1.0  0.87900  0.57400  0.37400  1.0000
  H   H6        1.0  0.06470  0.30500  0.42100  1.0000
  H   H7        1.0  0.93500  0.69500  0.57900  1.0000
  H   H8        1.0  0.12100  0.42600  0.62600  1.0000
  H   H9        1.0  0.73600  0.33000  0.70000  1.0000
  H   H10       1.0  0.74800  0.97600  0.70400  1.0000
  H   H11       1.0  0.15400  0.38800  0.86000  1.0000
  H   H12       1.0  0.11800  0.61000  0.87400  1.0000
  N   N1        1.0  0.70900  0.77300  0.06420  1.0000
  N   N2        1.0  0.80100  0.98800  0.12900  1.0000
  N   N3        1.0  0.44600  0.37800  0.23700  1.0000
  N   N4        1.0  0.49300  0.19600  0.49800  1.0000
  N   N5        1.0  0.50700  0.80400  0.50200  1.0000
  N   N6        1.0  0.55400  0.62200  0.76300  1.0000
  N   N7        1.0  0.19900  0.01250  0.87100  1.0000
  N   N8        1.0  0.29100  0.22700  0.93600  1.0000
  O   O1        1.0  0.80500  0.10400  0.03800  1.0000
  O   O2        1.0  0.93600  0.54600  0.18600  1.0000
  O   O3        1.0  0.88000  0.05920  0.28000  1.0000
  O   O4        1.0  0.82600  0.58300  0.49100  1.0000
  O   O5        1.0  0.17400  0.41700  0.50900  1.0000
  O   O6        1.0  0.12000  0.94100  0.72000  1.0000
  O   O7        1.0  0.06360  0.45400  0.81400  1.0000
  O   O8        1.0  0.19500  0.89600  0.96200  1.0000
