data_image0
_chemical_formula_structural       BaMn4O8
_chemical_formula_sum              "Ba1 Mn4 O8"
_cell_length_a       3.06554
_cell_length_b       6.96685
_cell_length_c       7.07656
_cell_angle_alpha    91.3042
_cell_angle_beta     77.4907
_cell_angle_gamma    102.71

_space_group_name_H-M_alt    "P 1"
_space_group_IT_number       1

loop_
  _space_group_symop_operation_xyz
  'x, y, z'

loop_
  _atom_site_type_symbol
  _atom_site_label
  _atom_site_symmetry_multiplicity
  _atom_site_fract_x
  _atom_site_fract_y
  _atom_site_fract_z
  _atom_site_occupancy
  Ba  Ba1       1.0  0.50000  0.00000  0.00000  1.0000
  Mn  Mn1       1.0  0.65400  0.49000  0.18300  1.0000
  Mn  Mn2       1.0  0.16700  0.81600  0.48200  1.0000
  Mn  Mn3       1.0  0.83300  0.18400  0.51800  1.0000
  Mn  Mn4       1.0  0.34600  0.51000  0.81700  1.0000
  O   O1        1.0  0.14500  0.34200  0.05150  1.0000
  O   O2        1.0  0.18000  0.63800  0.27800  1.0000
  O   O3        1.0  0.81100  0.96400  0.34200  1.0000
  O   O4        1.0  0.45800  0.30100  0.38500  1.0000
  O   O5        1.0  0.54200  0.69900  0.61500  1.0000
  O   O6        1.0  0.18900  0.03610  0.65800  1.0000
  O   O7        1.0  0.82000  0.36200  0.72200  1.0000
  O   O8        1.0  0.85500  0.65800  0.94900  1.0000
