data_image0
_chemical_formula_structural       Bi8Cu2Pb6S19
_chemical_formula_sum              "Bi8 Cu2 Pb6 S19"
_cell_length_a       4.06543
_cell_length_b       14.1788
_cell_length_c       15.913
_cell_angle_alpha    90.4922
_cell_angle_beta     97.339
_cell_angle_gamma    81.7575

_space_group_name_H-M_alt    "P 1"
_space_group_IT_number       1

loop_
  _space_group_symop_operation_xyz
  'x, y, z'

loop_
  _atom_site_type_symbol
  _atom_site_label
  _atom_site_symmetry_multiplicity
  _atom_site_fract_x
  _atom_site_fract_y
  _atom_site_fract_z
  _atom_site_occupancy
  Bi  Bi1       1.0  0.89800  0.24700  0.04300  1.0000
  Bi  Bi2       1.0  0.78000  0.54600  0.10500  1.0000
  Bi  Bi3       1.0  0.09380  0.10400  0.29200  1.0000
  Bi  Bi4       1.0  0.29800  0.86600  0.46200  1.0000
  Bi  Bi5       1.0  0.70200  0.13400  0.53800  1.0000
  Bi  Bi6       1.0  0.90600  0.89600  0.70800  1.0000
  Bi  Bi7       1.0  0.22000  0.45400  0.89500  1.0000
  Bi  Bi8       1.0  0.10200  0.75300  0.95700  1.0000
  Cu  Cu1       1.0  0.54000  0.01020  0.08930  1.0000
  Cu  Cu2       1.0  0.46000  0.99000  0.91100  1.0000
  Pb  Pb1       1.0  0.69000  0.84100  0.22100  1.0000
  Pb  Pb2       1.0  0.49100  0.36400  0.34500  1.0000
  Pb  Pb3       1.0  0.89900  0.61000  0.40900  1.0000
  Pb  Pb4       1.0  0.10100  0.39000  0.59100  1.0000
  Pb  Pb5       1.0  0.50900  0.63600  0.65500  1.0000
  Pb  Pb6       1.0  0.31000  0.15900  0.77900  1.0000
  S   S1        1.0  0.57000  0.86600  0.00640  1.0000
  S   S2        1.0  0.32900  0.41000  0.06730  1.0000
  S   S3        1.0  0.21400  0.68900  0.11600  1.0000
  S   S4        1.0  0.08730  0.98600  0.16100  1.0000
  S   S5        1.0  0.50600  0.21000  0.22200  1.0000
  S   S6        1.0  0.89900  0.47500  0.27400  1.0000
  S   S7        1.0  0.29300  0.74700  0.33400  1.0000
  S   S8        1.0  0.69800  0.97900  0.37500  1.0000
  S   S9        1.0  0.11000  0.23200  0.45300  1.0000
  S   S10       1.0  0.50000  0.50000  0.50000  1.0000
  S   S11       1.0  0.89000  0.76800  0.54700  1.0000
  S   S12       1.0  0.30200  0.02140  0.62500  1.0000
  S   S13       1.0  0.70700  0.25300  0.66600  1.0000
  S   S14       1.0  0.10100  0.52500  0.72600  1.0000
  S   S15       1.0  0.49400  0.79000  0.77800  1.0000
  S   S16       1.0  0.91300  0.01350  0.83900  1.0000
  S   S17       1.0  0.78600  0.31100  0.88400  1.0000
  S   S18       1.0  0.67100  0.59000  0.93300  1.0000
  S   S19       1.0  0.43000  0.13400  0.99400  1.0000
