data_image0
_chemical_formula_structural       Li8O11Th4
_chemical_formula_sum              "Li8 O11 Th4"
_cell_length_a       12.6909
_cell_length_b       5.6162
_cell_length_c       5.16694
_cell_angle_alpha    105.006
_cell_angle_beta     102.586
_cell_angle_gamma    116.472

_space_group_name_H-M_alt    "P 1"
_space_group_IT_number       1

loop_
  _space_group_symop_operation_xyz
  'x, y, z'

loop_
  _atom_site_type_symbol
  _atom_site_label
  _atom_site_symmetry_multiplicity
  _atom_site_fract_x
  _atom_site_fract_y
  _atom_site_fract_z
  _atom_site_occupancy
  Li  Li1       1.0  0.27000  0.51600  0.03060  1.0000
  Li  Li2       1.0  0.91600  0.90800  0.45400  1.0000
  Li  Li3       1.0  0.72000  0.71700  0.48300  1.0000
  Li  Li4       1.0  0.25000  0.72400  0.48500  1.0000
  Li  Li5       1.0  0.59300  0.07670  0.51600  1.0000
  Li  Li6       1.0  0.24600  0.25900  0.51700  1.0000
  Li  Li7       1.0  0.80100  0.34100  0.56100  1.0000
  Li  Li8       1.0  0.70500  0.44300  0.99200  1.0000
  O   O1        1.0  0.76300  0.85100  0.18300  1.0000
  O   O2        1.0  0.25300  0.88300  0.21100  1.0000
  O   O3        1.0  0.13300  0.29100  0.21300  1.0000
  O   O4        1.0  0.63600  0.24500  0.24500  1.0000
  O   O5        1.0  0.00636  0.71600  0.33200  1.0000
  O   O6        1.0  0.97300  0.33600  0.66400  1.0000
  O   O7        1.0  0.52900  0.31600  0.68000  1.0000
  O   O8        1.0  0.87900  0.78300  0.74800  1.0000
  O   O9        1.0  0.37000  0.72300  0.79300  1.0000
  O   O10       1.0  0.73400  0.13400  0.79900  1.0000
  O   O11       1.0  0.26600  0.15300  0.83000  1.0000
  Th  Th1       1.0  0.92900  0.22700  0.10200  1.0000
  Th  Th2       1.0  0.42800  0.16700  0.14700  1.0000
  Th  Th3       1.0  0.08130  0.83900  0.87500  1.0000
  Th  Th4       1.0  0.57200  0.77800  0.89700  1.0000
