data_image0
_chemical_formula_structural       CdFe2O24P6Sb2
_chemical_formula_sum              "Cd1 Fe2 O24 P6 Sb2"
_cell_length_a       8.23916
_cell_length_b       8.23916
_cell_length_c       8.74841
_cell_angle_alpha    118.092
_cell_angle_beta     61.9076
_cell_angle_gamma    120

_space_group_name_H-M_alt    "P 1"
_space_group_IT_number       1

loop_
  _space_group_symop_operation_xyz
  'x, y, z'

loop_
  _atom_site_type_symbol
  _atom_site_label
  _atom_site_symmetry_multiplicity
  _atom_site_fract_x
  _atom_site_fract_y
  _atom_site_fract_z
  _atom_site_occupancy
  Cd  Cd1       1.0  0.00000  0.00000  0.00000  1.0000
  Fe  Fe1       1.0  0.85400  0.14600  0.43800  1.0000
  Fe  Fe2       1.0  0.14600  0.85400  0.56200  1.0000
  O   O1        1.0  0.16200  0.46900  0.09210  1.0000
  O   O2        1.0  0.53100  0.78600  0.09210  1.0000
  O   O3        1.0  0.21400  0.83800  0.09210  1.0000
  O   O4        1.0  0.46700  0.17800  0.21000  1.0000
  O   O5        1.0  0.82200  0.49900  0.21000  1.0000
  O   O6        1.0  0.50100  0.53300  0.21000  1.0000
  O   O7        1.0  0.11900  0.12500  0.24800  1.0000
  O   O8        1.0  0.87500  0.24300  0.24800  1.0000
  O   O9        1.0  0.75700  0.88100  0.24800  1.0000
  O   O10       1.0  0.19100  0.00999  0.42800  1.0000
  O   O11       1.0  0.99000  0.60900  0.42800  1.0000
  O   O12       1.0  0.39100  0.80900  0.42800  1.0000
  O   O13       1.0  0.60900  0.19100  0.57200  1.0000
  O   O14       1.0  0.00999  0.39100  0.57200  1.0000
  O   O15       1.0  0.80900  0.99000  0.57200  1.0000
  O   O16       1.0  0.24300  0.11900  0.75200  1.0000
  O   O17       1.0  0.12500  0.75700  0.75200  1.0000
  O   O18       1.0  0.88100  0.87500  0.75200  1.0000
  O   O19       1.0  0.49900  0.46700  0.79000  1.0000
  O   O20       1.0  0.17800  0.50100  0.79000  1.0000
  O   O21       1.0  0.53300  0.82200  0.79000  1.0000
  O   O22       1.0  0.78600  0.16200  0.90800  1.0000
  O   O23       1.0  0.46900  0.21400  0.90800  1.0000
  O   O24       1.0  0.83800  0.53100  0.90800  1.0000
  P   P1        1.0  0.24600  0.03910  0.25000  1.0000
  P   P2        1.0  0.96100  0.45700  0.25000  1.0000
  P   P3        1.0  0.54300  0.75400  0.25000  1.0000
  P   P4        1.0  0.45700  0.24600  0.75000  1.0000
  P   P5        1.0  0.03910  0.54300  0.75000  1.0000
  P   P6        1.0  0.75400  0.96100  0.75000  1.0000
  Sb  Sb1       1.0  0.64700  0.35300  0.05780  1.0000
  Sb  Sb2       1.0  0.35300  0.64700  0.94200  1.0000
