data_image0
_chemical_formula_structural       Ag2O6Ta2
_chemical_formula_sum              "Ag2 O6 Ta2"
_cell_length_a       5.52589
_cell_length_b       5.52589
_cell_length_c       5.59803
_cell_angle_alpha    60.4254
_cell_angle_beta     119.575
_cell_angle_gamma    120

_space_group_name_H-M_alt    "P 1"
_space_group_IT_number       1

loop_
  _space_group_symop_operation_xyz
  'x, y, z'

loop_
  _atom_site_type_symbol
  _atom_site_label
  _atom_site_symmetry_multiplicity
  _atom_site_fract_x
  _atom_site_fract_y
  _atom_site_fract_z
  _atom_site_occupancy
  Ag  Ag1       1.0  0.75000  0.25000  0.25000  1.0000
  Ag  Ag2       1.0  0.25000  0.75000  0.75000  1.0000
  O   O1        1.0  0.31300  0.25000  0.25000  1.0000
  O   O2        1.0  0.18700  0.68700  0.25000  1.0000
  O   O3        1.0  0.75000  0.81300  0.25000  1.0000
  O   O4        1.0  0.25000  0.18700  0.75000  1.0000
  O   O5        1.0  0.81300  0.31300  0.75000  1.0000
  O   O6        1.0  0.68700  0.75000  0.75000  1.0000
  Ta  Ta1       1.0  0.00000  0.00000  0.00000  1.0000
  Ta  Ta2       1.0  0.50000  0.50000  0.50000  1.0000
