data_image0
_chemical_formula_structural       Co6O16U4
_chemical_formula_sum              "Co6 O16 U4"
_cell_length_a       5.13243
_cell_length_b       10.2586
_cell_length_c       6.03586
_cell_angle_alpha    90
_cell_angle_beta     90
_cell_angle_gamma    90

_space_group_name_H-M_alt    "P 1"
_space_group_IT_number       1

loop_
  _space_group_symop_operation_xyz
  'x, y, z'

loop_
  _atom_site_type_symbol
  _atom_site_label
  _atom_site_symmetry_multiplicity
  _atom_site_fract_x
  _atom_site_fract_y
  _atom_site_fract_z
  _atom_site_occupancy
  Co  Co1       1.0  0.00000  0.00000  0.25800  1.0000
  Co  Co2       1.0  0.50000  0.50000  0.24200  1.0000
  Co  Co3       1.0  0.00000  0.00000  0.74200  1.0000
  Co  Co4       1.0  0.50000  0.50000  0.75800  1.0000
  Co  Co5       1.0  0.00000  0.50000  0.50000  1.0000
  Co  Co6       1.0  0.50000  0.00000  0.00000  1.0000
  O   O1        1.0  0.18600  0.10000  0.00000  1.0000
  O   O2        1.0  0.81400  0.90000  0.00000  1.0000
  O   O3        1.0  0.68600  0.40000  0.50000  1.0000
  O   O4        1.0  0.31400  0.60000  0.50000  1.0000
  O   O5        1.0  0.30700  0.58600  0.00000  1.0000
  O   O6        1.0  0.69300  0.41400  0.00000  1.0000
  O   O7        1.0  0.80700  0.91400  0.50000  1.0000
  O   O8        1.0  0.19300  0.08640  0.50000  1.0000
  O   O9        1.0  0.20100  0.35400  0.27000  1.0000
  O   O10       1.0  0.79900  0.64600  0.27000  1.0000
  O   O11       1.0  0.70100  0.14600  0.23000  1.0000
  O   O12       1.0  0.29900  0.85400  0.23000  1.0000
  O   O13       1.0  0.79900  0.64600  0.73000  1.0000
  O   O14       1.0  0.20100  0.35400  0.73000  1.0000
  O   O15       1.0  0.29900  0.85400  0.77000  1.0000
  O   O16       1.0  0.70100  0.14600  0.77000  1.0000
  U   U1        1.0  0.95600  0.26900  0.00000  1.0000
  U   U2        1.0  0.04370  0.73100  0.00000  1.0000
  U   U3        1.0  0.45600  0.23100  0.50000  1.0000
  U   U4        1.0  0.54400  0.76900  0.50000  1.0000
