data_image0
_chemical_formula_structural       Mn4Nb8O24
_chemical_formula_sum              "Mn4 Nb8 O24"
_cell_length_a       14.4715
_cell_length_b       5.78423
_cell_length_c       5.08879
_cell_angle_alpha    90
_cell_angle_beta     90
_cell_angle_gamma    90

_space_group_name_H-M_alt    "P 1"
_space_group_IT_number       1

loop_
  _space_group_symop_operation_xyz
  'x, y, z'

loop_
  _atom_site_type_symbol
  _atom_site_label
  _atom_site_symmetry_multiplicity
  _atom_site_fract_x
  _atom_site_fract_y
  _atom_site_fract_z
  _atom_site_occupancy
  Mn  Mn1       1.0  0.00000  0.17700  0.25000  1.0000
  Mn  Mn2       1.0  0.50000  0.67700  0.25000  1.0000
  Mn  Mn3       1.0  0.50000  0.32300  0.75000  1.0000
  Mn  Mn4       1.0  0.00000  0.82300  0.75000  1.0000
  Nb  Nb1       1.0  0.66200  0.18400  0.24700  1.0000
  Nb  Nb2       1.0  0.83800  0.68400  0.24700  1.0000
  Nb  Nb3       1.0  0.33800  0.18400  0.25300  1.0000
  Nb  Nb4       1.0  0.16200  0.68400  0.25300  1.0000
  Nb  Nb5       1.0  0.83800  0.31600  0.74700  1.0000
  Nb  Nb6       1.0  0.66200  0.81600  0.74700  1.0000
  Nb  Nb7       1.0  0.16200  0.31600  0.75300  1.0000
  Nb  Nb8       1.0  0.33800  0.81600  0.75300  1.0000
  O   O1        1.0  0.90300  0.40000  0.06710  1.0000
  O   O2        1.0  0.59700  0.90000  0.06710  1.0000
  O   O3        1.0  0.24400  0.37600  0.08110  1.0000
  O   O4        1.0  0.25600  0.87600  0.08110  1.0000
  O   O5        1.0  0.58100  0.38800  0.09460  1.0000
  O   O6        1.0  0.91900  0.88800  0.09460  1.0000
  O   O7        1.0  0.41900  0.38800  0.40500  1.0000
  O   O8        1.0  0.08110  0.88800  0.40500  1.0000
  O   O9        1.0  0.75600  0.37600  0.41900  1.0000
  O   O10       1.0  0.74400  0.87600  0.41900  1.0000
  O   O11       1.0  0.09690  0.40000  0.43300  1.0000
  O   O12       1.0  0.40300  0.90000  0.43300  1.0000
  O   O13       1.0  0.59700  0.09980  0.56700  1.0000
  O   O14       1.0  0.90300  0.60000  0.56700  1.0000
  O   O15       1.0  0.25600  0.12400  0.58100  1.0000
  O   O16       1.0  0.24400  0.62400  0.58100  1.0000
  O   O17       1.0  0.91900  0.11200  0.59500  1.0000
  O   O18       1.0  0.58100  0.61200  0.59500  1.0000
  O   O19       1.0  0.08110  0.11200  0.90500  1.0000
  O   O20       1.0  0.41900  0.61200  0.90500  1.0000
  O   O21       1.0  0.74400  0.12400  0.91900  1.0000
  O   O22       1.0  0.75600  0.62400  0.91900  1.0000
  O   O23       1.0  0.40300  0.09980  0.93300  1.0000
  O   O24       1.0  0.09690  0.60000  0.93300  1.0000
