data_image0
_chemical_formula_structural       Li8O11Zn4
_chemical_formula_sum              "Li8 O11 Zn4"
_cell_length_a       10.1003
_cell_length_b       5.02285
_cell_length_c       5.0113
_cell_angle_alpha    100.091
_cell_angle_beta     98.6865
_cell_angle_gamma    119.916

_space_group_name_H-M_alt    "P 1"
_space_group_IT_number       1

loop_
  _space_group_symop_operation_xyz
  'x, y, z'

loop_
  _atom_site_type_symbol
  _atom_site_label
  _atom_site_symmetry_multiplicity
  _atom_site_fract_x
  _atom_site_fract_y
  _atom_site_fract_z
  _atom_site_occupancy
  Li  Li1       1.0  0.74800  0.49600  0.00245  1.0000
  Li  Li2       1.0  0.66300  0.65900  0.49000  1.0000
  Li  Li3       1.0  0.83200  0.32500  0.49800  1.0000
  Li  Li4       1.0  0.50300  0.00084  0.50300  1.0000
  Li  Li5       1.0  0.98500  0.96600  0.51400  1.0000
  Li  Li6       1.0  0.17400  0.71100  0.51700  1.0000
  Li  Li7       1.0  0.35300  0.35900  0.51700  1.0000
  Li  Li8       1.0  0.25900  0.52200  0.97200  1.0000
  O   O1        1.0  0.45800  0.58300  0.23100  1.0000
  O   O2        1.0  0.28200  0.94200  0.24000  1.0000
  O   O3        1.0  0.61700  0.22900  0.24400  1.0000
  O   O4        1.0  0.97500  0.57500  0.24700  1.0000
  O   O5        1.0  0.80500  0.93300  0.25000  1.0000
  O   O6        1.0  0.37000  0.76400  0.73200  1.0000
  O   O7        1.0  0.70000  0.06250  0.75100  1.0000
  O   O8        1.0  0.03970  0.38700  0.75600  1.0000
  O   O9        1.0  0.54200  0.43100  0.76600  1.0000
  O   O10       1.0  0.20200  0.08920  0.77100  1.0000
  O   O11       1.0  0.88800  0.75800  0.78300  1.0000
  Zn  Zn1       1.0  0.58500  0.83800  0.00212  1.0000
  Zn  Zn2       1.0  0.90700  0.15500  0.98600  1.0000
  Zn  Zn3       1.0  0.08110  0.81200  0.98800  1.0000
  Zn  Zn4       1.0  0.41600  0.16700  0.99700  1.0000
