data_image0
_chemical_formula_structural       Li8Mn2O11Pt2
_chemical_formula_sum              "Li8 Mn2 O11 Pt2"
_cell_length_a       10.0545
_cell_length_b       5.03015
_cell_length_c       5.03605
_cell_angle_alpha    99.5151
_cell_angle_beta     99.789
_cell_angle_gamma    119.514

_space_group_name_H-M_alt    "P 1"
_space_group_IT_number       1

loop_
  _space_group_symop_operation_xyz
  'x, y, z'

loop_
  _atom_site_type_symbol
  _atom_site_label
  _atom_site_symmetry_multiplicity
  _atom_site_fract_x
  _atom_site_fract_y
  _atom_site_fract_z
  _atom_site_occupancy
  Li  Li1       1.0  0.75000  0.49200  0.00066  1.0000
  Li  Li2       1.0  0.49900  0.99800  0.49900  1.0000
  Li  Li3       1.0  0.98400  0.97800  0.49900  1.0000
  Li  Li4       1.0  0.83200  0.32900  0.50100  1.0000
  Li  Li5       1.0  0.67100  0.66600  0.50400  1.0000
  Li  Li6       1.0  0.16700  0.69200  0.51000  1.0000
  Li  Li7       1.0  0.34800  0.35300  0.51300  1.0000
  Li  Li8       1.0  0.25200  0.51200  0.97300  1.0000
  Mn  Mn1       1.0  0.58600  0.83800  0.00000  1.0000
  Mn  Mn2       1.0  0.07720  0.82200  0.99100  1.0000
  O   O1        1.0  0.46200  0.59100  0.23100  1.0000
  O   O2        1.0  0.78400  0.91700  0.23600  1.0000
  O   O3        1.0  0.61800  0.22300  0.23600  1.0000
  O   O4        1.0  0.96900  0.59100  0.23600  1.0000
  O   O5        1.0  0.27900  0.93400  0.24000  1.0000
  O   O6        1.0  0.04300  0.41300  0.75300  1.0000
  O   O7        1.0  0.38600  0.76300  0.75900  1.0000
  O   O8        1.0  0.88400  0.74900  0.76300  1.0000
  O   O9        1.0  0.69700  0.06170  0.76600  1.0000
  O   O10       1.0  0.54300  0.43800  0.77000  1.0000
  O   O11       1.0  0.20300  0.08330  0.77300  1.0000
  Pt  Pt1       1.0  0.41500  0.16900  0.00062  1.0000
  Pt  Pt2       1.0  0.93000  0.16300  0.00918  1.0000
