data_image0
_chemical_formula_structural       B2Ir6Sn5
_chemical_formula_sum              "B2 Ir6 Sn5"
_cell_length_a       6.7056
_cell_length_b       6.7056
_cell_length_c       5.63696
_cell_angle_alpha    90
_cell_angle_beta     90
_cell_angle_gamma    120

_space_group_name_H-M_alt    "P 1"
_space_group_IT_number       1

loop_
  _space_group_symop_operation_xyz
  'x, y, z'

loop_
  _atom_site_type_symbol
  _atom_site_label
  _atom_site_symmetry_multiplicity
  _atom_site_fract_x
  _atom_site_fract_y
  _atom_site_fract_z
  _atom_site_occupancy
  B   B1        1.0  0.00000  0.00000  0.00000  1.0000
  B   B2        1.0  0.00000  0.00000  0.50000  1.0000
  Ir  Ir1       1.0  0.74700  0.74700  0.25400  1.0000
  Ir  Ir2       1.0  0.25300  0.00000  0.25400  1.0000
  Ir  Ir3       1.0  0.00000  0.25300  0.25400  1.0000
  Ir  Ir4       1.0  0.25300  0.00000  0.74600  1.0000
  Ir  Ir5       1.0  0.00000  0.25300  0.74600  1.0000
  Ir  Ir6       1.0  0.74700  0.74700  0.74600  1.0000
  Sn  Sn1       1.0  0.59600  0.00000  0.00000  1.0000
  Sn  Sn2       1.0  0.40400  0.40400  0.00000  1.0000
  Sn  Sn3       1.0  0.00000  0.59600  0.00000  1.0000
  Sn  Sn4       1.0  0.66700  0.33300  0.50000  1.0000
  Sn  Sn5       1.0  0.33300  0.66700  0.50000  1.0000
