data_image0
_chemical_formula_structural       Ba4O24P8
_chemical_formula_sum              "Ba4 O24 P8"
_cell_length_a       9.64525
_cell_length_b       6.89072
_cell_length_c       7.45988
_cell_angle_alpha    90
_cell_angle_beta     94.6917
_cell_angle_gamma    90

_space_group_name_H-M_alt    "P 1"
_space_group_IT_number       1

loop_
  _space_group_symop_operation_xyz
  'x, y, z'

loop_
  _atom_site_type_symbol
  _atom_site_label
  _atom_site_symmetry_multiplicity
  _atom_site_fract_x
  _atom_site_fract_y
  _atom_site_fract_z
  _atom_site_occupancy
  Ba  Ba1       1.0  0.82300  0.09520  0.14100  1.0000
  Ba  Ba2       1.0  0.67700  0.59500  0.35900  1.0000
  Ba  Ba3       1.0  0.32300  0.40500  0.64100  1.0000
  Ba  Ba4       1.0  0.17700  0.90500  0.85900  1.0000
  O   O1        1.0  0.81700  0.46900  0.03080  1.0000
  O   O2        1.0  0.62800  0.81400  0.06660  1.0000
  O   O3        1.0  0.08750  0.20500  0.08440  1.0000
  O   O4        1.0  0.56900  0.27800  0.17500  1.0000
  O   O5        1.0  0.40100  0.99600  0.21400  1.0000
  O   O6        1.0  0.31600  0.34300  0.22500  1.0000
  O   O7        1.0  0.18400  0.84300  0.27500  1.0000
  O   O8        1.0  0.09870  0.49600  0.28600  1.0000
  O   O9        1.0  0.93100  0.77800  0.32500  1.0000
  O   O10       1.0  0.41300  0.70500  0.41600  1.0000
  O   O11       1.0  0.87200  0.31400  0.43300  1.0000
  O   O12       1.0  0.68300  0.96900  0.46900  1.0000
  O   O13       1.0  0.31700  0.03090  0.53100  1.0000
  O   O14       1.0  0.12800  0.68600  0.56700  1.0000
  O   O15       1.0  0.58700  0.29500  0.58400  1.0000
  O   O16       1.0  0.06860  0.22200  0.67500  1.0000
  O   O17       1.0  0.90100  0.50400  0.71400  1.0000
  O   O18       1.0  0.81600  0.15700  0.72500  1.0000
  O   O19       1.0  0.68400  0.65700  0.77500  1.0000
  O   O20       1.0  0.59900  0.00414  0.78600  1.0000
  O   O21       1.0  0.43100  0.72200  0.82500  1.0000
  O   O22       1.0  0.91300  0.79500  0.91600  1.0000
  O   O23       1.0  0.37200  0.18600  0.93300  1.0000
  O   O24       1.0  0.18300  0.53100  0.96900  1.0000
  P   P1        1.0  0.16300  0.39300  0.11900  1.0000
  P   P2        1.0  0.42400  0.20600  0.12700  1.0000
  P   P3        1.0  0.07560  0.70600  0.37300  1.0000
  P   P4        1.0  0.33700  0.89300  0.38100  1.0000
  P   P5        1.0  0.66300  0.10700  0.61900  1.0000
  P   P6        1.0  0.92400  0.29400  0.62700  1.0000
  P   P7        1.0  0.57600  0.79400  0.87300  1.0000
  P   P8        1.0  0.83700  0.60700  0.88100  1.0000
