data_image0
_chemical_formula_structural       B2Rh6Sn5
_chemical_formula_sum              "B2 Rh6 Sn5"
_cell_length_a       6.66582
_cell_length_b       6.66582
_cell_length_c       5.6184
_cell_angle_alpha    90
_cell_angle_beta     90
_cell_angle_gamma    120.005

_space_group_name_H-M_alt    "P 1"
_space_group_IT_number       1

loop_
  _space_group_symop_operation_xyz
  'x, y, z'

loop_
  _atom_site_type_symbol
  _atom_site_label
  _atom_site_symmetry_multiplicity
  _atom_site_fract_x
  _atom_site_fract_y
  _atom_site_fract_z
  _atom_site_occupancy
  B   B1        1.0  0.00002  0.00002  0.00000  1.0000
  B   B2        1.0  0.00002  0.00002  0.50000  1.0000
  Rh  Rh1       1.0  0.74800  0.74800  0.25300  1.0000
  Rh  Rh2       1.0  0.25200  0.00001  0.25300  1.0000
  Rh  Rh3       1.0  0.00001  0.25200  0.25300  1.0000
  Rh  Rh4       1.0  0.25200  0.00001  0.74700  1.0000
  Rh  Rh5       1.0  0.00001  0.25200  0.74700  1.0000
  Rh  Rh6       1.0  0.74800  0.74800  0.74700  1.0000
  Sn  Sn1       1.0  0.59700  0.00001  0.00000  1.0000
  Sn  Sn2       1.0  0.40300  0.40300  0.00000  1.0000
  Sn  Sn3       1.0  0.00001  0.59700  0.00000  1.0000
  Sn  Sn4       1.0  0.66700  0.33300  0.50000  1.0000
  Sn  Sn5       1.0  0.33300  0.66700  0.50000  1.0000
