data_image0
_chemical_formula_structural       Li8O11Tc4
_chemical_formula_sum              "Li8 O11 Tc4"
_cell_length_a       10.1118
_cell_length_b       5.04155
_cell_length_c       5.12016
_cell_angle_alpha    99.628
_cell_angle_beta     99.9605
_cell_angle_gamma    118.398

_space_group_name_H-M_alt    "P 1"
_space_group_IT_number       1

loop_
  _space_group_symop_operation_xyz
  'x, y, z'

loop_
  _atom_site_type_symbol
  _atom_site_label
  _atom_site_symmetry_multiplicity
  _atom_site_fract_x
  _atom_site_fract_y
  _atom_site_fract_z
  _atom_site_occupancy
  Li  Li1       1.0  0.66900  0.65800  0.49600  1.0000
  Li  Li2       1.0  0.98700  0.97700  0.49900  1.0000
  Li  Li3       1.0  0.50500  0.00345  0.50400  1.0000
  Li  Li4       1.0  0.83200  0.32100  0.50800  1.0000
  Li  Li5       1.0  0.34400  0.36300  0.50900  1.0000
  Li  Li6       1.0  0.16900  0.68700  0.52000  1.0000
  Li  Li7       1.0  0.25300  0.51900  0.97900  1.0000
  Li  Li8       1.0  0.74800  0.47900  0.99300  1.0000
  O   O1        1.0  0.97100  0.56500  0.23100  1.0000
  O   O2        1.0  0.79600  0.92300  0.23400  1.0000
  O   O3        1.0  0.45900  0.58700  0.23600  1.0000
  O   O4        1.0  0.61400  0.23300  0.23600  1.0000
  O   O5        1.0  0.27900  0.94900  0.24000  1.0000
  O   O6        1.0  0.86900  0.73100  0.73800  1.0000
  O   O7        1.0  0.38200  0.77000  0.75600  1.0000
  O   O8        1.0  0.71100  0.06680  0.76000  1.0000
  O   O9        1.0  0.53600  0.41400  0.76200  1.0000
  O   O10       1.0  0.03930  0.40200  0.76500  1.0000
  O   O11       1.0  0.20200  0.08010  0.76800  1.0000
  Tc  Tc1       1.0  0.41200  0.17100  0.00231  1.0000
  Tc  Tc2       1.0  0.94300  0.15100  0.00856  1.0000
  Tc  Tc3       1.0  0.07200  0.87300  0.01700  1.0000
  Tc  Tc4       1.0  0.59100  0.84000  0.99600  1.0000
