data_image0
_chemical_formula_structural       As4Li4Mo4O24
_chemical_formula_sum              "As4 Li4 Mo4 O24"
_cell_length_a       9.36012
_cell_length_b       8.86237
_cell_length_c       4.89878
_cell_angle_alpha    90
_cell_angle_beta     90
_cell_angle_gamma    90

_space_group_name_H-M_alt    "P 1"
_space_group_IT_number       1

loop_
  _space_group_symop_operation_xyz
  'x, y, z'

loop_
  _atom_site_type_symbol
  _atom_site_label
  _atom_site_symmetry_multiplicity
  _atom_site_fract_x
  _atom_site_fract_y
  _atom_site_fract_z
  _atom_site_occupancy
  As  As1       1.0  0.55100  0.67900  0.09650  1.0000
  As  As2       1.0  0.05120  0.67900  0.40400  1.0000
  As  As3       1.0  0.94900  0.17900  0.59600  1.0000
  As  As4       1.0  0.44900  0.17900  0.90400  1.0000
  Li  Li1       1.0  0.12300  0.35100  0.10200  1.0000
  Li  Li2       1.0  0.62300  0.35100  0.39800  1.0000
  Li  Li3       1.0  0.37700  0.85100  0.60200  1.0000
  Li  Li4       1.0  0.87700  0.85100  0.89800  1.0000
  Mo  Mo1       1.0  0.16100  0.99800  0.10900  1.0000
  Mo  Mo2       1.0  0.66100  0.99800  0.39100  1.0000
  Mo  Mo3       1.0  0.33900  0.49800  0.60900  1.0000
  Mo  Mo4       1.0  0.83900  0.49800  0.89100  1.0000
  O   O1        1.0  0.73700  0.67500  0.06230  1.0000
  O   O2        1.0  0.74700  0.36500  0.07680  1.0000
  O   O3        1.0  0.75500  0.00085  0.08940  1.0000
  O   O4        1.0  0.99400  0.53000  0.21300  1.0000
  O   O5        1.0  0.51900  0.17400  0.22300  1.0000
  O   O6        1.0  0.01060  0.84700  0.23900  1.0000
  O   O7        1.0  0.51100  0.84700  0.26100  1.0000
  O   O8        1.0  0.01880  0.17400  0.27700  1.0000
  O   O9        1.0  0.49400  0.53000  0.28700  1.0000
  O   O10       1.0  0.25500  0.00085  0.41100  1.0000
  O   O11       1.0  0.24700  0.36500  0.42300  1.0000
  O   O12       1.0  0.23700  0.67500  0.43800  1.0000
  O   O13       1.0  0.76300  0.17500  0.56200  1.0000
  O   O14       1.0  0.75300  0.86500  0.57700  1.0000
  O   O15       1.0  0.74500  0.50100  0.58900  1.0000
  O   O16       1.0  0.50600  0.03040  0.71300  1.0000
  O   O17       1.0  0.98100  0.67400  0.72300  1.0000
  O   O18       1.0  0.48900  0.34700  0.73900  1.0000
  O   O19       1.0  0.98900  0.34700  0.76100  1.0000
  O   O20       1.0  0.48100  0.67400  0.77700  1.0000
  O   O21       1.0  0.00585  0.03040  0.78700  1.0000
  O   O22       1.0  0.24500  0.50100  0.91100  1.0000
  O   O23       1.0  0.25300  0.86500  0.92300  1.0000
  O   O24       1.0  0.26300  0.17500  0.93800  1.0000
