data_image0
_chemical_formula_structural       Li8Mn2O11Ru2
_chemical_formula_sum              "Li8 Mn2 O11 Ru2"
_cell_length_a       10.13
_cell_length_b       5.00153
_cell_length_c       5.03089
_cell_angle_alpha    99.611
_cell_angle_beta     100.073
_cell_angle_gamma    120.193

_space_group_name_H-M_alt    "P 1"
_space_group_IT_number       1

loop_
  _space_group_symop_operation_xyz
  'x, y, z'

loop_
  _atom_site_type_symbol
  _atom_site_label
  _atom_site_symmetry_multiplicity
  _atom_site_fract_x
  _atom_site_fract_y
  _atom_site_fract_z
  _atom_site_occupancy
  Li  Li1       1.0  0.75200  0.49700  0.00248  1.0000
  Li  Li2       1.0  0.99600  0.99500  0.49500  1.0000
  Li  Li3       1.0  0.82900  0.32800  0.49700  1.0000
  Li  Li4       1.0  0.68500  0.65500  0.50200  1.0000
  Li  Li5       1.0  0.17100  0.66400  0.50200  1.0000
  Li  Li6       1.0  0.31300  0.31000  0.51900  1.0000
  Li  Li7       1.0  0.50800  0.03740  0.52400  1.0000
  Li  Li8       1.0  0.23700  0.50000  0.97900  1.0000
  Mn  Mn1       1.0  0.58200  0.82000  0.99700  1.0000
  Mn  Mn2       1.0  0.08280  0.83700  0.99900  1.0000
  O   O1        1.0  0.78200  0.91000  0.23100  1.0000
  O   O2        1.0  0.96800  0.59400  0.23200  1.0000
  O   O3        1.0  0.11800  0.23300  0.23500  1.0000
  O   O4        1.0  0.28700  0.93200  0.23600  1.0000
  O   O5        1.0  0.61400  0.20900  0.24100  1.0000
  O   O6        1.0  0.71400  0.07430  0.75000  1.0000
  O   O7        1.0  0.53700  0.42500  0.75900  1.0000
  O   O8        1.0  0.03990  0.43900  0.76300  1.0000
  O   O9        1.0  0.38900  0.75900  0.76400  1.0000
  O   O10       1.0  0.88800  0.76300  0.76500  1.0000
  O   O11       1.0  0.20700  0.08410  0.77700  1.0000
  Ru  Ru1       1.0  0.41900  0.17700  0.00360  1.0000
  Ru  Ru2       1.0  0.91500  0.16900  0.99600  1.0000
