data_image0
_chemical_formula_structural       Li8Mn2O11Pd2
_chemical_formula_sum              "Li8 Mn2 O11 Pd2"
_cell_length_a       10.0898
_cell_length_b       5.02126
_cell_length_c       5.02713
_cell_angle_alpha    99.5717
_cell_angle_beta     99.8129
_cell_angle_gamma    120.281

_space_group_name_H-M_alt    "P 1"
_space_group_IT_number       1

loop_
  _space_group_symop_operation_xyz
  'x, y, z'

loop_
  _atom_site_type_symbol
  _atom_site_label
  _atom_site_symmetry_multiplicity
  _atom_site_fract_x
  _atom_site_fract_y
  _atom_site_fract_z
  _atom_site_occupancy
  Li  Li1       1.0  0.75100  0.49800  0.00271  1.0000
  Li  Li2       1.0  0.83000  0.33000  0.49400  1.0000
  Li  Li3       1.0  0.99800  0.00026  0.49800  1.0000
  Li  Li4       1.0  0.17500  0.66600  0.50400  1.0000
  Li  Li5       1.0  0.68600  0.65600  0.50700  1.0000
  Li  Li6       1.0  0.50000  0.03610  0.52000  1.0000
  Li  Li7       1.0  0.31700  0.30500  0.52000  1.0000
  Li  Li8       1.0  0.24000  0.50000  0.97800  1.0000
  Mn  Mn1       1.0  0.08480  0.83800  0.00255  1.0000
  Mn  Mn2       1.0  0.58200  0.82900  0.98200  1.0000
  O   O1        1.0  0.77900  0.91300  0.23200  1.0000
  O   O2        1.0  0.96700  0.59300  0.23200  1.0000
  O   O3        1.0  0.11900  0.22800  0.23700  1.0000
  O   O4        1.0  0.61400  0.21100  0.23900  1.0000
  O   O5        1.0  0.28300  0.92600  0.23900  1.0000
  O   O6        1.0  0.38700  0.73400  0.74900  1.0000
  O   O7        1.0  0.70800  0.06930  0.75000  1.0000
  O   O8        1.0  0.54200  0.43600  0.76300  1.0000
  O   O9        1.0  0.89000  0.76400  0.76500  1.0000
  O   O10       1.0  0.03930  0.44000  0.76500  1.0000
  O   O11       1.0  0.20500  0.07720  0.77600  1.0000
  Pd  Pd1       1.0  0.42000  0.19100  0.01230  1.0000
  Pd  Pd2       1.0  0.91600  0.16700  0.99800  1.0000
