data_image0
_chemical_formula_structural       Li8Mn2Ni2O11
_chemical_formula_sum              "Li8 Mn2 Ni2 O11"
_cell_length_a       9.8099
_cell_length_b       4.92234
_cell_length_c       4.96783
_cell_angle_alpha    100.086
_cell_angle_beta     99.4604
_cell_angle_gamma    120.088

_space_group_name_H-M_alt    "P 1"
_space_group_IT_number       1

loop_
  _space_group_symop_operation_xyz
  'x, y, z'

loop_
  _atom_site_type_symbol
  _atom_site_label
  _atom_site_symmetry_multiplicity
  _atom_site_fract_x
  _atom_site_fract_y
  _atom_site_fract_z
  _atom_site_occupancy
  Li  Li1       1.0  0.99000  0.99300  0.49500  1.0000
  Li  Li2       1.0  0.83200  0.34300  0.49700  1.0000
  Li  Li3       1.0  0.66600  0.65600  0.50100  1.0000
  Li  Li4       1.0  0.33500  0.37400  0.50800  1.0000
  Li  Li5       1.0  0.15500  0.62500  0.52300  1.0000
  Li  Li6       1.0  0.52500  0.02870  0.52800  1.0000
  Li  Li7       1.0  0.24700  0.46100  0.98000  1.0000
  Li  Li8       1.0  0.75000  0.50800  0.99800  1.0000
  Mn  Mn1       1.0  0.58300  0.83000  0.99600  1.0000
  Mn  Mn2       1.0  0.07610  0.82600  0.99700  1.0000
  Ni  Ni1       1.0  0.91700  0.16700  0.00173  1.0000
  Ni  Ni2       1.0  0.42300  0.17300  0.98700  1.0000
  O   O1        1.0  0.46200  0.57200  0.22100  1.0000
  O   O2        1.0  0.79000  0.93600  0.22200  1.0000
  O   O3        1.0  0.60500  0.21600  0.23100  1.0000
  O   O4        1.0  0.11300  0.22700  0.23500  1.0000
  O   O5        1.0  0.97100  0.57400  0.23900  1.0000
  O   O6        1.0  0.53500  0.43400  0.74700  1.0000
  O   O7        1.0  0.87600  0.78200  0.75800  1.0000
  O   O8        1.0  0.38600  0.77700  0.76700  1.0000
  O   O9        1.0  0.21600  0.05530  0.77500  1.0000
  O   O10       1.0  0.71900  0.08640  0.78300  1.0000
  O   O11       1.0  0.03950  0.42000  0.78900  1.0000
