data_image0
_chemical_formula_structural       I8P16Se12
_chemical_formula_sum              "I8 P16 Se12"
_cell_length_a       10.2665
_cell_length_b       16.564
_cell_length_c       7.18069
_cell_angle_alpha    90
_cell_angle_beta     90
_cell_angle_gamma    90

_space_group_name_H-M_alt    "P 1"
_space_group_IT_number       1

loop_
  _space_group_symop_operation_xyz
  'x, y, z'

loop_
  _atom_site_type_symbol
  _atom_site_label
  _atom_site_symmetry_multiplicity
  _atom_site_fract_x
  _atom_site_fract_y
  _atom_site_fract_z
  _atom_site_occupancy
  I   I1        1.0  0.85500  0.03940  0.21900  1.0000
  I   I2        1.0  0.85500  0.46100  0.21900  1.0000
  I   I3        1.0  0.35500  0.03940  0.28100  1.0000
  I   I4        1.0  0.35500  0.46100  0.28100  1.0000
  I   I5        1.0  0.64500  0.53900  0.71900  1.0000
  I   I6        1.0  0.64500  0.96100  0.71900  1.0000
  I   I7        1.0  0.14500  0.53900  0.78100  1.0000
  I   I8        1.0  0.14500  0.96100  0.78100  1.0000
  P   P1        1.0  0.97600  0.14800  0.05120  1.0000
  P   P2        1.0  0.97600  0.35200  0.05120  1.0000
  P   P3        1.0  0.86700  0.25000  0.18300  1.0000
  P   P4        1.0  0.74900  0.75000  0.24400  1.0000
  P   P5        1.0  0.24900  0.75000  0.25600  1.0000
  P   P6        1.0  0.36700  0.25000  0.31700  1.0000
  P   P7        1.0  0.47600  0.14800  0.44900  1.0000
  P   P8        1.0  0.47600  0.35200  0.44900  1.0000
  P   P9        1.0  0.52400  0.64800  0.55100  1.0000
  P   P10       1.0  0.52400  0.85200  0.55100  1.0000
  P   P11       1.0  0.63300  0.75000  0.68300  1.0000
  P   P12       1.0  0.75100  0.25000  0.74400  1.0000
  P   P13       1.0  0.25100  0.25000  0.75600  1.0000
  P   P14       1.0  0.13300  0.75000  0.81700  1.0000
  P   P15       1.0  0.02410  0.64800  0.94900  1.0000
  P   P16       1.0  0.02410  0.85200  0.94900  1.0000
  Se  Se1       1.0  0.67000  0.25000  0.03760  1.0000
  Se  Se2       1.0  0.11000  0.64200  0.24500  1.0000
  Se  Se3       1.0  0.11000  0.85800  0.24500  1.0000
  Se  Se4       1.0  0.61000  0.64200  0.25500  1.0000
  Se  Se5       1.0  0.61000  0.85800  0.25500  1.0000
  Se  Se6       1.0  0.17000  0.25000  0.46200  1.0000
  Se  Se7       1.0  0.83000  0.75000  0.53800  1.0000
  Se  Se8       1.0  0.39000  0.14200  0.74500  1.0000
  Se  Se9       1.0  0.39000  0.35800  0.74500  1.0000
  Se  Se10      1.0  0.89000  0.14200  0.75500  1.0000
  Se  Se11      1.0  0.89000  0.35800  0.75500  1.0000
  Se  Se12      1.0  0.33000  0.75000  0.96200  1.0000
