data_image0
_chemical_formula_structural       Li8O11Y4
_chemical_formula_sum              "Li8 O11 Y4"
_cell_length_a       11.3975
_cell_length_b       5.60584
_cell_length_c       5.12398
_cell_angle_alpha    101.379
_cell_angle_beta     100.552
_cell_angle_gamma    119.248

_space_group_name_H-M_alt    "P 1"
_space_group_IT_number       1

loop_
  _space_group_symop_operation_xyz
  'x, y, z'

loop_
  _atom_site_type_symbol
  _atom_site_label
  _atom_site_symmetry_multiplicity
  _atom_site_fract_x
  _atom_site_fract_y
  _atom_site_fract_z
  _atom_site_occupancy
  Li  Li1       1.0  0.46400  0.96900  0.44500  1.0000
  Li  Li2       1.0  0.21700  0.76900  0.46500  1.0000
  Li  Li3       1.0  0.36100  0.38200  0.47400  1.0000
  Li  Li4       1.0  0.69200  0.64700  0.52400  1.0000
  Li  Li5       1.0  0.95300  0.93800  0.53800  1.0000
  Li  Li6       1.0  0.77400  0.29100  0.54300  1.0000
  Li  Li7       1.0  0.25200  0.47200  0.88400  1.0000
  Li  Li8       1.0  0.73900  0.50700  0.99800  1.0000
  O   O1        1.0  0.43000  0.58300  0.20000  1.0000
  O   O2        1.0  0.29100  0.97000  0.23000  1.0000
  O   O3        1.0  0.61500  0.24500  0.26900  1.0000
  O   O4        1.0  0.77900  0.90100  0.28700  1.0000
  O   O5        1.0  0.01330  0.64500  0.33600  1.0000
  O   O6        1.0  0.37200  0.75400  0.70200  1.0000
  O   O7        1.0  0.20700  0.06890  0.71500  1.0000
  O   O8        1.0  0.54500  0.43000  0.72900  1.0000
  O   O9        1.0  0.05270  0.34600  0.80500  1.0000
  O   O10       1.0  0.87700  0.74600  0.80500  1.0000
  O   O11       1.0  0.74000  0.14000  0.83300  1.0000
  Y   Y1        1.0  0.92000  0.16800  0.07720  1.0000
  Y   Y2        1.0  0.07730  0.75700  0.91700  1.0000
  Y   Y3        1.0  0.42100  0.18300  0.98800  1.0000
  Y   Y4        1.0  0.58300  0.84100  0.99400  1.0000
