data_image0
_chemical_formula_structural       Mn4O24Ta8
_chemical_formula_sum              "Mn4 O24 Ta8"
_cell_length_a       14.4274
_cell_length_b       5.77104
_cell_length_c       5.08927
_cell_angle_alpha    90
_cell_angle_beta     90
_cell_angle_gamma    90

_space_group_name_H-M_alt    "P 1"
_space_group_IT_number       1

loop_
  _space_group_symop_operation_xyz
  'x, y, z'

loop_
  _atom_site_type_symbol
  _atom_site_label
  _atom_site_symmetry_multiplicity
  _atom_site_fract_x
  _atom_site_fract_y
  _atom_site_fract_z
  _atom_site_occupancy
  Mn  Mn1       1.0  0.00000  0.17300  0.25000  1.0000
  Mn  Mn2       1.0  0.50000  0.67300  0.25000  1.0000
  Mn  Mn3       1.0  0.50000  0.32700  0.75000  1.0000
  Mn  Mn4       1.0  0.00000  0.82700  0.75000  1.0000
  O   O1        1.0  0.90200  0.40200  0.06620  1.0000
  O   O2        1.0  0.59800  0.90200  0.06620  1.0000
  O   O3        1.0  0.24400  0.37400  0.08250  1.0000
  O   O4        1.0  0.25600  0.87400  0.08250  1.0000
  O   O5        1.0  0.58200  0.38600  0.09740  1.0000
  O   O6        1.0  0.91800  0.88600  0.09740  1.0000
  O   O7        1.0  0.41800  0.38600  0.40300  1.0000
  O   O8        1.0  0.08210  0.88600  0.40300  1.0000
  O   O9        1.0  0.75600  0.37400  0.41700  1.0000
  O   O10       1.0  0.74400  0.87400  0.41700  1.0000
  O   O11       1.0  0.09800  0.40200  0.43400  1.0000
  O   O12       1.0  0.40200  0.90200  0.43400  1.0000
  O   O13       1.0  0.59800  0.09850  0.56600  1.0000
  O   O14       1.0  0.90200  0.59800  0.56600  1.0000
  O   O15       1.0  0.25600  0.12600  0.58300  1.0000
  O   O16       1.0  0.24400  0.62600  0.58300  1.0000
  O   O17       1.0  0.91800  0.11400  0.59700  1.0000
  O   O18       1.0  0.58200  0.61400  0.59700  1.0000
  O   O19       1.0  0.08210  0.11400  0.90300  1.0000
  O   O20       1.0  0.41800  0.61400  0.90300  1.0000
  O   O21       1.0  0.74400  0.12600  0.91700  1.0000
  O   O22       1.0  0.75600  0.62600  0.91700  1.0000
  O   O23       1.0  0.40200  0.09850  0.93400  1.0000
  O   O24       1.0  0.09800  0.59800  0.93400  1.0000
  Ta  Ta1       1.0  0.66200  0.17800  0.24200  1.0000
  Ta  Ta2       1.0  0.83800  0.67800  0.24200  1.0000
  Ta  Ta3       1.0  0.33800  0.17800  0.25800  1.0000
  Ta  Ta4       1.0  0.16200  0.67800  0.25800  1.0000
  Ta  Ta5       1.0  0.83800  0.32200  0.74200  1.0000
  Ta  Ta6       1.0  0.66200  0.82200  0.74200  1.0000
  Ta  Ta7       1.0  0.16200  0.32200  0.75800  1.0000
  Ta  Ta8       1.0  0.33800  0.82200  0.75800  1.0000
