data_image0
_chemical_formula_structural       Fe2MnO24P6Sb2
_chemical_formula_sum              "Fe2 Mn1 O24 P6 Sb2"
_cell_length_a       8.33092
_cell_length_b       8.33092
_cell_length_c       8.64402
_cell_angle_alpha    118.809
_cell_angle_beta     61.1911
_cell_angle_gamma    120

_space_group_name_H-M_alt    "P 1"
_space_group_IT_number       1

loop_
  _space_group_symop_operation_xyz
  'x, y, z'

loop_
  _atom_site_type_symbol
  _atom_site_label
  _atom_site_symmetry_multiplicity
  _atom_site_fract_x
  _atom_site_fract_y
  _atom_site_fract_z
  _atom_site_occupancy
  Fe  Fe1       1.0  0.85500  0.14500  0.43500  1.0000
  Fe  Fe2       1.0  0.14500  0.85500  0.56500  1.0000
  Mn  Mn1       1.0  0.00000  0.00000  0.00000  1.0000
  O   O1        1.0  0.15700  0.46900  0.08130  1.0000
  O   O2        1.0  0.53100  0.77000  0.08130  1.0000
  O   O3        1.0  0.23000  0.84300  0.08130  1.0000
  O   O4        1.0  0.45700  0.18800  0.22700  1.0000
  O   O5        1.0  0.81200  0.49500  0.22700  1.0000
  O   O6        1.0  0.50500  0.54300  0.22700  1.0000
  O   O7        1.0  0.11500  0.11300  0.23900  1.0000
  O   O8        1.0  0.88700  0.24100  0.23900  1.0000
  O   O9        1.0  0.75900  0.88500  0.23900  1.0000
  O   O10       1.0  0.18200  0.00330  0.42800  1.0000
  O   O11       1.0  0.99700  0.60700  0.42800  1.0000
  O   O12       1.0  0.39300  0.81800  0.42800  1.0000
  O   O13       1.0  0.60700  0.18200  0.57200  1.0000
  O   O14       1.0  0.00330  0.39300  0.57200  1.0000
  O   O15       1.0  0.81800  0.99700  0.57200  1.0000
  O   O16       1.0  0.24100  0.11500  0.76100  1.0000
  O   O17       1.0  0.11300  0.75900  0.76100  1.0000
  O   O18       1.0  0.88500  0.88700  0.76100  1.0000
  O   O19       1.0  0.49500  0.45700  0.77300  1.0000
  O   O20       1.0  0.18800  0.50500  0.77300  1.0000
  O   O21       1.0  0.54300  0.81200  0.77300  1.0000
  O   O22       1.0  0.77000  0.15700  0.91900  1.0000
  O   O23       1.0  0.46900  0.23000  0.91900  1.0000
  O   O24       1.0  0.84300  0.53100  0.91900  1.0000
  P   P1        1.0  0.24300  0.03770  0.24900  1.0000
  P   P2        1.0  0.96200  0.45500  0.24900  1.0000
  P   P3        1.0  0.54500  0.75700  0.24900  1.0000
  P   P4        1.0  0.45500  0.24300  0.75100  1.0000
  P   P5        1.0  0.03770  0.54500  0.75100  1.0000
  P   P6        1.0  0.75700  0.96200  0.75100  1.0000
  Sb  Sb1       1.0  0.64400  0.35600  0.06900  1.0000
  Sb  Sb2       1.0  0.35600  0.64400  0.93100  1.0000
