data_image0
_chemical_formula_structural       Ce2Ga10Ni
_chemical_formula_sum              "Ce2 Ga10 Ni1"
_cell_length_a       4.35164
_cell_length_b       4.35164
_cell_length_c       13.5068
_cell_angle_alpha    99.2702
_cell_angle_beta     99.2702
_cell_angle_gamma    90

_space_group_name_H-M_alt    "P 1"
_space_group_IT_number       1

loop_
  _space_group_symop_operation_xyz
  'x, y, z'

loop_
  _atom_site_type_symbol
  _atom_site_label
  _atom_site_symmetry_multiplicity
  _atom_site_fract_x
  _atom_site_fract_y
  _atom_site_fract_z
  _atom_site_occupancy
  Ce  Ce1       1.0  0.64400  0.64400  0.28800  1.0000
  Ce  Ce2       1.0  0.35600  0.35600  0.71200  1.0000
  Ga  Ga1       1.0  0.54900  0.04860  0.09720  1.0000
  Ga  Ga2       1.0  0.04860  0.54900  0.09720  1.0000
  Ga  Ga3       1.0  0.10300  0.10300  0.20700  1.0000
  Ga  Ga4       1.0  0.19600  0.19600  0.39200  1.0000
  Ga  Ga5       1.0  0.75000  0.25000  0.50000  1.0000
  Ga  Ga6       1.0  0.25000  0.75000  0.50000  1.0000
  Ga  Ga7       1.0  0.80400  0.80400  0.60800  1.0000
  Ga  Ga8       1.0  0.89700  0.89700  0.79300  1.0000
  Ga  Ga9       1.0  0.95100  0.45100  0.90300  1.0000
  Ga  Ga10      1.0  0.45100  0.95100  0.90300  1.0000
  Ni  Ni1       1.0  0.50000  0.50000  0.00000  1.0000
