data_image0
_chemical_formula_structural       CaFe2O24P6Sb2
_chemical_formula_sum              "Ca1 Fe2 O24 P6 Sb2"
_cell_length_a       8.2039
_cell_length_b       8.2039
_cell_length_c       8.80058
_cell_angle_alpha    90
_cell_angle_beta     117.781
_cell_angle_gamma    120

_space_group_name_H-M_alt    "P 1"
_space_group_IT_number       1

loop_
  _space_group_symop_operation_xyz
  'x, y, z'

loop_
  _atom_site_type_symbol
  _atom_site_label
  _atom_site_symmetry_multiplicity
  _atom_site_fract_x
  _atom_site_fract_y
  _atom_site_fract_z
  _atom_site_occupancy
  Ca  Ca1       1.0  0.00000  0.00000  0.00000  1.0000
  Fe  Fe1       1.0  0.29200  0.14600  0.43800  1.0000
  Fe  Fe2       1.0  0.70800  0.85400  0.56200  1.0000
  O   O1        1.0  0.25400  0.46700  0.09330  1.0000
  O   O2        1.0  0.62600  0.78700  0.09330  1.0000
  O   O3        1.0  0.30600  0.83900  0.09330  1.0000
  O   O4        1.0  0.67700  0.17700  0.20800  1.0000
  O   O5        1.0  0.03120  0.50000  0.20800  1.0000
  O   O6        1.0  0.70800  0.53100  0.20800  1.0000
  O   O7        1.0  0.37100  0.12800  0.25100  1.0000
  O   O8        1.0  0.12400  0.24400  0.25100  1.0000
  O   O9        1.0  0.00772  0.88000  0.25100  1.0000
  O   O10       1.0  0.62000  0.01010  0.42700  1.0000
  O   O11       1.0  0.41700  0.61000  0.42700  1.0000
  O   O12       1.0  0.81600  0.80600  0.42700  1.0000
  O   O13       1.0  0.18400  0.19400  0.57300  1.0000
  O   O14       1.0  0.58300  0.39000  0.57300  1.0000
  O   O15       1.0  0.38000  0.99000  0.57300  1.0000
  O   O16       1.0  0.99200  0.12000  0.74900  1.0000
  O   O17       1.0  0.87600  0.75600  0.74900  1.0000
  O   O18       1.0  0.62900  0.87200  0.74900  1.0000
  O   O19       1.0  0.29200  0.46900  0.79200  1.0000
  O   O20       1.0  0.96900  0.50000  0.79200  1.0000
  O   O21       1.0  0.32300  0.82300  0.79200  1.0000
  O   O22       1.0  0.69400  0.16100  0.90700  1.0000
  O   O23       1.0  0.37400  0.21300  0.90700  1.0000
  O   O24       1.0  0.74600  0.53300  0.90700  1.0000
  P   P1        1.0  0.49800  0.04030  0.25100  1.0000
  P   P2        1.0  0.21100  0.45700  0.25100  1.0000
  P   P3        1.0  0.79400  0.75400  0.25100  1.0000
  P   P4        1.0  0.20600  0.24600  0.74900  1.0000
  P   P5        1.0  0.78900  0.54300  0.74900  1.0000
  P   P6        1.0  0.50200  0.96000  0.74900  1.0000
  Sb  Sb1       1.0  0.70400  0.35200  0.05530  1.0000
  Sb  Sb2       1.0  0.29600  0.64800  0.94500  1.0000
