data_image0
_chemical_formula_structural       Li8O11Zr4
_chemical_formula_sum              "Li8 O11 Zr4"
_cell_length_a       10.7236
_cell_length_b       5.36775
_cell_length_c       5.22498
_cell_angle_alpha    100.185
_cell_angle_beta     100.178
_cell_angle_gamma    118.934

_space_group_name_H-M_alt    "P 1"
_space_group_IT_number       1

loop_
  _space_group_symop_operation_xyz
  'x, y, z'

loop_
  _atom_site_type_symbol
  _atom_site_label
  _atom_site_symmetry_multiplicity
  _atom_site_fract_x
  _atom_site_fract_y
  _atom_site_fract_z
  _atom_site_occupancy
  Li  Li1       1.0  0.98700  0.97700  0.49100  1.0000
  Li  Li2       1.0  0.82900  0.34500  0.49800  1.0000
  Li  Li3       1.0  0.67700  0.65500  0.50100  1.0000
  Li  Li4       1.0  0.18100  0.69400  0.50300  1.0000
  Li  Li5       1.0  0.49900  0.99400  0.50500  1.0000
  Li  Li6       1.0  0.34200  0.36700  0.50500  1.0000
  Li  Li7       1.0  0.24900  0.49400  0.96200  1.0000
  Li  Li8       1.0  0.74900  0.50100  0.99000  1.0000
  O   O1        1.0  0.46100  0.58300  0.24000  1.0000
  O   O2        1.0  0.78900  0.92200  0.24000  1.0000
  O   O3        1.0  0.97100  0.57400  0.24600  1.0000
  O   O4        1.0  0.61600  0.23200  0.24700  1.0000
  O   O5        1.0  0.28900  0.94700  0.25000  1.0000
  O   O6        1.0  0.88000  0.75300  0.75200  1.0000
  O   O7        1.0  0.70400  0.05890  0.76000  1.0000
  O   O8        1.0  0.38100  0.76900  0.76100  1.0000
  O   O9        1.0  0.03400  0.40600  0.76300  1.0000
  O   O10       1.0  0.53500  0.41700  0.76700  1.0000
  O   O11       1.0  0.20800  0.07550  0.77000  1.0000
  Zr  Zr1       1.0  0.58600  0.83400  0.00539  1.0000
  Zr  Zr2       1.0  0.41700  0.17300  0.00920  1.0000
  Zr  Zr3       1.0  0.91600  0.16600  0.99500  1.0000
  Zr  Zr4       1.0  0.08340  0.82800  0.99600  1.0000
