data_image0
_chemical_formula_structural       BaO24P6Zr4
_chemical_formula_sum              "Ba1 O24 P6 Zr4"
_cell_length_a       8.52905
_cell_length_b       8.52905
_cell_length_c       9.43975
_cell_angle_alpha    63.1432
_cell_angle_beta     116.857
_cell_angle_gamma    120

_space_group_name_H-M_alt    "P 1"
_space_group_IT_number       1

loop_
  _space_group_symop_operation_xyz
  'x, y, z'

loop_
  _atom_site_type_symbol
  _atom_site_label
  _atom_site_symmetry_multiplicity
  _atom_site_fract_x
  _atom_site_fract_y
  _atom_site_fract_z
  _atom_site_occupancy
  Ba  Ba1       1.0  0.00000  0.00000  0.00000  1.0000
  O   O1        1.0  0.84700  0.21400  0.10300  1.0000
  O   O2        1.0  0.47000  0.15300  0.10300  1.0000
  O   O3        1.0  0.78600  0.53000  0.10300  1.0000
  O   O4        1.0  0.54700  0.52300  0.19600  1.0000
  O   O5        1.0  0.17200  0.45300  0.19600  1.0000
  O   O6        1.0  0.47700  0.82800  0.19600  1.0000
  O   O7        1.0  0.89000  0.73700  0.27400  1.0000
  O   O8        1.0  0.12000  0.11000  0.27400  1.0000
  O   O9        1.0  0.26300  0.88000  0.27400  1.0000
  O   O10       1.0  0.79100  0.38800  0.40900  1.0000
  O   O11       1.0  0.00556  0.20900  0.40900  1.0000
  O   O12       1.0  0.61200  0.99400  0.40900  1.0000
  O   O13       1.0  0.38800  0.00556  0.59100  1.0000
  O   O14       1.0  0.99400  0.79100  0.59100  1.0000
  O   O15       1.0  0.20900  0.61200  0.59100  1.0000
  O   O16       1.0  0.73700  0.12000  0.72600  1.0000
  O   O17       1.0  0.88000  0.89000  0.72600  1.0000
  O   O18       1.0  0.11000  0.26300  0.72600  1.0000
  O   O19       1.0  0.52300  0.17200  0.80400  1.0000
  O   O20       1.0  0.82800  0.54700  0.80400  1.0000
  O   O21       1.0  0.45300  0.47700  0.80400  1.0000
  O   O22       1.0  0.21400  0.47000  0.89700  1.0000
  O   O23       1.0  0.53000  0.84700  0.89700  1.0000
  O   O24       1.0  0.15300  0.78600  0.89700  1.0000
  P   P1        1.0  0.75200  0.54100  0.24500  1.0000
  P   P2        1.0  0.03500  0.24800  0.24500  1.0000
  P   P3        1.0  0.45900  0.96500  0.24500  1.0000
  P   P4        1.0  0.54100  0.03500  0.75500  1.0000
  P   P5        1.0  0.96500  0.75200  0.75500  1.0000
  P   P6        1.0  0.24800  0.45900  0.75500  1.0000
  Zr  Zr1       1.0  0.35100  0.64900  0.05330  1.0000
  Zr  Zr2       1.0  0.15000  0.85000  0.44900  1.0000
  Zr  Zr3       1.0  0.85000  0.15000  0.55100  1.0000
  Zr  Zr4       1.0  0.64900  0.35100  0.94700  1.0000
