data_image0
_chemical_formula_structural       H4K4O20Si8
_chemical_formula_sum              "H4 K4 O20 Si8"
_cell_length_a       8.07034
_cell_length_b       12.4475
_cell_length_c       4.69116
_cell_angle_alpha    90
_cell_angle_beta     90
_cell_angle_gamma    90

_space_group_name_H-M_alt    "P 1"
_space_group_IT_number       1

loop_
  _space_group_symop_operation_xyz
  'x, y, z'

loop_
  _atom_site_type_symbol
  _atom_site_label
  _atom_site_symmetry_multiplicity
  _atom_site_fract_x
  _atom_site_fract_y
  _atom_site_fract_z
  _atom_site_occupancy
  H   H1        1.0  0.00000  0.00000  0.00000  1.0000
  H   H2        1.0  0.50000  0.00000  0.00000  1.0000
  H   H3        1.0  0.00000  0.50000  0.50000  1.0000
  H   H4        1.0  0.50000  0.50000  0.50000  1.0000
  K   K1        1.0  0.75000  0.46400  0.03320  1.0000
  K   K2        1.0  0.75000  0.96400  0.46700  1.0000
  K   K3        1.0  0.25000  0.03630  0.53300  1.0000
  K   K4        1.0  0.25000  0.53600  0.96700  1.0000
  O   O1        1.0  0.25000  0.82000  0.10800  1.0000
  O   O2        1.0  0.50500  0.07390  0.16600  1.0000
  O   O3        1.0  0.99500  0.07390  0.16600  1.0000
  O   O4        1.0  0.55900  0.78500  0.24800  1.0000
  O   O5        1.0  0.94100  0.78500  0.24800  1.0000
  O   O6        1.0  0.55900  0.28500  0.25200  1.0000
  O   O7        1.0  0.94100  0.28500  0.25200  1.0000
  O   O8        1.0  0.50500  0.57400  0.33400  1.0000
  O   O9        1.0  0.99500  0.57400  0.33400  1.0000
  O   O10       1.0  0.25000  0.32000  0.39200  1.0000
  O   O11       1.0  0.75000  0.68000  0.60800  1.0000
  O   O12       1.0  0.00507  0.42600  0.66600  1.0000
  O   O13       1.0  0.49500  0.42600  0.66600  1.0000
  O   O14       1.0  0.05890  0.71500  0.74800  1.0000
  O   O15       1.0  0.44100  0.71500  0.74800  1.0000
  O   O16       1.0  0.05890  0.21500  0.75200  1.0000
  O   O17       1.0  0.44100  0.21500  0.75200  1.0000
  O   O18       1.0  0.00507  0.92600  0.83400  1.0000
  O   O19       1.0  0.49500  0.92600  0.83400  1.0000
  O   O20       1.0  0.75000  0.18000  0.89200  1.0000
  Si  Si1       1.0  0.56100  0.18500  0.02360  1.0000
  Si  Si2       1.0  0.93900  0.18500  0.02360  1.0000
  Si  Si3       1.0  0.56100  0.68500  0.47600  1.0000
  Si  Si4       1.0  0.93900  0.68500  0.47600  1.0000
  Si  Si5       1.0  0.06120  0.31500  0.52400  1.0000
  Si  Si6       1.0  0.43900  0.31500  0.52400  1.0000
  Si  Si7       1.0  0.06120  0.81500  0.97600  1.0000
  Si  Si8       1.0  0.43900  0.81500  0.97600  1.0000
