data_image0
_chemical_formula_structural       La4Li8O11
_chemical_formula_sum              "La4 Li8 O11"
_cell_length_a       12.1892
_cell_length_b       6.16152
_cell_length_c       4.9965
_cell_angle_alpha    95.7185
_cell_angle_beta     97.5759
_cell_angle_gamma    127.689

_space_group_name_H-M_alt    "P 1"
_space_group_IT_number       1

loop_
  _space_group_symop_operation_xyz
  'x, y, z'

loop_
  _atom_site_type_symbol
  _atom_site_label
  _atom_site_symmetry_multiplicity
  _atom_site_fract_x
  _atom_site_fract_y
  _atom_site_fract_z
  _atom_site_occupancy
  La  La1       1.0  0.11100  0.90100  0.00335  1.0000
  La  La2       1.0  0.58200  0.83000  0.03180  1.0000
  La  La3       1.0  0.45900  0.21400  0.03380  1.0000
  La  La4       1.0  0.93800  0.18800  0.06880  1.0000
  Li  Li1       1.0  0.78800  0.50000  0.05880  1.0000
  Li  Li2       1.0  0.94400  0.86400  0.48300  1.0000
  Li  Li3       1.0  0.34700  0.41400  0.50000  1.0000
  Li  Li4       1.0  0.48200  0.04800  0.50500  1.0000
  Li  Li5       1.0  0.19600  0.74300  0.51700  1.0000
  Li  Li6       1.0  0.70000  0.61800  0.55800  1.0000
  Li  Li7       1.0  0.81200  0.37400  0.56400  1.0000
  Li  Li8       1.0  0.26300  0.55400  0.92300  1.0000
  O   O1        1.0  0.33100  0.38000  0.10200  1.0000
  O   O2        1.0  0.27000  0.81500  0.19500  1.0000
  O   O3        1.0  0.76700  0.82100  0.25400  1.0000
  O   O4        1.0  0.63300  0.22700  0.29900  1.0000
  O   O5        1.0  0.96000  0.58100  0.30800  1.0000
  O   O6        1.0  0.14800  0.04130  0.52500  1.0000
  O   O7        1.0  0.51100  0.41200  0.64800  1.0000
  O   O8        1.0  0.40500  0.81500  0.74500  1.0000
  O   O9        1.0  0.08610  0.49900  0.77200  1.0000
  O   O10       1.0  0.88600  0.76600  0.80900  1.0000
  O   O11       1.0  0.75900  0.15000  0.83900  1.0000
