data_image0
_chemical_formula_structural       Li8Mn2O11Ta2
_chemical_formula_sum              "Li8 Mn2 O11 Ta2"
_cell_length_a       10.4851
_cell_length_b       5.19884
_cell_length_c       5.11698
_cell_angle_alpha    100.056
_cell_angle_beta     99.4526
_cell_angle_gamma    120.567

_space_group_name_H-M_alt    "P 1"
_space_group_IT_number       1

loop_
  _space_group_symop_operation_xyz
  'x, y, z'

loop_
  _atom_site_type_symbol
  _atom_site_label
  _atom_site_symmetry_multiplicity
  _atom_site_fract_x
  _atom_site_fract_y
  _atom_site_fract_z
  _atom_site_occupancy
  Li  Li1       1.0  0.75800  0.52300  0.00347  1.0000
  Li  Li2       1.0  0.70500  0.64600  0.49400  1.0000
  Li  Li3       1.0  0.83800  0.33700  0.49700  1.0000
  Li  Li4       1.0  0.49000  0.05720  0.49700  1.0000
  Li  Li5       1.0  0.16900  0.64500  0.50100  1.0000
  Li  Li6       1.0  0.00927  0.01130  0.51800  1.0000
  Li  Li7       1.0  0.30600  0.29800  0.53500  1.0000
  Li  Li8       1.0  0.22900  0.48800  0.98100  1.0000
  Mn  Mn1       1.0  0.92600  0.17400  0.01600  1.0000
  Mn  Mn2       1.0  0.41200  0.15000  0.99100  1.0000
  O   O1        1.0  0.76000  0.89100  0.22800  1.0000
  O   O2        1.0  0.61400  0.20800  0.23100  1.0000
  O   O3        1.0  0.96200  0.59800  0.24100  1.0000
  O   O4        1.0  0.28200  0.91500  0.25100  1.0000
  O   O5        1.0  0.12900  0.23400  0.25500  1.0000
  O   O6        1.0  0.70100  0.08170  0.73100  1.0000
  O   O7        1.0  0.53600  0.43800  0.75200  1.0000
  O   O8        1.0  0.04340  0.44200  0.75900  1.0000
  O   O9        1.0  0.89000  0.75800  0.76400  1.0000
  O   O10       1.0  0.38300  0.73600  0.76700  1.0000
  O   O11       1.0  0.20700  0.08780  0.78500  1.0000
  Ta  Ta1       1.0  0.08350  0.83200  0.00951  1.0000
  Ta  Ta2       1.0  0.59600  0.86000  0.95000  1.0000
