data_image0
_chemical_formula_structural       Cs4O24U4V4
_chemical_formula_sum              "Cs4 O24 U4 V4"
_cell_length_a       10.5626
_cell_length_b       8.45886
_cell_length_c       7.14879
_cell_angle_alpha    90
_cell_angle_beta     106.45
_cell_angle_gamma    90

_space_group_name_H-M_alt    "P 1"
_space_group_IT_number       1

loop_
  _space_group_symop_operation_xyz
  'x, y, z'

loop_
  _atom_site_type_symbol
  _atom_site_label
  _atom_site_symmetry_multiplicity
  _atom_site_fract_x
  _atom_site_fract_y
  _atom_site_fract_z
  _atom_site_occupancy
  Cs  Cs1       1.0  0.13300  0.73100  0.45900  1.0000
  Cs  Cs2       1.0  0.63300  0.76900  0.45900  1.0000
  Cs  Cs3       1.0  0.86700  0.26900  0.54100  1.0000
  Cs  Cs4       1.0  0.36700  0.23100  0.54100  1.0000
  O   O1        1.0  0.99400  0.15700  0.03310  1.0000
  O   O2        1.0  0.49400  0.34300  0.03310  1.0000
  O   O3        1.0  0.10700  0.56100  0.04020  1.0000
  O   O4        1.0  0.60700  0.93900  0.04020  1.0000
  O   O5        1.0  0.21800  0.29000  0.08260  1.0000
  O   O6        1.0  0.71800  0.21000  0.08260  1.0000
  O   O7        1.0  0.24000  0.97700  0.24200  1.0000
  O   O8        1.0  0.74000  0.52300  0.24200  1.0000
  O   O9        1.0  0.88000  0.93700  0.27400  1.0000
  O   O10       1.0  0.38000  0.56300  0.27400  1.0000
  O   O11       1.0  0.07270  0.36700  0.34400  1.0000
  O   O12       1.0  0.57300  0.13300  0.34400  1.0000
  O   O13       1.0  0.42700  0.86700  0.65600  1.0000
  O   O14       1.0  0.92700  0.63300  0.65600  1.0000
  O   O15       1.0  0.62000  0.43700  0.72600  1.0000
  O   O16       1.0  0.12000  0.06280  0.72600  1.0000
  O   O17       1.0  0.26000  0.47700  0.75800  1.0000
  O   O18       1.0  0.76000  0.02260  0.75800  1.0000
  O   O19       1.0  0.28200  0.79000  0.91700  1.0000
  O   O20       1.0  0.78200  0.71000  0.91700  1.0000
  O   O21       1.0  0.89300  0.43900  0.96000  1.0000
  O   O22       1.0  0.39300  0.06120  0.96000  1.0000
  O   O23       1.0  0.00613  0.84300  0.96700  1.0000
  O   O24       1.0  0.50600  0.65700  0.96700  1.0000
  U   U1        1.0  0.32100  0.52100  0.01540  1.0000
  U   U2        1.0  0.82100  0.97900  0.01540  1.0000
  U   U3        1.0  0.17900  0.02090  0.98500  1.0000
  U   U4        1.0  0.67900  0.47900  0.98500  1.0000
  V   V1        1.0  0.05760  0.35300  0.10900  1.0000
  V   V2        1.0  0.55800  0.14700  0.10900  1.0000
  V   V3        1.0  0.44200  0.85300  0.89100  1.0000
  V   V4        1.0  0.94200  0.64700  0.89100  1.0000
