data_image0
_chemical_formula_structural       O8Sr3V2
_chemical_formula_sum              "O8 Sr3 V2"
_cell_length_a       5.59766
_cell_length_b       5.59766
_cell_length_c       7.43511
_cell_angle_alpha    90
_cell_angle_beta     112.113
_cell_angle_gamma    60

_space_group_name_H-M_alt    "P 1"
_space_group_IT_number       1

loop_
  _space_group_symop_operation_xyz
  'x, y, z'

loop_
  _atom_site_type_symbol
  _atom_site_label
  _atom_site_symmetry_multiplicity
  _atom_site_fract_x
  _atom_site_fract_y
  _atom_site_fract_z
  _atom_site_occupancy
  O   O1        1.0  0.35800  0.32100  0.03770  1.0000
  O   O2        1.0  0.03840  0.22900  0.30500  1.0000
  O   O3        1.0  0.03840  0.73300  0.30500  1.0000
  O   O4        1.0  0.53400  0.73300  0.30500  1.0000
  O   O5        1.0  0.46600  0.26700  0.69500  1.0000
  O   O6        1.0  0.96200  0.26700  0.69500  1.0000
  O   O7        1.0  0.96200  0.77100  0.69500  1.0000
  O   O8        1.0  0.64200  0.67900  0.96200  1.0000
  Sr  Sr1       1.0  0.00000  0.00000  0.00000  1.0000
  Sr  Sr2       1.0  0.59600  0.20200  0.39400  1.0000
  Sr  Sr3       1.0  0.40400  0.79800  0.60600  1.0000
  V   V1        1.0  0.81200  0.59400  0.21800  1.0000
  V   V2        1.0  0.18800  0.40600  0.78200  1.0000
