data_image0
_chemical_formula_structural       Mn4Nd4O12
_chemical_formula_sum              "Mn4 Nd4 O12"
_cell_length_a       7.68849
_cell_length_b       5.42214
_cell_length_c       5.5872
_cell_angle_alpha    90
_cell_angle_beta     90.1111
_cell_angle_gamma    90

_space_group_name_H-M_alt    "P 1"
_space_group_IT_number       1

loop_
  _space_group_symop_operation_xyz
  'x, y, z'

loop_
  _atom_site_type_symbol
  _atom_site_label
  _atom_site_symmetry_multiplicity
  _atom_site_fract_x
  _atom_site_fract_y
  _atom_site_fract_z
  _atom_site_occupancy
  Mn  Mn1       1.0  0.00000  0.50000  0.00000  1.0000
  Mn  Mn2       1.0  0.00000  0.00000  0.50000  1.0000
  Mn  Mn3       1.0  0.50000  0.50000  0.00000  1.0000
  Mn  Mn4       1.0  0.50000  0.00000  0.50000  1.0000
  Nd  Nd1       1.0  0.25000  0.98800  0.94700  1.0000
  Nd  Nd2       1.0  0.75000  0.48800  0.55300  1.0000
  Nd  Nd3       1.0  0.75000  0.01240  0.05320  1.0000
  Nd  Nd4       1.0  0.25000  0.51200  0.44700  1.0000
  O   O1        1.0  0.45400  0.78800  0.20400  1.0000
  O   O2        1.0  0.54600  0.28800  0.29600  1.0000
  O   O3        1.0  0.95400  0.21100  0.79800  1.0000
  O   O4        1.0  0.95400  0.28900  0.29800  1.0000
  O   O5        1.0  0.04600  0.78900  0.20200  1.0000
  O   O6        1.0  0.25000  0.08700  0.52000  1.0000
  O   O7        1.0  0.75000  0.58700  0.98000  1.0000
  O   O8        1.0  0.75000  0.91300  0.48000  1.0000
  O   O9        1.0  0.25000  0.41300  0.02000  1.0000
  O   O10       1.0  0.54600  0.21200  0.79600  1.0000
  O   O11       1.0  0.45400  0.71200  0.70400  1.0000
  O   O12       1.0  0.04600  0.71100  0.70200  1.0000
