data_image0
_chemical_formula_structural       As16Ge8Sr12
_chemical_formula_sum              "As16 Ge8 Sr12"
_cell_length_a       7.69131
_cell_length_b       18.741
_cell_length_c       7.55269
_cell_angle_alpha    90
_cell_angle_beta     111.883
_cell_angle_gamma    90

_space_group_name_H-M_alt    "P 1"
_space_group_IT_number       1

loop_
  _space_group_symop_operation_xyz
  'x, y, z'

loop_
  _atom_site_type_symbol
  _atom_site_label
  _atom_site_symmetry_multiplicity
  _atom_site_fract_x
  _atom_site_fract_y
  _atom_site_fract_z
  _atom_site_occupancy
  As  As1       1.0  0.03980  0.81400  0.21900  1.0000
  As  As2       1.0  0.50300  0.69800  0.22300  1.0000
  As  As3       1.0  0.49700  0.93200  0.24200  1.0000
  As  As4       1.0  0.99300  0.06040  0.24800  1.0000
  As  As5       1.0  0.00748  0.56000  0.25200  1.0000
  As  As6       1.0  0.50300  0.43200  0.25800  1.0000
  As  As7       1.0  0.49700  0.19800  0.27700  1.0000
  As  As8       1.0  0.96000  0.31400  0.28100  1.0000
  As  As9       1.0  0.03980  0.68600  0.71900  1.0000
  As  As10      1.0  0.50300  0.80200  0.72300  1.0000
  As  As11      1.0  0.49700  0.56800  0.74200  1.0000
  As  As12      1.0  0.99300  0.44000  0.74800  1.0000
  As  As13      1.0  0.00748  0.94000  0.75200  1.0000
  As  As14      1.0  0.50300  0.06790  0.75800  1.0000
  As  As15      1.0  0.49700  0.30200  0.77700  1.0000
  As  As16      1.0  0.96000  0.18600  0.78100  1.0000
  Ge  Ge1       1.0  0.21200  0.87200  0.02780  1.0000
  Ge  Ge2       1.0  0.68500  0.24000  0.08570  1.0000
  Ge  Ge3       1.0  0.31500  0.74000  0.41400  1.0000
  Ge  Ge4       1.0  0.78800  0.37200  0.47200  1.0000
  Ge  Ge5       1.0  0.21200  0.62800  0.52800  1.0000
  Ge  Ge6       1.0  0.68500  0.26000  0.58600  1.0000
  Ge  Ge7       1.0  0.31500  0.76000  0.91400  1.0000
  Ge  Ge8       1.0  0.78800  0.12800  0.97200  1.0000
  Sr  Sr1       1.0  0.26100  0.56000  0.00248  1.0000
  Sr  Sr2       1.0  0.25600  0.06140  0.01200  1.0000
  Sr  Sr3       1.0  0.21800  0.31600  0.01220  1.0000
  Sr  Sr4       1.0  0.78200  0.81600  0.48800  1.0000
  Sr  Sr5       1.0  0.74400  0.56100  0.48800  1.0000
  Sr  Sr6       1.0  0.73900  0.06010  0.49800  1.0000
  Sr  Sr7       1.0  0.26100  0.94000  0.50200  1.0000
  Sr  Sr8       1.0  0.25600  0.43900  0.51200  1.0000
  Sr  Sr9       1.0  0.21800  0.18400  0.51200  1.0000
  Sr  Sr10      1.0  0.78200  0.68400  0.98800  1.0000
  Sr  Sr11      1.0  0.74400  0.93900  0.98800  1.0000
  Sr  Sr12      1.0  0.73900  0.44000  0.99800  1.0000
