data_image0
_chemical_formula_structural       Li8Mn2O11Te2
_chemical_formula_sum              "Li8 Mn2 O11 Te2"
_cell_length_a       10.4024
_cell_length_b       5.26316
_cell_length_c       5.17305
_cell_angle_alpha    100.504
_cell_angle_beta     100.07
_cell_angle_gamma    119.348

_space_group_name_H-M_alt    "P 1"
_space_group_IT_number       1

loop_
  _space_group_symop_operation_xyz
  'x, y, z'

loop_
  _atom_site_type_symbol
  _atom_site_label
  _atom_site_symmetry_multiplicity
  _atom_site_fract_x
  _atom_site_fract_y
  _atom_site_fract_z
  _atom_site_occupancy
  Li  Li1       1.0  0.76000  0.51200  0.00318  1.0000
  Li  Li2       1.0  0.84500  0.36100  0.49600  1.0000
  Li  Li3       1.0  0.67100  0.66300  0.50200  1.0000
  Li  Li4       1.0  0.14500  0.62400  0.50500  1.0000
  Li  Li5       1.0  0.00552  0.99900  0.50500  1.0000
  Li  Li6       1.0  0.51900  0.00503  0.51400  1.0000
  Li  Li7       1.0  0.32000  0.36300  0.51800  1.0000
  Li  Li8       1.0  0.23600  0.45100  0.96500  1.0000
  Mn  Mn1       1.0  0.92000  0.16900  0.00097  1.0000
  Mn  Mn2       1.0  0.41500  0.17400  0.98000  1.0000
  O   O1        1.0  0.46100  0.60500  0.22100  1.0000
  O   O2        1.0  0.96400  0.60300  0.23600  1.0000
  O   O3        1.0  0.12900  0.24700  0.24000  1.0000
  O   O4        1.0  0.77000  0.90600  0.24200  1.0000
  O   O5        1.0  0.61300  0.21000  0.24400  1.0000
  O   O6        1.0  0.20200  0.05900  0.73800  1.0000
  O   O7        1.0  0.04010  0.42800  0.75100  1.0000
  O   O8        1.0  0.54200  0.45500  0.75500  1.0000
  O   O9        1.0  0.39000  0.76400  0.76500  1.0000
  O   O10       1.0  0.90400  0.76100  0.77700  1.0000
  O   O11       1.0  0.69500  0.06040  0.78000  1.0000
  Te  Te1       1.0  0.58300  0.83500  0.00465  1.0000
  Te  Te2       1.0  0.09700  0.83600  0.01570  1.0000
