data_image0
_chemical_formula_structural       Br4F20Sn12
_chemical_formula_sum              "Br4 F20 Sn12"
_cell_length_a       3.95605
_cell_length_b       12.2426
_cell_length_c       12.1747
_cell_angle_alpha    89.9858
_cell_angle_beta     89.9729
_cell_angle_gamma    90.0003

_space_group_name_H-M_alt    "P 1"
_space_group_IT_number       1

loop_
  _space_group_symop_operation_xyz
  'x, y, z'

loop_
  _atom_site_type_symbol
  _atom_site_label
  _atom_site_symmetry_multiplicity
  _atom_site_fract_x
  _atom_site_fract_y
  _atom_site_fract_z
  _atom_site_occupancy
  Br  Br1       1.0  0.00000  0.11500  0.12000  1.0000
  Br  Br2       1.0  0.50100  0.62400  0.37900  1.0000
  Br  Br3       1.0  0.49900  0.38500  0.61900  1.0000
  Br  Br4       1.0  0.00100  0.87700  0.87900  1.0000
  F   F1        1.0  0.99900  0.38000  0.01760  1.0000
  F   F2        1.0  0.50200  0.72000  0.08660  1.0000
  F   F3        1.0  0.50000  0.51200  0.11600  1.0000
  F   F4        1.0  0.00223  0.83400  0.16100  1.0000
  F   F5        1.0  0.99900  0.41000  0.22400  1.0000
  F   F6        1.0  0.50100  0.91700  0.27400  1.0000
  F   F7        1.0  0.49800  0.34100  0.34100  1.0000
  F   F8        1.0  0.99900  0.02050  0.38400  1.0000
  F   F9        1.0  0.99800  0.22700  0.41500  1.0000
  F   F10       1.0  0.50100  0.88900  0.48200  1.0000
  F   F11       1.0  0.49900  0.12000  0.51800  1.0000
  F   F12       1.0  0.00160  0.78000  0.58700  1.0000
  F   F13       1.0  0.00000  0.98700  0.61600  1.0000
  F   F14       1.0  0.50200  0.66500  0.66100  1.0000
  F   F15       1.0  0.49900  0.08980  0.72500  1.0000
  F   F16       1.0  0.00126  0.58400  0.77400  1.0000
  F   F17       1.0  0.99800  0.15900  0.84200  1.0000
  F   F18       1.0  0.50000  0.48000  0.88300  1.0000
  F   F19       1.0  0.49800  0.27300  0.91400  1.0000
  F   F20       1.0  0.00111  0.61100  0.98200  1.0000
  Sn  Sn1       1.0  0.50200  0.90000  0.09350  1.0000
  Sn  Sn2       1.0  0.50000  0.33600  0.12100  1.0000
  Sn  Sn3       1.0  0.00324  0.61600  0.16100  1.0000
  Sn  Sn4       1.0  0.49700  0.12200  0.33900  1.0000
  Sn  Sn5       1.0  0.00088  0.84200  0.38000  1.0000
  Sn  Sn6       1.0  0.99700  0.40700  0.40600  1.0000
  Sn  Sn7       1.0  0.00203  0.60000  0.59300  1.0000
  Sn  Sn8       1.0  0.99900  0.16400  0.62100  1.0000
  Sn  Sn9       1.0  0.50300  0.88400  0.66100  1.0000
  Sn  Sn10      1.0  0.99800  0.37800  0.83900  1.0000
  Sn  Sn11      1.0  0.50100  0.65800  0.87900  1.0000
  Sn  Sn12      1.0  0.49700  0.09350  0.90600  1.0000
