data_image0
_chemical_formula_structural       S20Sb12Tl4
_chemical_formula_sum              "S20 Sb12 Tl4"
_cell_length_a       7.34616
_cell_length_b       15.8465
_cell_length_c       9.10996
_cell_angle_alpha    90
_cell_angle_beta     113.866
_cell_angle_gamma    90

_space_group_name_H-M_alt    "P 1"
_space_group_IT_number       1

loop_
  _space_group_symop_operation_xyz
  'x, y, z'

loop_
  _atom_site_type_symbol
  _atom_site_label
  _atom_site_symmetry_multiplicity
  _atom_site_fract_x
  _atom_site_fract_y
  _atom_site_fract_z
  _atom_site_occupancy
  S   S1        1.0  0.24800  0.05300  0.00296  1.0000
  S   S2        1.0  0.22700  0.44000  0.10600  1.0000
  S   S3        1.0  0.68000  0.72900  0.11100  1.0000
  S   S4        1.0  0.78500  0.37400  0.16300  1.0000
  S   S5        1.0  0.70900  0.15900  0.23700  1.0000
  S   S6        1.0  0.29100  0.65900  0.26300  1.0000
  S   S7        1.0  0.21500  0.87400  0.33700  1.0000
  S   S8        1.0  0.32000  0.22900  0.38900  1.0000
  S   S9        1.0  0.77300  0.94000  0.39400  1.0000
  S   S10       1.0  0.75200  0.55300  0.49700  1.0000
  S   S11       1.0  0.24800  0.44700  0.50300  1.0000
  S   S12       1.0  0.22700  0.05990  0.60600  1.0000
  S   S13       1.0  0.68000  0.77100  0.61100  1.0000
  S   S14       1.0  0.78500  0.12600  0.66300  1.0000
  S   S15       1.0  0.70900  0.34100  0.73700  1.0000
  S   S16       1.0  0.29100  0.84100  0.76300  1.0000
  S   S17       1.0  0.21500  0.62600  0.83700  1.0000
  S   S18       1.0  0.32000  0.27100  0.88900  1.0000
  S   S19       1.0  0.77300  0.56000  0.89400  1.0000
  S   S20       1.0  0.75200  0.94700  0.99700  1.0000
  Sb  Sb1       1.0  0.50500  0.87000  0.06680  1.0000
  Sb  Sb2       1.0  0.47200  0.59600  0.11100  1.0000
  Sb  Sb3       1.0  0.00471  0.50600  0.21600  1.0000
  Sb  Sb4       1.0  0.99500  0.00565  0.28400  1.0000
  Sb  Sb5       1.0  0.52800  0.09580  0.38900  1.0000
  Sb  Sb6       1.0  0.49500  0.37000  0.43300  1.0000
  Sb  Sb7       1.0  0.50500  0.63000  0.56700  1.0000
  Sb  Sb8       1.0  0.47200  0.90400  0.61100  1.0000
  Sb  Sb9       1.0  0.00471  0.99400  0.71600  1.0000
  Sb  Sb10      1.0  0.99500  0.49400  0.78400  1.0000
  Sb  Sb11      1.0  0.52800  0.40400  0.88900  1.0000
  Sb  Sb12      1.0  0.49500  0.13000  0.93300  1.0000
  Tl  Tl1       1.0  0.01580  0.23300  0.03870  1.0000
  Tl  Tl2       1.0  0.98400  0.73300  0.46100  1.0000
  Tl  Tl3       1.0  0.01580  0.26700  0.53900  1.0000
  Tl  Tl4       1.0  0.98400  0.76700  0.96100  1.0000
