data_image0
_chemical_formula_structural       Li8O11Pm4
_chemical_formula_sum              "Li8 O11 Pm4"
_cell_length_a       11.5891
_cell_length_b       5.86328
_cell_length_c       5.16448
_cell_angle_alpha    100.683
_cell_angle_beta     101.445
_cell_angle_gamma    119.537

_space_group_name_H-M_alt    "P 1"
_space_group_IT_number       1

loop_
  _space_group_symop_operation_xyz
  'x, y, z'

loop_
  _atom_site_type_symbol
  _atom_site_label
  _atom_site_symmetry_multiplicity
  _atom_site_fract_x
  _atom_site_fract_y
  _atom_site_fract_z
  _atom_site_occupancy
  Li  Li1       1.0  0.78300  0.56000  0.03800  1.0000
  Li  Li2       1.0  0.43700  0.90900  0.39500  1.0000
  Li  Li3       1.0  0.34400  0.34600  0.45500  1.0000
  Li  Li4       1.0  0.22500  0.82100  0.46300  1.0000
  Li  Li5       1.0  0.74800  0.14300  0.53400  1.0000
  Li  Li6       1.0  0.70200  0.58100  0.54300  1.0000
  Li  Li7       1.0  0.93100  0.96100  0.56900  1.0000
  Li  Li8       1.0  0.24700  0.48100  0.86200  1.0000
  O   O1        1.0  0.41800  0.57100  0.17900  1.0000
  O   O2        1.0  0.28700  0.96100  0.19800  1.0000
  O   O3        1.0  0.76600  0.86500  0.28600  1.0000
  O   O4        1.0  0.61100  0.19100  0.30600  1.0000
  O   O5        1.0  0.02510  0.67100  0.36300  1.0000
  O   O6        1.0  0.54000  0.43800  0.68800  1.0000
  O   O7        1.0  0.36700  0.77700  0.69100  1.0000
  O   O8        1.0  0.22600  0.12300  0.69800  1.0000
  O   O9        1.0  0.03870  0.34200  0.77700  1.0000
  O   O10       1.0  0.88700  0.79500  0.84100  1.0000
  O   O11       1.0  0.76000  0.19900  0.90000  1.0000
  Pm  Pm1       1.0  0.44000  0.21300  0.00699  1.0000
  Pm  Pm2       1.0  0.94000  0.20700  0.13800  1.0000
  Pm  Pm3       1.0  0.07480  0.76100  0.86300  1.0000
  Pm  Pm4       1.0  0.57900  0.83500  0.95500  1.0000
