data_image0
_chemical_formula_structural       Li8Mn2O11U2
_chemical_formula_sum              "Li8 Mn2 O11 U2"
_cell_length_a       10.7136
_cell_length_b       5.40602
_cell_length_c       5.20417
_cell_angle_alpha    99.2829
_cell_angle_beta     99.4677
_cell_angle_gamma    120.282

_space_group_name_H-M_alt    "P 1"
_space_group_IT_number       1

loop_
  _space_group_symop_operation_xyz
  'x, y, z'

loop_
  _atom_site_type_symbol
  _atom_site_label
  _atom_site_symmetry_multiplicity
  _atom_site_fract_x
  _atom_site_fract_y
  _atom_site_fract_z
  _atom_site_occupancy
  Li  Li1       1.0  0.75400  0.50800  0.00719  1.0000
  Li  Li2       1.0  0.83800  0.35400  0.49400  1.0000
  Li  Li3       1.0  0.98900  0.00835  0.49800  1.0000
  Li  Li4       1.0  0.67900  0.64000  0.50200  1.0000
  Li  Li5       1.0  0.32800  0.37300  0.50400  1.0000
  Li  Li6       1.0  0.15800  0.60800  0.51300  1.0000
  Li  Li7       1.0  0.52100  0.05110  0.52700  1.0000
  Li  Li8       1.0  0.24200  0.45700  0.96700  1.0000
  Mn  Mn1       1.0  0.92000  0.17300  0.00551  1.0000
  Mn  Mn2       1.0  0.41600  0.16600  0.98100  1.0000
  O   O1        1.0  0.45700  0.58300  0.23100  1.0000
  O   O2        1.0  0.61500  0.23200  0.24700  1.0000
  O   O3        1.0  0.13100  0.25400  0.24900  1.0000
  O   O4        1.0  0.78300  0.91200  0.25000  1.0000
  O   O5        1.0  0.96000  0.58200  0.25200  1.0000
  O   O6        1.0  0.21300  0.07470  0.74700  1.0000
  O   O7        1.0  0.54300  0.43400  0.74900  1.0000
  O   O8        1.0  0.38100  0.76000  0.74900  1.0000
  O   O9        1.0  0.87400  0.74700  0.75400  1.0000
  O   O10       1.0  0.04740  0.42100  0.76000  1.0000
  O   O11       1.0  0.70200  0.08230  0.76700  1.0000
  U   U1        1.0  0.58300  0.83400  0.00241  1.0000
  U   U2        1.0  0.07890  0.83100  0.99500  1.0000
