data_image0
_chemical_formula_structural       F24O6Tc6
_chemical_formula_sum              "F24 O6 Tc6"
_cell_length_a       8.57002
_cell_length_b       8.57002
_cell_length_c       7.46518
_cell_angle_alpha    90
_cell_angle_beta     90
_cell_angle_gamma    120

_space_group_name_H-M_alt    "P 1"
_space_group_IT_number       1

loop_
  _space_group_symop_operation_xyz
  'x, y, z'

loop_
  _atom_site_type_symbol
  _atom_site_label
  _atom_site_symmetry_multiplicity
  _atom_site_fract_x
  _atom_site_fract_y
  _atom_site_fract_z
  _atom_site_occupancy
  F   F1        1.0  0.10700  0.40900  0.00394  1.0000
  F   F2        1.0  0.59100  0.69800  0.00394  1.0000
  F   F3        1.0  0.30200  0.89300  0.00394  1.0000
  F   F4        1.0  0.08610  0.18800  0.25000  1.0000
  F   F5        1.0  0.35800  0.50300  0.25000  1.0000
  F   F6        1.0  0.14500  0.64200  0.25000  1.0000
  F   F7        1.0  0.49700  0.85500  0.25000  1.0000
  F   F8        1.0  0.81200  0.89800  0.25000  1.0000
  F   F9        1.0  0.10200  0.91400  0.25000  1.0000
  F   F10       1.0  0.10700  0.40900  0.49600  1.0000
  F   F11       1.0  0.59100  0.69800  0.49600  1.0000
  F   F12       1.0  0.30200  0.89300  0.49600  1.0000
  F   F13       1.0  0.69800  0.10700  0.50400  1.0000
  F   F14       1.0  0.40900  0.30200  0.50400  1.0000
  F   F15       1.0  0.89300  0.59100  0.50400  1.0000
  F   F16       1.0  0.89800  0.08610  0.75000  1.0000
  F   F17       1.0  0.18800  0.10200  0.75000  1.0000
  F   F18       1.0  0.50300  0.14500  0.75000  1.0000
  F   F19       1.0  0.85500  0.35800  0.75000  1.0000
  F   F20       1.0  0.64200  0.49700  0.75000  1.0000
  F   F21       1.0  0.91400  0.81200  0.75000  1.0000
  F   F22       1.0  0.69800  0.10700  0.99600  1.0000
  F   F23       1.0  0.40900  0.30200  0.99600  1.0000
  F   F24       1.0  0.89300  0.59100  0.99600  1.0000
  O   O1        1.0  0.47300  0.16200  0.25000  1.0000
  O   O2        1.0  0.83800  0.31100  0.25000  1.0000
  O   O3        1.0  0.68900  0.52700  0.25000  1.0000
  O   O4        1.0  0.31100  0.47300  0.75000  1.0000
  O   O5        1.0  0.16200  0.68900  0.75000  1.0000
  O   O6        1.0  0.52700  0.83800  0.75000  1.0000
  Tc  Tc1       1.0  0.05630  0.38700  0.25000  1.0000
  Tc  Tc2       1.0  0.61300  0.66900  0.25000  1.0000
  Tc  Tc3       1.0  0.33100  0.94400  0.25000  1.0000
  Tc  Tc4       1.0  0.66900  0.05630  0.75000  1.0000
  Tc  Tc5       1.0  0.38700  0.33100  0.75000  1.0000
  Tc  Tc6       1.0  0.94400  0.61300  0.75000  1.0000
