data_image0
_chemical_formula_structural       Li8Mn2O11Rh2
_chemical_formula_sum              "Li8 Mn2 O11 Rh2"
_cell_length_a       10.1003
_cell_length_b       4.99432
_cell_length_c       5.02806
_cell_angle_alpha    99.7612
_cell_angle_beta     99.9771
_cell_angle_gamma    120.119

_space_group_name_H-M_alt    "P 1"
_space_group_IT_number       1

loop_
  _space_group_symop_operation_xyz
  'x, y, z'

loop_
  _atom_site_type_symbol
  _atom_site_label
  _atom_site_symmetry_multiplicity
  _atom_site_fract_x
  _atom_site_fract_y
  _atom_site_fract_z
  _atom_site_occupancy
  Li  Li1       1.0  0.75200  0.49900  0.00154  1.0000
  Li  Li2       1.0  0.99700  0.99700  0.49500  1.0000
  Li  Li3       1.0  0.16700  0.65900  0.49700  1.0000
  Li  Li4       1.0  0.83200  0.33200  0.49800  1.0000
  Li  Li5       1.0  0.68900  0.65900  0.50700  1.0000
  Li  Li6       1.0  0.31200  0.30000  0.51900  1.0000
  Li  Li7       1.0  0.50500  0.04300  0.52000  1.0000
  Li  Li8       1.0  0.23300  0.49500  0.98100  1.0000
  Mn  Mn1       1.0  0.08320  0.83600  0.00086  1.0000
  Mn  Mn2       1.0  0.58900  0.83500  0.98900  1.0000
  O   O1        1.0  0.96700  0.59500  0.23100  1.0000
  O   O2        1.0  0.78000  0.90800  0.23400  1.0000
  O   O3        1.0  0.28600  0.92300  0.23800  1.0000
  O   O4        1.0  0.12200  0.23300  0.23900  1.0000
  O   O5        1.0  0.61600  0.21000  0.24000  1.0000
  O   O6        1.0  0.70900  0.07050  0.74900  1.0000
  O   O7        1.0  0.53600  0.43300  0.75500  1.0000
  O   O8        1.0  0.04020  0.43900  0.76300  1.0000
  O   O9        1.0  0.88900  0.76100  0.76300  1.0000
  O   O10       1.0  0.39100  0.76500  0.77100  1.0000
  O   O11       1.0  0.20600  0.08250  0.77700  1.0000
  Rh  Rh1       1.0  0.41700  0.17100  0.00223  1.0000
  Rh  Rh2       1.0  0.91600  0.16700  0.99700  1.0000
