data_image0
_chemical_formula_structural       Al24Ce3Cu8Mn
_chemical_formula_sum              "Al24 Ce3 Cu8 Mn1"
_cell_length_a       8.45776
_cell_length_b       8.45776
_cell_length_c       8.45776
_cell_angle_alpha    90
_cell_angle_beta     90
_cell_angle_gamma    90

_space_group_name_H-M_alt    "P 1"
_space_group_IT_number       1

loop_
  _space_group_symop_operation_xyz
  'x, y, z'

loop_
  _atom_site_type_symbol
  _atom_site_label
  _atom_site_symmetry_multiplicity
  _atom_site_fract_x
  _atom_site_fract_y
  _atom_site_fract_z
  _atom_site_occupancy
  Al  Al1       1.0  0.33800  0.33800  0.00000  1.0000
  Al  Al2       1.0  0.66200  0.33800  0.00000  1.0000
  Al  Al3       1.0  0.33800  0.66200  0.00000  1.0000
  Al  Al4       1.0  0.66200  0.66200  0.00000  1.0000
  Al  Al5       1.0  0.50000  0.27300  0.27300  1.0000
  Al  Al6       1.0  0.27300  0.50000  0.27300  1.0000
  Al  Al7       1.0  0.72700  0.50000  0.27300  1.0000
  Al  Al8       1.0  0.50000  0.72700  0.27300  1.0000
  Al  Al9       1.0  0.33800  0.00000  0.33800  1.0000
  Al  Al10      1.0  0.66200  0.00000  0.33800  1.0000
  Al  Al11      1.0  0.00000  0.33800  0.33800  1.0000
  Al  Al12      1.0  0.00000  0.66200  0.33800  1.0000
  Al  Al13      1.0  0.27300  0.27300  0.50000  1.0000
  Al  Al14      1.0  0.72700  0.27300  0.50000  1.0000
  Al  Al15      1.0  0.27300  0.72700  0.50000  1.0000
  Al  Al16      1.0  0.72700  0.72700  0.50000  1.0000
  Al  Al17      1.0  0.33800  0.00000  0.66200  1.0000
  Al  Al18      1.0  0.66200  0.00000  0.66200  1.0000
  Al  Al19      1.0  0.00000  0.33800  0.66200  1.0000
  Al  Al20      1.0  0.00000  0.66200  0.66200  1.0000
  Al  Al21      1.0  0.50000  0.27300  0.72700  1.0000
  Al  Al22      1.0  0.27300  0.50000  0.72700  1.0000
  Al  Al23      1.0  0.72700  0.50000  0.72700  1.0000
  Al  Al24      1.0  0.50000  0.72700  0.72700  1.0000
  Ce  Ce1       1.0  0.50000  0.00000  0.00000  1.0000
  Ce  Ce2       1.0  0.00000  0.50000  0.00000  1.0000
  Ce  Ce3       1.0  0.00000  0.00000  0.50000  1.0000
  Cu  Cu1       1.0  0.15500  0.15500  0.15500  1.0000
  Cu  Cu2       1.0  0.84500  0.15500  0.15500  1.0000
  Cu  Cu3       1.0  0.15500  0.84500  0.15500  1.0000
  Cu  Cu4       1.0  0.84500  0.84500  0.15500  1.0000
  Cu  Cu5       1.0  0.15500  0.15500  0.84500  1.0000
  Cu  Cu6       1.0  0.84500  0.15500  0.84500  1.0000
  Cu  Cu7       1.0  0.15500  0.84500  0.84500  1.0000
  Cu  Cu8       1.0  0.84500  0.84500  0.84500  1.0000
  Mn  Mn1       1.0  0.50000  0.50000  0.50000  1.0000
