data_image0
_chemical_formula_structural       Li8Mn2O11Sn2
_chemical_formula_sum              "Li8 Mn2 O11 Sn2"
_cell_length_a       10.4222
_cell_length_b       5.18468
_cell_length_c       5.15423
_cell_angle_alpha    99.733
_cell_angle_beta     99.1704
_cell_angle_gamma    120.108

_space_group_name_H-M_alt    "P 1"
_space_group_IT_number       1

loop_
  _space_group_symop_operation_xyz
  'x, y, z'

loop_
  _atom_site_type_symbol
  _atom_site_label
  _atom_site_symmetry_multiplicity
  _atom_site_fract_x
  _atom_site_fract_y
  _atom_site_fract_z
  _atom_site_occupancy
  Li  Li1       1.0  0.67300  0.65500  0.50100  1.0000
  Li  Li2       1.0  0.83200  0.33300  0.50100  1.0000
  Li  Li3       1.0  0.49200  0.02050  0.50200  1.0000
  Li  Li4       1.0  0.98800  0.01390  0.50200  1.0000
  Li  Li5       1.0  0.33700  0.33500  0.50400  1.0000
  Li  Li6       1.0  0.17300  0.66000  0.50400  1.0000
  Li  Li7       1.0  0.25200  0.50200  0.99600  1.0000
  Li  Li8       1.0  0.75000  0.49800  0.99900  1.0000
  Mn  Mn1       1.0  0.91700  0.16200  0.99900  1.0000
  Mn  Mn2       1.0  0.41900  0.16900  0.99900  1.0000
  O   O1        1.0  0.29800  0.93400  0.23200  1.0000
  O   O2        1.0  0.80000  0.93700  0.23400  1.0000
  O   O3        1.0  0.45800  0.55300  0.23400  1.0000
  O   O4        1.0  0.60700  0.23400  0.23600  1.0000
  O   O5        1.0  0.96300  0.55900  0.24100  1.0000
  O   O6        1.0  0.71300  0.07440  0.75700  1.0000
  O   O7        1.0  0.38000  0.77900  0.76100  1.0000
  O   O8        1.0  0.88400  0.78000  0.76200  1.0000
  O   O9        1.0  0.22200  0.08240  0.76400  1.0000
  O   O10       1.0  0.03640  0.40800  0.77000  1.0000
  O   O11       1.0  0.53000  0.40300  0.77100  1.0000
  Sn  Sn1       1.0  0.58700  0.84000  0.99700  1.0000
  Sn  Sn2       1.0  0.07880  0.83400  0.99900  1.0000
