data_image0
_chemical_formula_structural       Li8Mn2Np2O11
_chemical_formula_sum              "Li8 Mn2 Np2 O11"
_cell_length_a       10.7716
_cell_length_b       5.37453
_cell_length_c       5.15203
_cell_angle_alpha    98.4143
_cell_angle_beta     99.0838
_cell_angle_gamma    120.591

_space_group_name_H-M_alt    "P 1"
_space_group_IT_number       1

loop_
  _space_group_symop_operation_xyz
  'x, y, z'

loop_
  _atom_site_type_symbol
  _atom_site_label
  _atom_site_symmetry_multiplicity
  _atom_site_fract_x
  _atom_site_fract_y
  _atom_site_fract_z
  _atom_site_occupancy
  Li  Li1       1.0  0.82000  0.33700  0.49200  1.0000
  Li  Li2       1.0  0.49200  0.01350  0.50100  1.0000
  Li  Li3       1.0  0.67400  0.64000  0.50400  1.0000
  Li  Li4       1.0  0.95500  0.97700  0.51000  1.0000
  Li  Li5       1.0  0.36300  0.35000  0.51100  1.0000
  Li  Li6       1.0  0.20300  0.73000  0.51400  1.0000
  Li  Li7       1.0  0.25500  0.47800  0.92600  1.0000
  Li  Li8       1.0  0.74000  0.49600  0.98700  1.0000
  Mn  Mn1       1.0  0.42000  0.17700  0.00896  1.0000
  Mn  Mn2       1.0  0.90200  0.14800  0.99000  1.0000
  Np  Np1       1.0  0.57900  0.83700  0.00450  1.0000
  Np  Np2       1.0  0.08010  0.80200  0.98600  1.0000
  O   O1        1.0  0.60700  0.25000  0.23900  1.0000
  O   O2        1.0  0.44600  0.58300  0.24000  1.0000
  O   O3        1.0  0.30500  0.96100  0.24600  1.0000
  O   O4        1.0  0.78600  0.92300  0.25400  1.0000
  O   O5        1.0  0.97200  0.58100  0.27200  1.0000
  O   O6        1.0  0.37900  0.74500  0.73600  1.0000
  O   O7        1.0  0.70700  0.08710  0.75700  1.0000
  O   O8        1.0  0.23300  0.08860  0.76300  1.0000
  O   O9        1.0  0.87000  0.74800  0.76300  1.0000
  O   O10       1.0  0.53600  0.40600  0.77300  1.0000
  O   O11       1.0  0.05420  0.39200  0.77500  1.0000
