data_image0
_chemical_formula_structural       Li8O11Pr4
_chemical_formula_sum              "Li8 O11 Pr4"
_cell_length_a       12.2976
_cell_length_b       6.08457
_cell_length_c       4.9335
_cell_angle_alpha    98.231
_cell_angle_beta     96.224
_cell_angle_gamma    126.742

_space_group_name_H-M_alt    "P 1"
_space_group_IT_number       1

loop_
  _space_group_symop_operation_xyz
  'x, y, z'

loop_
  _atom_site_type_symbol
  _atom_site_label
  _atom_site_symmetry_multiplicity
  _atom_site_fract_x
  _atom_site_fract_y
  _atom_site_fract_z
  _atom_site_occupancy
  Li  Li1       1.0  0.76700  0.49300  0.00977  1.0000
  Li  Li2       1.0  0.23000  0.49500  0.04200  1.0000
  Li  Li3       1.0  0.94000  0.90200  0.41800  1.0000
  Li  Li4       1.0  0.80300  0.37600  0.48900  1.0000
  Li  Li5       1.0  0.69800  0.61900  0.49700  1.0000
  Li  Li6       1.0  0.20000  0.61400  0.50500  1.0000
  Li  Li7       1.0  0.55500  0.09190  0.55700  1.0000
  Li  Li8       1.0  0.28000  0.35600  0.55700  1.0000
  O   O1        1.0  0.75700  0.81900  0.20900  1.0000
  O   O2        1.0  0.24500  0.82000  0.21700  1.0000
  O   O3        1.0  0.62700  0.20500  0.22800  1.0000
  O   O4        1.0  0.94200  0.59000  0.25900  1.0000
  O   O5        1.0  0.10700  0.22100  0.29100  1.0000
  O   O6        1.0  0.52500  0.38600  0.61900  1.0000
  O   O7        1.0  0.39500  0.78200  0.69200  1.0000
  O   O8        1.0  0.72000  0.11300  0.73900  1.0000
  O   O9        1.0  0.87300  0.76400  0.74100  1.0000
  O   O10       1.0  0.09140  0.49600  0.78300  1.0000
  O   O11       1.0  0.30700  0.30900  0.93400  1.0000
  Pr  Pr1       1.0  0.92100  0.19600  0.02710  1.0000
  Pr  Pr2       1.0  0.42700  0.13400  0.02800  1.0000
  Pr  Pr3       1.0  0.56500  0.77000  0.94300  1.0000
  Pr  Pr4       1.0  0.08530  0.87700  0.95800  1.0000
