data_image0
_chemical_formula_structural       Ba7Ca2Cr2Mn3O20
_chemical_formula_sum              "Ba7 Ca2 Cr2 Mn3 O20"
_cell_length_a       5.87265
_cell_length_b       5.87265
_cell_length_c       17.5609
_cell_angle_alpha    80.3745
_cell_angle_beta     99.6255
_cell_angle_gamma    120

_space_group_name_H-M_alt    "P 1"
_space_group_IT_number       1

loop_
  _space_group_symop_operation_xyz
  'x, y, z'

loop_
  _atom_site_type_symbol
  _atom_site_label
  _atom_site_symmetry_multiplicity
  _atom_site_fract_x
  _atom_site_fract_y
  _atom_site_fract_z
  _atom_site_occupancy
  Ba  Ba1       1.0  0.00000  0.00000  0.00000  1.0000
  Ba  Ba2       1.0  0.38800  0.61200  0.16500  1.0000
  Ba  Ba3       1.0  0.77300  0.22700  0.31900  1.0000
  Ba  Ba4       1.0  0.14600  0.85400  0.43700  1.0000
  Ba  Ba5       1.0  0.85400  0.14600  0.56300  1.0000
  Ba  Ba6       1.0  0.22700  0.77300  0.68100  1.0000
  Ba  Ba7       1.0  0.61200  0.38800  0.83500  1.0000
  Ca  Ca1       1.0  0.07460  0.92500  0.22400  1.0000
  Ca  Ca2       1.0  0.92500  0.07460  0.77600  1.0000
  Cr  Cr1       1.0  0.69700  0.30300  0.09200  1.0000
  Cr  Cr2       1.0  0.30300  0.69700  0.90800  1.0000
  Mn  Mn1       1.0  0.45100  0.54900  0.35200  1.0000
  Mn  Mn2       1.0  0.50000  0.50000  0.50000  1.0000
  Mn  Mn3       1.0  0.54900  0.45100  0.64800  1.0000
  O   O1        1.0  0.33500  0.66500  0.00629  1.0000
  O   O2        1.0  0.86800  0.13100  0.12700  1.0000
  O   O3        1.0  0.39000  0.13200  0.12700  1.0000
  O   O4        1.0  0.86900  0.61000  0.12700  1.0000
  O   O5        1.0  0.27600  0.26100  0.29200  1.0000
  O   O6        1.0  0.73900  0.72300  0.29200  1.0000
  O   O7        1.0  0.27700  0.72400  0.29200  1.0000
  O   O8        1.0  0.62400  0.37500  0.43000  1.0000
  O   O9        1.0  0.18100  0.37600  0.43000  1.0000
  O   O10       1.0  0.62500  0.81900  0.43000  1.0000
  O   O11       1.0  0.37500  0.18100  0.57000  1.0000
  O   O12       1.0  0.81900  0.62400  0.57000  1.0000
  O   O13       1.0  0.37600  0.62500  0.57000  1.0000
  O   O14       1.0  0.72300  0.27600  0.70800  1.0000
  O   O15       1.0  0.26100  0.27700  0.70800  1.0000
  O   O16       1.0  0.72400  0.73900  0.70800  1.0000
  O   O17       1.0  0.13100  0.39000  0.87300  1.0000
  O   O18       1.0  0.61000  0.86800  0.87300  1.0000
  O   O19       1.0  0.13200  0.86900  0.87300  1.0000
  O   O20       1.0  0.66500  0.33500  0.99400  1.0000
