data_image0
_chemical_formula_structural       K2Nd2O24P8
_chemical_formula_sum              "K2 Nd2 O24 P8"
_cell_length_a       7.26396
_cell_length_b       7.26396
_cell_length_c       10.564
_cell_angle_alpha    100.967
_cell_angle_beta     100.967
_cell_angle_gamma    115.063

_space_group_name_H-M_alt    "P 1"
_space_group_IT_number       1

loop_
  _space_group_symop_operation_xyz
  'x, y, z'

loop_
  _atom_site_type_symbol
  _atom_site_label
  _atom_site_symmetry_multiplicity
  _atom_site_fract_x
  _atom_site_fract_y
  _atom_site_fract_z
  _atom_site_occupancy
  K   K1        1.0  0.68200  0.81800  0.25000  1.0000
  K   K2        1.0  0.31800  0.18200  0.75000  1.0000
  Nd  Nd1       1.0  0.38000  0.12000  0.25000  1.0000
  Nd  Nd2       1.0  0.62000  0.88000  0.75000  1.0000
  O   O1        1.0  0.36300  0.83300  0.07810  1.0000
  O   O2        1.0  0.78700  0.54000  0.08220  1.0000
  O   O3        1.0  0.01200  0.36100  0.08770  1.0000
  O   O4        1.0  0.33200  0.31200  0.09360  1.0000
  O   O5        1.0  0.00475  0.92100  0.11400  1.0000
  O   O6        1.0  0.70500  0.24100  0.18200  1.0000
  O   O7        1.0  0.25900  0.79500  0.31800  1.0000
  O   O8        1.0  0.57900  0.49500  0.38600  1.0000
  O   O9        1.0  0.18800  0.16800  0.40600  1.0000
  O   O10       1.0  0.13900  0.48800  0.41200  1.0000
  O   O11       1.0  0.96000  0.71300  0.41800  1.0000
  O   O12       1.0  0.66700  0.13700  0.42200  1.0000
  O   O13       1.0  0.33300  0.86300  0.57800  1.0000
  O   O14       1.0  0.03980  0.28700  0.58200  1.0000
  O   O15       1.0  0.86100  0.51200  0.58800  1.0000
  O   O16       1.0  0.81200  0.83200  0.59400  1.0000
  O   O17       1.0  0.42100  0.50500  0.61400  1.0000
  O   O18       1.0  0.74100  0.20500  0.68200  1.0000
  O   O19       1.0  0.29500  0.75900  0.81800  1.0000
  O   O20       1.0  0.99500  0.07880  0.88600  1.0000
  O   O21       1.0  0.66800  0.68800  0.90600  1.0000
  O   O22       1.0  0.98800  0.63900  0.91200  1.0000
  O   O23       1.0  0.21300  0.46000  0.91800  1.0000
  O   O24       1.0  0.63700  0.16700  0.92200  1.0000
  P   P1        1.0  0.86500  0.71400  0.00250  1.0000
  P   P2        1.0  0.76600  0.30600  0.06440  1.0000
  P   P3        1.0  0.19400  0.73400  0.43600  1.0000
  P   P4        1.0  0.78600  0.63500  0.49700  1.0000
  P   P5        1.0  0.21400  0.36500  0.50300  1.0000
  P   P6        1.0  0.80600  0.26600  0.56400  1.0000
  P   P7        1.0  0.23400  0.69400  0.93600  1.0000
  P   P8        1.0  0.13500  0.28600  0.99700  1.0000
