data_image0
_chemical_formula_structural       Fe2H4Ni3O20Se6
_chemical_formula_sum              "Fe2 H4 Ni3 O20 Se6"
_cell_length_a       6.43226
_cell_length_b       7.8958
_cell_length_c       8.52339
_cell_angle_alpha    85.8887
_cell_angle_beta     79.2581
_cell_angle_gamma    76.0155

_space_group_name_H-M_alt    "P 1"
_space_group_IT_number       1

loop_
  _space_group_symop_operation_xyz
  'x, y, z'

loop_
  _atom_site_type_symbol
  _atom_site_label
  _atom_site_symmetry_multiplicity
  _atom_site_fract_x
  _atom_site_fract_y
  _atom_site_fract_z
  _atom_site_occupancy
  Fe  Fe1       1.0  0.68500  0.82500  0.22900  1.0000
  Fe  Fe2       1.0  0.31500  0.17500  0.77100  1.0000
  H   H1        1.0  0.32200  0.96100  0.04980  1.0000
  H   H2        1.0  0.13000  0.14100  0.06870  1.0000
  H   H3        1.0  0.87000  0.85900  0.93100  1.0000
  H   H4        1.0  0.67800  0.03920  0.95000  1.0000
  Ni  Ni1       1.0  0.86400  0.10200  0.38200  1.0000
  Ni  Ni2       1.0  0.50000  0.50000  0.50000  1.0000
  Ni  Ni3       1.0  0.13600  0.89800  0.61800  1.0000
  O   O1        1.0  0.73300  0.92400  0.00237  1.0000
  O   O2        1.0  0.86300  0.59900  0.14500  1.0000
  O   O3        1.0  0.40400  0.80200  0.17700  1.0000
  O   O4        1.0  0.94300  0.25300  0.19000  1.0000
  O   O5        1.0  0.97700  0.87400  0.25300  1.0000
  O   O6        1.0  0.53700  0.44300  0.26800  1.0000
  O   O7        1.0  0.58200  0.06720  0.32000  1.0000
  O   O8        1.0  0.17300  0.05720  0.42400  1.0000
  O   O9        1.0  0.65600  0.70900  0.45400  1.0000
  O   O10       1.0  0.22100  0.68500  0.47000  1.0000
  O   O11       1.0  0.77900  0.31500  0.53000  1.0000
  O   O12       1.0  0.34400  0.29100  0.54600  1.0000
  O   O13       1.0  0.82700  0.94300  0.57600  1.0000
  O   O14       1.0  0.41800  0.93300  0.68000  1.0000
  O   O15       1.0  0.46300  0.55700  0.73200  1.0000
  O   O16       1.0  0.02350  0.12600  0.74700  1.0000
  O   O17       1.0  0.05670  0.74700  0.81000  1.0000
  O   O18       1.0  0.59600  0.19800  0.82300  1.0000
  O   O19       1.0  0.13700  0.40100  0.85500  1.0000
  O   O20       1.0  0.26700  0.07610  0.99800  1.0000
  Se  Se1       1.0  0.76100  0.42100  0.11700  1.0000
  Se  Se2       1.0  0.19900  0.69900  0.26900  1.0000
  Se  Se3       1.0  0.32400  0.20900  0.36500  1.0000
  Se  Se4       1.0  0.67600  0.79100  0.63500  1.0000
  Se  Se5       1.0  0.80100  0.30100  0.73100  1.0000
  Se  Se6       1.0  0.23900  0.57900  0.88300  1.0000
