data_image0
_chemical_formula_structural       Cl24Cs6Re6
_chemical_formula_sum              "Cl24 Cs6 Re6"
_cell_length_a       10.0011
_cell_length_b       10.0011
_cell_length_c       10.7359
_cell_angle_alpha    90
_cell_angle_beta     90
_cell_angle_gamma    89.9086

_space_group_name_H-M_alt    "P 1"
_space_group_IT_number       1

loop_
  _space_group_symop_operation_xyz
  'x, y, z'

loop_
  _atom_site_type_symbol
  _atom_site_label
  _atom_site_symmetry_multiplicity
  _atom_site_fract_x
  _atom_site_fract_y
  _atom_site_fract_z
  _atom_site_occupancy
  Cl  Cl1       1.0  0.07730  0.63700  0.02400  1.0000
  Cl  Cl2       1.0  0.66800  0.06730  0.07420  1.0000
  Cl  Cl3       1.0  0.76900  0.52600  0.09950  1.0000
  Cl  Cl4       1.0  0.18100  0.32700  0.09990  1.0000
  Cl  Cl5       1.0  0.89400  0.25900  0.25000  1.0000
  Cl  Cl6       1.0  0.30300  0.57400  0.25000  1.0000
  Cl  Cl7       1.0  0.89500  0.77900  0.25000  1.0000
  Cl  Cl8       1.0  0.19500  0.87200  0.25000  1.0000
  Cl  Cl9       1.0  0.18100  0.32700  0.40000  1.0000
  Cl  Cl10      1.0  0.76900  0.52600  0.40000  1.0000
  Cl  Cl11      1.0  0.66800  0.06730  0.42600  1.0000
  Cl  Cl12      1.0  0.07730  0.63700  0.47600  1.0000
  Cl  Cl13      1.0  0.36300  0.92300  0.52400  1.0000
  Cl  Cl14      1.0  0.93300  0.33200  0.57400  1.0000
  Cl  Cl15      1.0  0.47400  0.23100  0.60000  1.0000
  Cl  Cl16      1.0  0.67300  0.81900  0.60000  1.0000
  Cl  Cl17      1.0  0.22100  0.10500  0.75000  1.0000
  Cl  Cl18      1.0  0.74100  0.10600  0.75000  1.0000
  Cl  Cl19      1.0  0.42600  0.69700  0.75000  1.0000
  Cl  Cl20      1.0  0.12800  0.80500  0.75000  1.0000
  Cl  Cl21      1.0  0.67300  0.81900  0.90000  1.0000
  Cl  Cl22      1.0  0.47400  0.23100  0.90000  1.0000
  Cl  Cl23      1.0  0.93300  0.33200  0.92600  1.0000
  Cl  Cl24      1.0  0.36300  0.92300  0.97600  1.0000
  Cs  Cs1       1.0  0.00000  0.00036  0.00000  1.0000
  Cs  Cs2       1.0  0.51500  0.30100  0.25000  1.0000
  Cs  Cs3       1.0  0.55800  0.80100  0.25000  1.0000
  Cs  Cs4       1.0  0.00000  0.00036  0.50000  1.0000
  Cs  Cs5       1.0  0.19900  0.44200  0.75000  1.0000
  Cs  Cs6       1.0  0.69900  0.48500  0.75000  1.0000
  Re  Re1       1.0  0.98600  0.44700  0.13600  1.0000
  Re  Re2       1.0  0.07940  0.63700  0.25000  1.0000
  Re  Re3       1.0  0.98600  0.44700  0.36400  1.0000
  Re  Re4       1.0  0.55300  0.01430  0.63600  1.0000
  Re  Re5       1.0  0.36300  0.92100  0.75000  1.0000
  Re  Re6       1.0  0.55300  0.01430  0.86400  1.0000
