data_image0
_chemical_formula_structural       Ho2K2O24P8
_chemical_formula_sum              "Ho2 K2 O24 P8"
_cell_length_a       7.20331
_cell_length_b       7.20331
_cell_length_c       10.3512
_cell_angle_alpha    101.238
_cell_angle_beta     101.238
_cell_angle_gamma    115.086

_space_group_name_H-M_alt    "P 1"
_space_group_IT_number       1

loop_
  _space_group_symop_operation_xyz
  'x, y, z'

loop_
  _atom_site_type_symbol
  _atom_site_label
  _atom_site_symmetry_multiplicity
  _atom_site_fract_x
  _atom_site_fract_y
  _atom_site_fract_z
  _atom_site_occupancy
  Ho  Ho1       1.0  0.38100  0.11900  0.25000  1.0000
  Ho  Ho2       1.0  0.61900  0.88100  0.75000  1.0000
  K   K1        1.0  0.68300  0.81700  0.25000  1.0000
  K   K2        1.0  0.31700  0.18300  0.75000  1.0000
  O   O1        1.0  0.77200  0.53500  0.07330  1.0000
  O   O2        1.0  0.36700  0.84400  0.08160  1.0000
  O   O3        1.0  0.00917  0.36300  0.09210  1.0000
  O   O4        1.0  0.32600  0.30200  0.10100  1.0000
  O   O5        1.0  0.01240  0.92100  0.11600  1.0000
  O   O6        1.0  0.69600  0.24600  0.18400  1.0000
  O   O7        1.0  0.25400  0.80400  0.31600  1.0000
  O   O8        1.0  0.57900  0.48800  0.38400  1.0000
  O   O9        1.0  0.19800  0.17400  0.39900  1.0000
  O   O10       1.0  0.13700  0.49100  0.40800  1.0000
  O   O11       1.0  0.65600  0.13300  0.41800  1.0000
  O   O12       1.0  0.96500  0.72800  0.42700  1.0000
  O   O13       1.0  0.03510  0.27200  0.57300  1.0000
  O   O14       1.0  0.34400  0.86700  0.58200  1.0000
  O   O15       1.0  0.86300  0.50900  0.59200  1.0000
  O   O16       1.0  0.80200  0.82600  0.60100  1.0000
  O   O17       1.0  0.42100  0.51200  0.61600  1.0000
  O   O18       1.0  0.74600  0.19600  0.68400  1.0000
  O   O19       1.0  0.30400  0.75400  0.81600  1.0000
  O   O20       1.0  0.98800  0.07880  0.88400  1.0000
  O   O21       1.0  0.67400  0.69800  0.89900  1.0000
  O   O22       1.0  0.99100  0.63700  0.90800  1.0000
  O   O23       1.0  0.63300  0.15600  0.91800  1.0000
  O   O24       1.0  0.22800  0.46500  0.92700  1.0000
  P   P1        1.0  0.13300  0.28300  0.00173  1.0000
  P   P2        1.0  0.75900  0.30400  0.06350  1.0000
  P   P3        1.0  0.19600  0.74100  0.43600  1.0000
  P   P4        1.0  0.21700  0.36700  0.49800  1.0000
  P   P5        1.0  0.78300  0.63300  0.50200  1.0000
  P   P6        1.0  0.80400  0.25900  0.56400  1.0000
  P   P7        1.0  0.24100  0.69600  0.93600  1.0000
  P   P8        1.0  0.86700  0.71700  0.99800  1.0000
