data_image0
_chemical_formula_structural       Cd2Mn3O8
_chemical_formula_sum              "Cd2 Mn3 O8"
_cell_length_a       4.97229
_cell_length_b       5.84724
_cell_length_c       6.12421
_cell_angle_alpha    118.515
_cell_angle_beta     106.832
_cell_angle_gamma    90

_space_group_name_H-M_alt    "P 1"
_space_group_IT_number       1

loop_
  _space_group_symop_operation_xyz
  'x, y, z'

loop_
  _atom_site_type_symbol
  _atom_site_label
  _atom_site_symmetry_multiplicity
  _atom_site_fract_x
  _atom_site_fract_y
  _atom_site_fract_z
  _atom_site_occupancy
  Cd  Cd1       1.0  0.66100  0.72100  0.44100  1.0000
  Cd  Cd2       1.0  0.33900  0.27900  0.55900  1.0000
  Mn  Mn1       1.0  0.50000  0.00000  0.00000  1.0000
  Mn  Mn2       1.0  0.00000  0.25800  0.00000  1.0000
  Mn  Mn3       1.0  0.00000  0.74200  0.00000  1.0000
  O   O1        1.0  0.90300  0.09930  0.19900  1.0000
  O   O2        1.0  0.39000  0.32700  0.20800  1.0000
  O   O3        1.0  0.39000  0.88100  0.20800  1.0000
  O   O4        1.0  0.95700  0.60600  0.21300  1.0000
  O   O5        1.0  0.04280  0.39400  0.78700  1.0000
  O   O6        1.0  0.61000  0.11900  0.79200  1.0000
  O   O7        1.0  0.61000  0.67300  0.79200  1.0000
  O   O8        1.0  0.09720  0.90100  0.80100  1.0000
