data_image0
_chemical_formula_structural       Li8Mn2O11Tc2
_chemical_formula_sum              "Li8 Mn2 O11 Tc2"
_cell_length_a       10.1082
_cell_length_b       5.11283
_cell_length_c       5.05345
_cell_angle_alpha    100.247
_cell_angle_beta     99.3111
_cell_angle_gamma    120.183

_space_group_name_H-M_alt    "P 1"
_space_group_IT_number       1

loop_
  _space_group_symop_operation_xyz
  'x, y, z'

loop_
  _atom_site_type_symbol
  _atom_site_label
  _atom_site_symmetry_multiplicity
  _atom_site_fract_x
  _atom_site_fract_y
  _atom_site_fract_z
  _atom_site_occupancy
  Li  Li1       1.0  0.66500  0.65800  0.49500  1.0000
  Li  Li2       1.0  0.99800  0.99000  0.49700  1.0000
  Li  Li3       1.0  0.34000  0.37700  0.50000  1.0000
  Li  Li4       1.0  0.82600  0.33800  0.50300  1.0000
  Li  Li5       1.0  0.16000  0.62600  0.52200  1.0000
  Li  Li6       1.0  0.51800  0.03180  0.52400  1.0000
  Li  Li7       1.0  0.24800  0.46600  0.97700  1.0000
  Li  Li8       1.0  0.74600  0.50100  0.99700  1.0000
  Mn  Mn1       1.0  0.91700  0.16700  0.00365  1.0000
  Mn  Mn2       1.0  0.40900  0.16200  0.99300  1.0000
  O   O1        1.0  0.45600  0.57200  0.22300  1.0000
  O   O2        1.0  0.78900  0.93300  0.23100  1.0000
  O   O3        1.0  0.60200  0.22600  0.23500  1.0000
  O   O4        1.0  0.12600  0.22800  0.24600  1.0000
  O   O5        1.0  0.97400  0.58600  0.24800  1.0000
  O   O6        1.0  0.53700  0.43000  0.74500  1.0000
  O   O7        1.0  0.21100  0.06110  0.75800  1.0000
  O   O8        1.0  0.37700  0.76700  0.76100  1.0000
  O   O9        1.0  0.88900  0.77600  0.76300  1.0000
  O   O10       1.0  0.70800  0.08300  0.76400  1.0000
  O   O11       1.0  0.04510  0.42600  0.78500  1.0000
  Tc  Tc1       1.0  0.08620  0.83300  0.00598  1.0000
  Tc  Tc2       1.0  0.58100  0.83100  0.99200  1.0000
