data_image0
_chemical_formula_structural       H2PdTi2
_chemical_formula_sum              "H2 Pd1 Ti2"
_cell_length_a       2.83446
_cell_length_b       2.83858
_cell_length_c       6.54358
_cell_angle_alpha    102.527
_cell_angle_beta     102.508
_cell_angle_gamma    90

_space_group_name_H-M_alt    "P 1"
_space_group_IT_number       1

loop_
  _space_group_symop_operation_xyz
  'x, y, z'

loop_
  _atom_site_type_symbol
  _atom_site_label
  _atom_site_symmetry_multiplicity
  _atom_site_fract_x
  _atom_site_fract_y
  _atom_site_fract_z
  _atom_site_occupancy
  H   H1        1.0  0.18600  0.18600  0.37200  1.0000
  H   H2        1.0  0.81400  0.81400  0.62800  1.0000
  Pd  Pd1       1.0  0.00000  0.00000  0.00000  1.0000
  Ti  Ti1       1.0  0.65900  0.65900  0.31900  1.0000
  Ti  Ti2       1.0  0.34100  0.34100  0.68100  1.0000
