data_image0
_chemical_formula_structural       Na10O20P6
_chemical_formula_sum              "Na10 O20 P6"
_cell_length_a       5.17753
_cell_length_b       8.31317
_cell_length_c       11.1078
_cell_angle_alpha    92.3653
_cell_angle_beta     90
_cell_angle_gamma    108.144

_space_group_name_H-M_alt    "P 1"
_space_group_IT_number       1

loop_
  _space_group_symop_operation_xyz
  'x, y, z'

loop_
  _atom_site_type_symbol
  _atom_site_label
  _atom_site_symmetry_multiplicity
  _atom_site_fract_x
  _atom_site_fract_y
  _atom_site_fract_z
  _atom_site_occupancy
  Na  Na1       1.0  0.50000  0.50000  0.00000  1.0000
  Na  Na2       1.0  0.70300  0.92400  0.03950  1.0000
  Na  Na3       1.0  0.89300  0.31600  0.20900  1.0000
  Na  Na4       1.0  0.57700  0.68400  0.29100  1.0000
  Na  Na5       1.0  0.77900  0.07630  0.46000  1.0000
  Na  Na6       1.0  0.00000  0.50000  0.50000  1.0000
  Na  Na7       1.0  0.22100  0.92400  0.54000  1.0000
  Na  Na8       1.0  0.42300  0.31600  0.70900  1.0000
  Na  Na9       1.0  0.10700  0.68400  0.79100  1.0000
  Na  Na10      1.0  0.29700  0.07630  0.96000  1.0000
  O   O1        1.0  0.03380  0.24100  0.02200  1.0000
  O   O2        1.0  0.33700  0.69700  0.10700  1.0000
  O   O3        1.0  0.82800  0.55600  0.15000  1.0000
  O   O4        1.0  0.49500  0.08130  0.15200  1.0000
  O   O5        1.0  0.03070  0.86800  0.19200  1.0000
  O   O6        1.0  0.16300  0.13200  0.30800  1.0000
  O   O7        1.0  0.41300  0.91900  0.34800  1.0000
  O   O8        1.0  0.27200  0.44400  0.35000  1.0000
  O   O9        1.0  0.63900  0.30300  0.39300  1.0000
  O   O10       1.0  0.79300  0.75900  0.47800  1.0000
  O   O11       1.0  0.20700  0.24100  0.52200  1.0000
  O   O12       1.0  0.36100  0.69700  0.60700  1.0000
  O   O13       1.0  0.72800  0.55600  0.65000  1.0000
  O   O14       1.0  0.58700  0.08130  0.65200  1.0000
  O   O15       1.0  0.83700  0.86800  0.69200  1.0000
  O   O16       1.0  0.96900  0.13200  0.80800  1.0000
  O   O17       1.0  0.50500  0.91900  0.84800  1.0000
  O   O18       1.0  0.17200  0.44400  0.85000  1.0000
  O   O19       1.0  0.66300  0.30300  0.89300  1.0000
  O   O20       1.0  0.96600  0.75900  0.97800  1.0000
  P   P1        1.0  0.04670  0.70300  0.09820  1.0000
  P   P2        1.0  0.30300  0.00000  0.25000  1.0000
  P   P3        1.0  0.34400  0.29700  0.40200  1.0000
  P   P4        1.0  0.65600  0.70300  0.59800  1.0000
  P   P5        1.0  0.69700  0.00000  0.75000  1.0000
  P   P6        1.0  0.95300  0.29700  0.90200  1.0000
