data_image0
_chemical_formula_structural       Co12Hf8Si16
_chemical_formula_sum              "Co12 Hf8 Si16"
_cell_length_a       6.7309
_cell_length_b       5.18743
_cell_length_c       13.6589
_cell_angle_alpha    90
_cell_angle_beta     90
_cell_angle_gamma    90

_space_group_name_H-M_alt    "P 1"
_space_group_IT_number       1

loop_
  _space_group_symop_operation_xyz
  'x, y, z'

loop_
  _atom_site_type_symbol
  _atom_site_label
  _atom_site_symmetry_multiplicity
  _atom_site_fract_x
  _atom_site_fract_y
  _atom_site_fract_z
  _atom_site_occupancy
  Co  Co1       1.0  0.22400  0.49400  0.01830  1.0000
  Co  Co2       1.0  0.27600  0.99400  0.01830  1.0000
  Co  Co3       1.0  0.50000  0.27600  0.25000  1.0000
  Co  Co4       1.0  0.00000  0.77600  0.25000  1.0000
  Co  Co5       1.0  0.77600  0.49400  0.48200  1.0000
  Co  Co6       1.0  0.72400  0.99400  0.48200  1.0000
  Co  Co7       1.0  0.27600  0.00587  0.51800  1.0000
  Co  Co8       1.0  0.22400  0.50600  0.51800  1.0000
  Co  Co9       1.0  0.00000  0.22400  0.75000  1.0000
  Co  Co10      1.0  0.50000  0.72400  0.75000  1.0000
  Co  Co11      1.0  0.72400  0.00587  0.98200  1.0000
  Co  Co12      1.0  0.77600  0.50600  0.98200  1.0000
  Hf  Hf1       1.0  0.89900  0.27000  0.14600  1.0000
  Hf  Hf2       1.0  0.60100  0.77000  0.14600  1.0000
  Hf  Hf3       1.0  0.10100  0.27000  0.35400  1.0000
  Hf  Hf4       1.0  0.39900  0.77000  0.35400  1.0000
  Hf  Hf5       1.0  0.60100  0.23000  0.64600  1.0000
  Hf  Hf6       1.0  0.89900  0.73000  0.64600  1.0000
  Hf  Hf7       1.0  0.39900  0.23000  0.85400  1.0000
  Hf  Hf8       1.0  0.10100  0.73000  0.85400  1.0000
  Si  Si1       1.0  0.51900  0.28400  0.06840  1.0000
  Si  Si2       1.0  0.98100  0.78400  0.06840  1.0000
  Si  Si3       1.0  0.25400  0.02070  0.18700  1.0000
  Si  Si4       1.0  0.24600  0.52100  0.18700  1.0000
  Si  Si5       1.0  0.74600  0.02070  0.31300  1.0000
  Si  Si6       1.0  0.75400  0.52100  0.31300  1.0000
  Si  Si7       1.0  0.48100  0.28400  0.43200  1.0000
  Si  Si8       1.0  0.01880  0.78400  0.43200  1.0000
  Si  Si9       1.0  0.98100  0.21600  0.56800  1.0000
  Si  Si10      1.0  0.51900  0.71600  0.56800  1.0000
  Si  Si11      1.0  0.24600  0.47900  0.68700  1.0000
  Si  Si12      1.0  0.25400  0.97900  0.68700  1.0000
  Si  Si13      1.0  0.75400  0.47900  0.81300  1.0000
  Si  Si14      1.0  0.74600  0.97900  0.81300  1.0000
  Si  Si15      1.0  0.01880  0.21600  0.93200  1.0000
  Si  Si16      1.0  0.48100  0.71600  0.93200  1.0000
