data_image0
_chemical_formula_structural       As16Ca12Si8
_chemical_formula_sum              "As16 Ca12 Si8"
_cell_length_a       7.30908
_cell_length_b       17.7738
_cell_length_c       7.18514
_cell_angle_alpha    90
_cell_angle_beta     111.678
_cell_angle_gamma    90

_space_group_name_H-M_alt    "P 1"
_space_group_IT_number       1

loop_
  _space_group_symop_operation_xyz
  'x, y, z'

loop_
  _atom_site_type_symbol
  _atom_site_label
  _atom_site_symmetry_multiplicity
  _atom_site_fract_x
  _atom_site_fract_y
  _atom_site_fract_z
  _atom_site_occupancy
  As  As1       1.0  0.03620  0.81300  0.22200  1.0000
  As  As2       1.0  0.50600  0.69600  0.23000  1.0000
  As  As3       1.0  0.50000  0.93200  0.24300  1.0000
  As  As4       1.0  0.00722  0.56100  0.25000  1.0000
  As  As5       1.0  0.99300  0.06120  0.25000  1.0000
  As  As6       1.0  0.50000  0.43200  0.25700  1.0000
  As  As7       1.0  0.49400  0.19600  0.27000  1.0000
  As  As8       1.0  0.96400  0.31300  0.27800  1.0000
  As  As9       1.0  0.03620  0.68700  0.72200  1.0000
  As  As10      1.0  0.50600  0.80400  0.73000  1.0000
  As  As11      1.0  0.50000  0.56800  0.74300  1.0000
  As  As12      1.0  0.00721  0.93900  0.75000  1.0000
  As  As13      1.0  0.99300  0.43900  0.75000  1.0000
  As  As14      1.0  0.50000  0.06780  0.75700  1.0000
  As  As15      1.0  0.49400  0.30400  0.77000  1.0000
  As  As16      1.0  0.96400  0.18700  0.77800  1.0000
  Ca  Ca1       1.0  0.26100  0.56000  0.00195  1.0000
  Ca  Ca2       1.0  0.25500  0.05940  0.01220  1.0000
  Ca  Ca3       1.0  0.21800  0.31600  0.01350  1.0000
  Ca  Ca4       1.0  0.78200  0.81600  0.48700  1.0000
  Ca  Ca5       1.0  0.74500  0.55900  0.48800  1.0000
  Ca  Ca6       1.0  0.73900  0.06020  0.49800  1.0000
  Ca  Ca7       1.0  0.26100  0.94000  0.50200  1.0000
  Ca  Ca8       1.0  0.25500  0.44100  0.51200  1.0000
  Ca  Ca9       1.0  0.21800  0.18400  0.51300  1.0000
  Ca  Ca10      1.0  0.78200  0.68400  0.98700  1.0000
  Ca  Ca11      1.0  0.74500  0.94100  0.98800  1.0000
  Ca  Ca12      1.0  0.73900  0.44000  0.99800  1.0000
  Si  Si1       1.0  0.21200  0.87000  0.02970  1.0000
  Si  Si2       1.0  0.68400  0.24000  0.07940  1.0000
  Si  Si3       1.0  0.31600  0.74000  0.42100  1.0000
  Si  Si4       1.0  0.78800  0.37000  0.47000  1.0000
  Si  Si5       1.0  0.21200  0.63000  0.53000  1.0000
  Si  Si6       1.0  0.68400  0.26000  0.57900  1.0000
  Si  Si7       1.0  0.31600  0.76000  0.92100  1.0000
  Si  Si8       1.0  0.78800  0.13000  0.97000  1.0000
