data_image0
_chemical_formula_structural       Li8Mn2O11Ti2
_chemical_formula_sum              "Li8 Mn2 O11 Ti2"
_cell_length_a       10.1904
_cell_length_b       5.03016
_cell_length_c       5.0573
_cell_angle_alpha    100.442
_cell_angle_beta     99.5877
_cell_angle_gamma    119.833

_space_group_name_H-M_alt    "P 1"
_space_group_IT_number       1

loop_
  _space_group_symop_operation_xyz
  'x, y, z'

loop_
  _atom_site_type_symbol
  _atom_site_label
  _atom_site_symmetry_multiplicity
  _atom_site_fract_x
  _atom_site_fract_y
  _atom_site_fract_z
  _atom_site_occupancy
  Li  Li1       1.0  0.99500  0.99300  0.48800  1.0000
  Li  Li2       1.0  0.69800  0.69500  0.48900  1.0000
  Li  Li3       1.0  0.15600  0.63700  0.49000  1.0000
  Li  Li4       1.0  0.83400  0.35300  0.49500  1.0000
  Li  Li5       1.0  0.52200  0.07500  0.52700  1.0000
  Li  Li6       1.0  0.30800  0.29200  0.53200  1.0000
  Li  Li7       1.0  0.75300  0.50900  0.99500  1.0000
  Li  Li8       1.0  0.22700  0.47400  0.99700  1.0000
  Mn  Mn1       1.0  0.08120  0.83300  0.00717  1.0000
  Mn  Mn2       1.0  0.59300  0.84400  0.99000  1.0000
  O   O1        1.0  0.78300  0.93000  0.22000  1.0000
  O   O2        1.0  0.96400  0.58200  0.22900  1.0000
  O   O3        1.0  0.61400  0.23100  0.23300  1.0000
  O   O4        1.0  0.11100  0.22700  0.23700  1.0000
  O   O5        1.0  0.31400  0.94800  0.26200  1.0000
  O   O6        1.0  0.71300  0.07930  0.74100  1.0000
  O   O7        1.0  0.87800  0.77700  0.74600  1.0000
  O   O8        1.0  0.38600  0.74300  0.76100  1.0000
  O   O9        1.0  0.03840  0.42900  0.76800  1.0000
  O   O10       1.0  0.22000  0.08280  0.79900  1.0000
  O   O11       1.0  0.52700  0.41700  0.80200  1.0000
  Ti  Ti1       1.0  0.91100  0.16400  0.97700  1.0000
  Ti  Ti2       1.0  0.40800  0.10200  0.98700  1.0000
