data_image0
_chemical_formula_structural       B6Fe2Nd5
_chemical_formula_sum              "B6 Fe2 Nd5"
_cell_length_a       5.48008
_cell_length_b       5.48008
_cell_length_c       8.71087
_cell_angle_alpha    71.6661
_cell_angle_beta     108.334
_cell_angle_gamma    120

_space_group_name_H-M_alt    "P 1"
_space_group_IT_number       1

loop_
  _space_group_symop_operation_xyz
  'x, y, z'

loop_
  _atom_site_type_symbol
  _atom_site_label
  _atom_site_symmetry_multiplicity
  _atom_site_fract_x
  _atom_site_fract_y
  _atom_site_fract_z
  _atom_site_occupancy
  B   B1        1.0  0.16600  0.16600  0.50000  1.0000
  B   B2        1.0  0.50000  0.16600  0.50000  1.0000
  B   B3        1.0  0.16600  0.50000  0.50000  1.0000
  B   B4        1.0  0.83400  0.50000  0.50000  1.0000
  B   B5        1.0  0.50000  0.83400  0.50000  1.0000
  B   B6        1.0  0.83400  0.83400  0.50000  1.0000
  Fe  Fe1       1.0  0.12200  0.87800  0.36500  1.0000
  Fe  Fe2       1.0  0.87800  0.12200  0.63500  1.0000
  Nd  Nd1       1.0  0.00000  0.00000  0.00000  1.0000
  Nd  Nd2       1.0  0.74900  0.25100  0.24600  1.0000
  Nd  Nd3       1.0  0.41700  0.58300  0.25100  1.0000
  Nd  Nd4       1.0  0.58300  0.41700  0.74900  1.0000
  Nd  Nd5       1.0  0.25100  0.74900  0.75400  1.0000
