data_image0
_chemical_formula_structural       Li8O11Pa4
_chemical_formula_sum              "Li8 O11 Pa4"
_cell_length_a       12.3699
_cell_length_b       5.60893
_cell_length_c       5.29389
_cell_angle_alpha    107.28
_cell_angle_beta     101.411
_cell_angle_gamma    115.346

_space_group_name_H-M_alt    "P 1"
_space_group_IT_number       1

loop_
  _space_group_symop_operation_xyz
  'x, y, z'

loop_
  _atom_site_type_symbol
  _atom_site_label
  _atom_site_symmetry_multiplicity
  _atom_site_fract_x
  _atom_site_fract_y
  _atom_site_fract_z
  _atom_site_occupancy
  Li  Li1       1.0  0.25600  0.51000  0.01140  1.0000
  Li  Li2       1.0  0.71600  0.63800  0.42000  1.0000
  Li  Li3       1.0  0.93100  0.95000  0.47700  1.0000
  Li  Li4       1.0  0.25200  0.73600  0.48500  1.0000
  Li  Li5       1.0  0.78300  0.21400  0.51100  1.0000
  Li  Li6       1.0  0.26300  0.27000  0.52900  1.0000
  Li  Li7       1.0  0.57600  0.09720  0.56800  1.0000
  Li  Li8       1.0  0.80000  0.57900  0.96900  1.0000
  O   O1        1.0  0.77300  0.88000  0.19700  1.0000
  O   O2        1.0  0.25900  0.90600  0.21900  1.0000
  O   O3        1.0  0.13300  0.30400  0.22100  1.0000
  O   O4        1.0  0.98100  0.70600  0.24300  1.0000
  O   O5        1.0  0.61900  0.20600  0.27800  1.0000
  O   O6        1.0  0.97700  0.34700  0.69400  1.0000
  O   O7        1.0  0.87700  0.79000  0.73900  1.0000
  O   O8        1.0  0.50600  0.30600  0.77100  1.0000
  O   O9        1.0  0.36900  0.70500  0.79600  1.0000
  O   O10       1.0  0.24200  0.10500  0.79700  1.0000
  O   O11       1.0  0.73400  0.15500  0.82400  1.0000
  Pa  Pa1       1.0  0.92700  0.23700  0.08360  1.0000
  Pa  Pa2       1.0  0.42200  0.16700  0.09340  1.0000
  Pa  Pa3       1.0  0.57500  0.77800  0.90900  1.0000
  Pa  Pa4       1.0  0.07870  0.84000  0.92000  1.0000
