data_image0
_chemical_formula_structural       Si16Zr20
_chemical_formula_sum              "Si16 Zr20"
_cell_length_a       7.15476
_cell_length_b       7.15476
_cell_length_c       13.0694
_cell_angle_alpha    90
_cell_angle_beta     90
_cell_angle_gamma    90

_space_group_name_H-M_alt    "P 1"
_space_group_IT_number       1

loop_
  _space_group_symop_operation_xyz
  'x, y, z'

loop_
  _atom_site_type_symbol
  _atom_site_label
  _atom_site_symmetry_multiplicity
  _atom_site_fract_x
  _atom_site_fract_y
  _atom_site_fract_z
  _atom_site_occupancy
  Si  Si1       1.0  0.19900  0.55000  0.06210  1.0000
  Si  Si2       1.0  0.79500  0.14700  0.07270  1.0000
  Si  Si3       1.0  0.70500  0.64700  0.17700  1.0000
  Si  Si4       1.0  0.30100  0.05020  0.18800  1.0000
  Si  Si5       1.0  0.95000  0.69900  0.31200  1.0000
  Si  Si6       1.0  0.35300  0.29500  0.32300  1.0000
  Si  Si7       1.0  0.85300  0.20500  0.42700  1.0000
  Si  Si8       1.0  0.45000  0.80100  0.43800  1.0000
  Si  Si9       1.0  0.80100  0.45000  0.56200  1.0000
  Si  Si10      1.0  0.20500  0.85300  0.57300  1.0000
  Si  Si11      1.0  0.29500  0.35300  0.67700  1.0000
  Si  Si12      1.0  0.69900  0.95000  0.68800  1.0000
  Si  Si13      1.0  0.05020  0.30100  0.81200  1.0000
  Si  Si14      1.0  0.64700  0.70500  0.82300  1.0000
  Si  Si15      1.0  0.14700  0.79500  0.92700  1.0000
  Si  Si16      1.0  0.55000  0.19900  0.93800  1.0000
  Zr  Zr1       1.0  0.17500  0.17500  0.00000  1.0000
  Zr  Zr2       1.0  0.50100  0.85000  0.03510  1.0000
  Zr  Zr3       1.0  0.00109  0.85400  0.12300  1.0000
  Zr  Zr4       1.0  0.49900  0.35400  0.12700  1.0000
  Zr  Zr5       1.0  0.99900  0.35000  0.21500  1.0000
  Zr  Zr6       1.0  0.32500  0.67500  0.25000  1.0000
  Zr  Zr7       1.0  0.65000  0.00123  0.28500  1.0000
  Zr  Zr8       1.0  0.64600  0.50100  0.37300  1.0000
  Zr  Zr9       1.0  0.14600  0.99900  0.37700  1.0000
  Zr  Zr10      1.0  0.15000  0.49900  0.46500  1.0000
  Zr  Zr11      1.0  0.82500  0.82500  0.50000  1.0000
  Zr  Zr12      1.0  0.49900  0.15000  0.53500  1.0000
  Zr  Zr13      1.0  0.99900  0.14600  0.62300  1.0000
  Zr  Zr14      1.0  0.50100  0.64600  0.62700  1.0000
  Zr  Zr15      1.0  0.00123  0.65000  0.71500  1.0000
  Zr  Zr16      1.0  0.67500  0.32500  0.75000  1.0000
  Zr  Zr17      1.0  0.35000  0.99900  0.78500  1.0000
  Zr  Zr18      1.0  0.35400  0.49900  0.87300  1.0000
  Zr  Zr19      1.0  0.85400  0.00109  0.87700  1.0000
  Zr  Zr20      1.0  0.85000  0.50100  0.96500  1.0000
