data_image0
_chemical_formula_structural       As2Ge4Te7
_chemical_formula_sum              "As2 Ge4 Te7"
_cell_length_a       4.18613
_cell_length_b       4.18613
_cell_length_c       23.8128
_cell_angle_alpha    95.0426
_cell_angle_beta     95.0426
_cell_angle_gamma    60

_space_group_name_H-M_alt    "P 1"
_space_group_IT_number       1

loop_
  _space_group_symop_operation_xyz
  'x, y, z'

loop_
  _atom_site_type_symbol
  _atom_site_label
  _atom_site_symmetry_multiplicity
  _atom_site_fract_x
  _atom_site_fract_y
  _atom_site_fract_z
  _atom_site_occupancy
  As  As1       1.0  0.45800  0.45800  0.37400  1.0000
  As  As2       1.0  0.54200  0.54200  0.62600  1.0000
  Ge  Ge1       1.0  0.69100  0.69100  0.07390  1.0000
  Ge  Ge2       1.0  0.07420  0.07420  0.22300  1.0000
  Ge  Ge3       1.0  0.92600  0.92600  0.77700  1.0000
  Ge  Ge4       1.0  0.30900  0.30900  0.92600  1.0000
  Te  Te1       1.0  0.00000  0.00000  0.00000  1.0000
  Te  Te2       1.0  0.38200  0.38200  0.14700  1.0000
  Te  Te3       1.0  0.76500  0.76500  0.29600  1.0000
  Te  Te4       1.0  0.14600  0.14600  0.43900  1.0000
  Te  Te5       1.0  0.85400  0.85400  0.56100  1.0000
  Te  Te6       1.0  0.23500  0.23500  0.70400  1.0000
  Te  Te7       1.0  0.61800  0.61800  0.85300  1.0000
