data_image0
_chemical_formula_structural       Fe2Li8Mn2O11
_chemical_formula_sum              "Fe2 Li8 Mn2 O11"
_cell_length_a       9.96875
_cell_length_b       5.02449
_cell_length_c       5.02108
_cell_angle_alpha    99.8476
_cell_angle_beta     99.7289
_cell_angle_gamma    119.865

_space_group_name_H-M_alt    "P 1"
_space_group_IT_number       1

loop_
  _space_group_symop_operation_xyz
  'x, y, z'

loop_
  _atom_site_type_symbol
  _atom_site_label
  _atom_site_symmetry_multiplicity
  _atom_site_fract_x
  _atom_site_fract_y
  _atom_site_fract_z
  _atom_site_occupancy
  Fe  Fe1       1.0  0.91700  0.17300  0.01270  1.0000
  Fe  Fe2       1.0  0.42600  0.18900  0.97100  1.0000
  Li  Li1       1.0  0.75000  0.50500  0.00629  1.0000
  Li  Li2       1.0  0.99800  0.98600  0.49300  1.0000
  Li  Li3       1.0  0.66500  0.66400  0.49400  1.0000
  Li  Li4       1.0  0.34000  0.39500  0.49700  1.0000
  Li  Li5       1.0  0.82600  0.33000  0.50200  1.0000
  Li  Li6       1.0  0.52400  0.00333  0.51600  1.0000
  Li  Li7       1.0  0.15700  0.63100  0.53000  1.0000
  Li  Li8       1.0  0.24500  0.45900  0.97600  1.0000
  Mn  Mn1       1.0  0.58300  0.84000  0.00200  1.0000
  Mn  Mn2       1.0  0.06650  0.82000  0.98500  1.0000
  O   O1        1.0  0.46000  0.58200  0.22300  1.0000
  O   O2        1.0  0.60600  0.21500  0.23400  1.0000
  O   O3        1.0  0.78100  0.92300  0.23700  1.0000
  O   O4        1.0  0.12200  0.21500  0.23800  1.0000
  O   O5        1.0  0.97800  0.60100  0.24200  1.0000
  O   O6        1.0  0.53700  0.43900  0.74900  1.0000
  O   O7        1.0  0.88400  0.76100  0.76100  1.0000
  O   O8        1.0  0.38600  0.77300  0.76300  1.0000
  O   O9        1.0  0.70800  0.07390  0.78000  1.0000
  O   O10       1.0  0.20700  0.04920  0.78200  1.0000
  O   O11       1.0  0.04300  0.43700  0.78300  1.0000
