data_image0
_chemical_formula_structural       CaCu2O7Sr2Tl
_chemical_formula_sum              "Ca1 Cu2 O7 Sr2 Tl1"
_cell_length_a       3.74252
_cell_length_b       3.74252
_cell_length_c       12.0998
_cell_angle_alpha    90
_cell_angle_beta     90
_cell_angle_gamma    90

_space_group_name_H-M_alt    "P 1"
_space_group_IT_number       1

loop_
  _space_group_symop_operation_xyz
  'x, y, z'

loop_
  _atom_site_type_symbol
  _atom_site_label
  _atom_site_symmetry_multiplicity
  _atom_site_fract_x
  _atom_site_fract_y
  _atom_site_fract_z
  _atom_site_occupancy
  Ca  Ca1       1.0  0.50000  0.50000  0.50000  1.0000
  Cu  Cu1       1.0  0.00000  0.00000  0.36000  1.0000
  Cu  Cu2       1.0  0.00000  0.00000  0.64000  1.0000
  O   O1        1.0  0.50000  0.50000  0.00000  1.0000
  O   O2        1.0  0.00000  0.00000  0.17300  1.0000
  O   O3        1.0  0.50000  0.00000  0.37200  1.0000
  O   O4        1.0  0.00000  0.50000  0.37200  1.0000
  O   O5        1.0  0.50000  0.00000  0.62800  1.0000
  O   O6        1.0  0.00000  0.50000  0.62800  1.0000
  O   O7        1.0  0.00000  0.00000  0.82700  1.0000
  Sr  Sr1       1.0  0.50000  0.50000  0.21000  1.0000
  Sr  Sr2       1.0  0.50000  0.50000  0.79000  1.0000
  Tl  Tl1       1.0  0.00000  0.00000  0.00000  1.0000
