data_image0
_chemical_formula_structural       Ba3O23Si4Ta6
_chemical_formula_sum              "Ba3 O23 Si4 Ta6"
_cell_length_a       9.08749
_cell_length_b       9.08749
_cell_length_c       7.52742
_cell_angle_alpha    90
_cell_angle_beta     90
_cell_angle_gamma    120

_space_group_name_H-M_alt    "P 1"
_space_group_IT_number       1

loop_
  _space_group_symop_operation_xyz
  'x, y, z'

loop_
  _atom_site_type_symbol
  _atom_site_label
  _atom_site_symmetry_multiplicity
  _atom_site_fract_x
  _atom_site_fract_y
  _atom_site_fract_z
  _atom_site_occupancy
  Ba  Ba1       1.0  0.59100  0.00000  0.50000  1.0000
  Ba  Ba2       1.0  0.41000  0.41000  0.50000  1.0000
  Ba  Ba3       1.0  0.00000  0.59100  0.50000  1.0000
  O   O1        1.0  0.28000  0.00000  0.00000  1.0000
  O   O2        1.0  0.00000  0.28000  0.00000  1.0000
  O   O3        1.0  0.66700  0.33300  0.00000  1.0000
  O   O4        1.0  0.33300  0.66700  0.00000  1.0000
  O   O5        1.0  0.72000  0.72000  0.00000  1.0000
  O   O6        1.0  0.82600  0.00000  0.26800  1.0000
  O   O7        1.0  0.00000  0.82600  0.26800  1.0000
  O   O8        1.0  0.17400  0.17400  0.26800  1.0000
  O   O9        1.0  0.70100  0.51500  0.29100  1.0000
  O   O10       1.0  0.51500  0.70100  0.29100  1.0000
  O   O11       1.0  0.81400  0.29900  0.29100  1.0000
  O   O12       1.0  0.29900  0.81400  0.29100  1.0000
  O   O13       1.0  0.48500  0.18600  0.29100  1.0000
  O   O14       1.0  0.18600  0.48500  0.29100  1.0000
  O   O15       1.0  0.48500  0.18600  0.70900  1.0000
  O   O16       1.0  0.18600  0.48500  0.70900  1.0000
  O   O17       1.0  0.81400  0.29900  0.70900  1.0000
  O   O18       1.0  0.29900  0.81400  0.70900  1.0000
  O   O19       1.0  0.70100  0.51500  0.70900  1.0000
  O   O20       1.0  0.51500  0.70100  0.70900  1.0000
  O   O21       1.0  0.17400  0.17400  0.73200  1.0000
  O   O22       1.0  0.82600  0.00000  0.73200  1.0000
  O   O23       1.0  0.00000  0.82600  0.73200  1.0000
  Si  Si1       1.0  0.66700  0.33300  0.21300  1.0000
  Si  Si2       1.0  0.33300  0.66700  0.21300  1.0000
  Si  Si3       1.0  0.66700  0.33300  0.78700  1.0000
  Si  Si4       1.0  0.33300  0.66700  0.78700  1.0000
  Ta  Ta1       1.0  0.76200  0.76200  0.25300  1.0000
  Ta  Ta2       1.0  0.23800  0.00000  0.25300  1.0000
  Ta  Ta3       1.0  0.00000  0.23800  0.25300  1.0000
  Ta  Ta4       1.0  0.23800  0.00000  0.74700  1.0000
  Ta  Ta5       1.0  0.00000  0.23800  0.74700  1.0000
  Ta  Ta6       1.0  0.76200  0.76200  0.74700  1.0000
