data_image0
_chemical_formula_structural       Cl2O7Sm2Ta2
_chemical_formula_sum              "Cl2 O7 Sm2 Ta2"
_cell_length_a       3.91542
_cell_length_b       6.87774
_cell_length_c       7.87778
_cell_angle_alpha    113.26
_cell_angle_beta     104.389
_cell_angle_gamma    90

_space_group_name_H-M_alt    "P 1"
_space_group_IT_number       1

loop_
  _space_group_symop_operation_xyz
  'x, y, z'

loop_
  _atom_site_type_symbol
  _atom_site_label
  _atom_site_symmetry_multiplicity
  _atom_site_fract_x
  _atom_site_fract_y
  _atom_site_fract_z
  _atom_site_occupancy
  Cl  Cl1       1.0  0.67900  0.56500  0.35800  1.0000
  Cl  Cl2       1.0  0.32100  0.43500  0.64200  1.0000
  O   O1        1.0  0.00000  0.50000  0.00000  1.0000
  O   O2        1.0  0.54600  0.84000  0.09230  1.0000
  O   O3        1.0  0.08360  0.15500  0.16700  1.0000
  O   O4        1.0  0.17700  0.93300  0.35400  1.0000
  O   O5        1.0  0.82300  0.06700  0.64600  1.0000
  O   O6        1.0  0.91600  0.84500  0.83300  1.0000
  O   O7        1.0  0.45400  0.16000  0.90800  1.0000
  Sm  Sm1       1.0  0.69400  0.16600  0.38700  1.0000
  Sm  Sm2       1.0  0.30600  0.83400  0.61300  1.0000
  Ta  Ta1       1.0  0.03490  0.80000  0.06990  1.0000
  Ta  Ta2       1.0  0.96500  0.20000  0.93000  1.0000
