data_image0
_chemical_formula_structural       Be2H16O16S2
_chemical_formula_sum              "Be2 H16 O16 S2"
_cell_length_a       7.6396
_cell_length_b       7.6396
_cell_length_c       7.6396
_cell_angle_alpha    117.556
_cell_angle_beta     94.2881
_cell_angle_gamma    117.556

_space_group_name_H-M_alt    "P 1"
_space_group_IT_number       1

loop_
  _space_group_symop_operation_xyz
  'x, y, z'

loop_
  _atom_site_type_symbol
  _atom_site_label
  _atom_site_symmetry_multiplicity
  _atom_site_fract_x
  _atom_site_fract_y
  _atom_site_fract_z
  _atom_site_occupancy
  Be  Be1       1.0  0.75000  0.50000  0.25000  1.0000
  Be  Be2       1.0  0.25000  0.50000  0.75000  1.0000
  H   H1        1.0  0.41200  0.15100  0.00691  1.0000
  H   H2        1.0  0.49300  0.84900  0.08820  1.0000
  H   H3        1.0  0.99300  0.40500  0.14400  1.0000
  H   H4        1.0  0.85600  0.84900  0.26100  1.0000
  H   H5        1.0  0.10200  0.69100  0.32900  1.0000
  H   H6        1.0  0.67100  0.77300  0.36300  1.0000
  H   H7        1.0  0.17100  0.30900  0.39800  1.0000
  H   H8        1.0  0.63700  0.30900  0.41000  1.0000
  H   H9        1.0  0.35600  0.59500  0.50700  1.0000
  H   H10       1.0  0.73900  0.59500  0.58800  1.0000
  H   H11       1.0  0.23900  0.15100  0.64400  1.0000
  H   H12       1.0  0.91200  0.40500  0.76100  1.0000
  H   H13       1.0  0.13700  0.22700  0.82900  1.0000
  H   H14       1.0  0.08960  0.69100  0.86300  1.0000
  H   H15       1.0  0.59000  0.22700  0.89800  1.0000
  H   H16       1.0  0.60200  0.77300  0.91000  1.0000
  O   O1        1.0  0.04890  0.21600  0.00633  1.0000
  O   O2        1.0  0.56500  0.25500  0.03300  1.0000
  O   O3        1.0  0.99400  0.04260  0.20900  1.0000
  O   O4        1.0  0.96700  0.53200  0.22200  1.0000
  O   O5        1.0  0.77800  0.74500  0.30900  1.0000
  O   O6        1.0  0.54900  0.04260  0.33300  1.0000
  O   O7        1.0  0.69100  0.46800  0.43500  1.0000
  O   O8        1.0  0.49400  0.78400  0.45100  1.0000
  O   O9        1.0  0.29100  0.95700  0.50600  1.0000
  O   O10       1.0  0.27800  0.46800  0.53300  1.0000
  O   O11       1.0  0.66700  0.21600  0.70900  1.0000
  O   O12       1.0  0.19100  0.25500  0.72200  1.0000
  O   O13       1.0  0.06450  0.53200  0.80900  1.0000
  O   O14       1.0  0.79100  0.78400  0.83300  1.0000
  O   O15       1.0  0.46700  0.74500  0.93500  1.0000
  O   O16       1.0  0.16700  0.95700  0.95100  1.0000
  S   S1        1.0  0.00000  0.00000  0.00000  1.0000
  S   S2        1.0  0.50000  0.00000  0.50000  1.0000
