data_image0
_chemical_formula_structural       Bi2Li8Mn2O11
_chemical_formula_sum              "Bi2 Li8 Mn2 O11"
_cell_length_a       10.6873
_cell_length_b       5.19323
_cell_length_c       5.18097
_cell_angle_alpha    100.011
_cell_angle_beta     98.8385
_cell_angle_gamma    120.337

_space_group_name_H-M_alt    "P 1"
_space_group_IT_number       1

loop_
  _space_group_symop_operation_xyz
  'x, y, z'

loop_
  _atom_site_type_symbol
  _atom_site_label
  _atom_site_symmetry_multiplicity
  _atom_site_fract_x
  _atom_site_fract_y
  _atom_site_fract_z
  _atom_site_occupancy
  Bi  Bi1       1.0  0.58600  0.84000  0.00665  1.0000
  Bi  Bi2       1.0  0.09020  0.88100  0.03750  1.0000
  Li  Li1       1.0  0.49700  0.00462  0.49800  1.0000
  Li  Li2       1.0  0.67600  0.65300  0.49900  1.0000
  Li  Li3       1.0  0.83600  0.35600  0.50600  1.0000
  Li  Li4       1.0  0.35200  0.32400  0.51500  1.0000
  Li  Li5       1.0  0.16800  0.69500  0.52100  1.0000
  Li  Li6       1.0  0.98200  0.99000  0.52500  1.0000
  Li  Li7       1.0  0.25000  0.51000  0.94600  1.0000
  Li  Li8       1.0  0.74600  0.49400  0.98300  1.0000
  Mn  Mn1       1.0  0.90600  0.16000  0.98700  1.0000
  Mn  Mn2       1.0  0.41300  0.15800  0.99500  1.0000
  O   O1        1.0  0.30700  0.92500  0.22700  1.0000
  O   O2        1.0  0.79900  0.92100  0.22700  1.0000
  O   O3        1.0  0.45400  0.54800  0.23100  1.0000
  O   O4        1.0  0.96500  0.53000  0.25200  1.0000
  O   O5        1.0  0.62800  0.24500  0.25700  1.0000
  O   O6        1.0  0.20100  0.08310  0.72300  1.0000
  O   O7        1.0  0.70100  0.06690  0.74400  1.0000
  O   O8        1.0  0.38300  0.77500  0.75500  1.0000
  O   O9        1.0  0.87000  0.77100  0.75700  1.0000
  O   O10       1.0  0.53200  0.40100  0.77100  1.0000
  O   O11       1.0  0.03740  0.42700  0.79100  1.0000
