data_image0
_chemical_formula_structural       Ni22Sc6Si8
_chemical_formula_sum              "Ni22 Sc6 Si8"
_cell_length_a       7.93122
_cell_length_b       7.93137
_cell_length_c       8.33286
_cell_angle_alpha    90
_cell_angle_beta     90
_cell_angle_gamma    119.999

_space_group_name_H-M_alt    "P 1"
_space_group_IT_number       1

loop_
  _space_group_symop_operation_xyz
  'x, y, z'

loop_
  _atom_site_type_symbol
  _atom_site_label
  _atom_site_symmetry_multiplicity
  _atom_site_fract_x
  _atom_site_fract_y
  _atom_site_fract_z
  _atom_site_occupancy
  Ni  Ni1       1.0  0.33300  0.66700  0.00382  1.0000
  Ni  Ni2       1.0  0.84800  0.69600  0.09310  1.0000
  Ni  Ni3       1.0  0.30500  0.15200  0.09310  1.0000
  Ni  Ni4       1.0  0.84800  0.15200  0.09310  1.0000
  Ni  Ni5       1.0  0.56100  0.12200  0.25000  1.0000
  Ni  Ni6       1.0  0.56100  0.43900  0.25000  1.0000
  Ni  Ni7       1.0  0.87800  0.43900  0.25000  1.0000
  Ni  Ni8       1.0  0.30500  0.15200  0.40700  1.0000
  Ni  Ni9       1.0  0.84800  0.15200  0.40700  1.0000
  Ni  Ni10      1.0  0.84800  0.69600  0.40700  1.0000
  Ni  Ni11      1.0  0.33300  0.66700  0.49600  1.0000
  Ni  Ni12      1.0  0.66700  0.33300  0.50400  1.0000
  Ni  Ni13      1.0  0.15200  0.30400  0.59300  1.0000
  Ni  Ni14      1.0  0.15200  0.84800  0.59300  1.0000
  Ni  Ni15      1.0  0.69500  0.84800  0.59300  1.0000
  Ni  Ni16      1.0  0.12200  0.56100  0.75000  1.0000
  Ni  Ni17      1.0  0.43900  0.56100  0.75000  1.0000
  Ni  Ni18      1.0  0.43900  0.87800  0.75000  1.0000
  Ni  Ni19      1.0  0.15200  0.84800  0.90700  1.0000
  Ni  Ni20      1.0  0.69500  0.84800  0.90700  1.0000
  Ni  Ni21      1.0  0.15200  0.30400  0.90700  1.0000
  Ni  Ni22      1.0  0.66700  0.33300  0.99600  1.0000
  Sc  Sc1       1.0  0.19700  0.39500  0.25000  1.0000
  Sc  Sc2       1.0  0.19700  0.80300  0.25000  1.0000
  Sc  Sc3       1.0  0.60500  0.80300  0.25000  1.0000
  Sc  Sc4       1.0  0.39500  0.19700  0.75000  1.0000
  Sc  Sc5       1.0  0.80300  0.19700  0.75000  1.0000
  Sc  Sc6       1.0  0.80300  0.60500  0.75000  1.0000
  Si  Si1       1.0  0.50000  0.00000  0.00000  1.0000
  Si  Si2       1.0  0.00000  0.50000  0.00000  1.0000
  Si  Si3       1.0  0.50000  0.50000  0.00000  1.0000
  Si  Si4       1.0  0.00000  0.00000  0.25000  1.0000
  Si  Si5       1.0  0.50000  0.00000  0.50000  1.0000
  Si  Si6       1.0  0.00000  0.50000  0.50000  1.0000
  Si  Si7       1.0  0.50000  0.50000  0.50000  1.0000
  Si  Si8       1.0  0.00000  0.00000  0.75000  1.0000
