data_image0
_chemical_formula_structural       Li8Mn2Mo2O11
_chemical_formula_sum              "Li8 Mn2 Mo2 O11"
_cell_length_a       10.3675
_cell_length_b       5.1251
_cell_length_c       5.10544
_cell_angle_alpha    99.7213
_cell_angle_beta     100.02
_cell_angle_gamma    120.653

_space_group_name_H-M_alt    "P 1"
_space_group_IT_number       1

loop_
  _space_group_symop_operation_xyz
  'x, y, z'

loop_
  _atom_site_type_symbol
  _atom_site_label
  _atom_site_symmetry_multiplicity
  _atom_site_fract_x
  _atom_site_fract_y
  _atom_site_fract_z
  _atom_site_occupancy
  Li  Li1       1.0  0.17400  0.65600  0.49900  1.0000
  Li  Li2       1.0  0.83400  0.33100  0.50000  1.0000
  Li  Li3       1.0  0.99800  0.00172  0.50100  1.0000
  Li  Li4       1.0  0.68900  0.65000  0.51100  1.0000
  Li  Li5       1.0  0.49300  0.03360  0.51500  1.0000
  Li  Li6       1.0  0.31600  0.31400  0.52800  1.0000
  Li  Li7       1.0  0.23700  0.50000  0.97800  1.0000
  Li  Li8       1.0  0.75300  0.50900  0.99700  1.0000
  Mn  Mn1       1.0  0.91200  0.16100  0.00265  1.0000
  Mn  Mn2       1.0  0.42200  0.18500  0.99700  1.0000
  Mo  Mo1       1.0  0.08520  0.83800  0.00209  1.0000
  Mo  Mo2       1.0  0.59100  0.84800  0.99100  1.0000
  O   O1        1.0  0.96900  0.60800  0.23500  1.0000
  O   O2        1.0  0.12900  0.23500  0.24100  1.0000
  O   O3        1.0  0.28500  0.92700  0.24200  1.0000
  O   O4        1.0  0.77600  0.90000  0.24500  1.0000
  O   O5        1.0  0.61900  0.20600  0.25000  1.0000
  O   O6        1.0  0.69100  0.03290  0.72600  1.0000
  O   O7        1.0  0.54100  0.43300  0.75100  1.0000
  O   O8        1.0  0.88900  0.74900  0.75900  1.0000
  O   O9        1.0  0.04390  0.44600  0.76000  1.0000
  O   O10       1.0  0.38500  0.75300  0.76600  1.0000
  O   O11       1.0  0.20100  0.07790  0.77100  1.0000
