data_image0
_chemical_formula_structural       H12K4N4O12P4
_chemical_formula_sum              "H12 K4 N4 O12 P4"
_cell_length_a       6.08336
_cell_length_b       6.72689
_cell_length_c       10.1682
_cell_angle_alpha    90
_cell_angle_beta     89.419
_cell_angle_gamma    90

_space_group_name_H-M_alt    "P 1"
_space_group_IT_number       1

loop_
  _space_group_symop_operation_xyz
  'x, y, z'

loop_
  _atom_site_type_symbol
  _atom_site_label
  _atom_site_symmetry_multiplicity
  _atom_site_fract_x
  _atom_site_fract_y
  _atom_site_fract_z
  _atom_site_occupancy
  H   H1        1.0  0.34800  0.65700  0.01090  1.0000
  H   H2        1.0  0.08560  0.65700  0.07570  1.0000
  H   H3        1.0  0.31000  0.66900  0.17800  1.0000
  H   H4        1.0  0.19000  0.16900  0.32200  1.0000
  H   H5        1.0  0.41400  0.15700  0.42400  1.0000
  H   H6        1.0  0.15200  0.15700  0.48900  1.0000
  H   H7        1.0  0.84800  0.84300  0.51100  1.0000
  H   H8        1.0  0.58600  0.84300  0.57600  1.0000
  H   H9        1.0  0.81000  0.83100  0.67800  1.0000
  H   H10       1.0  0.69000  0.33100  0.82200  1.0000
  H   H11       1.0  0.91400  0.34300  0.92400  1.0000
  H   H12       1.0  0.65200  0.34300  0.98900  1.0000
  K   K1        1.0  0.75300  0.00887  0.20900  1.0000
  K   K2        1.0  0.74700  0.50900  0.29100  1.0000
  K   K3        1.0  0.25300  0.49100  0.70900  1.0000
  K   K4        1.0  0.24700  0.99100  0.79100  1.0000
  N   N1        1.0  0.24900  0.60700  0.08990  1.0000
  N   N2        1.0  0.25100  0.10700  0.41000  1.0000
  N   N3        1.0  0.74900  0.89300  0.59000  1.0000
  N   N4        1.0  0.75100  0.39300  0.91000  1.0000
  O   O1        1.0  0.81600  0.70600  0.05280  1.0000
  O   O2        1.0  0.48500  0.28600  0.12200  1.0000
  O   O3        1.0  0.07800  0.28300  0.19200  1.0000
  O   O4        1.0  0.42200  0.78300  0.30800  1.0000
  O   O5        1.0  0.01500  0.78600  0.37800  1.0000
  O   O6        1.0  0.68400  0.20600  0.44700  1.0000
  O   O7        1.0  0.31600  0.79400  0.55300  1.0000
  O   O8        1.0  0.98500  0.21400  0.62200  1.0000
  O   O9        1.0  0.57800  0.21700  0.69200  1.0000
  O   O10       1.0  0.92200  0.71700  0.80800  1.0000
  O   O11       1.0  0.51500  0.71400  0.87800  1.0000
  O   O12       1.0  0.18400  0.29400  0.94700  1.0000
  P   P1        1.0  0.24900  0.34100  0.08830  1.0000
  P   P2        1.0  0.25100  0.84100  0.41200  1.0000
  P   P3        1.0  0.74900  0.15900  0.58800  1.0000
  P   P4        1.0  0.75100  0.65900  0.91200  1.0000
