data_image0
_chemical_formula_structural       O20Si4Sr12
_chemical_formula_sum              "O20 Si4 Sr12"
_cell_length_a       6.91792
_cell_length_b       6.91792
_cell_length_c       10.7882
_cell_angle_alpha    90
_cell_angle_beta     90
_cell_angle_gamma    90

_space_group_name_H-M_alt    "P 1"
_space_group_IT_number       1

loop_
  _space_group_symop_operation_xyz
  'x, y, z'

loop_
  _atom_site_type_symbol
  _atom_site_label
  _atom_site_symmetry_multiplicity
  _atom_site_fract_x
  _atom_site_fract_y
  _atom_site_fract_z
  _atom_site_occupancy
  O   O1        1.0  0.84100  0.10100  0.09260  1.0000
  O   O2        1.0  0.39900  0.34100  0.09260  1.0000
  O   O3        1.0  0.60100  0.65900  0.09260  1.0000
  O   O4        1.0  0.15900  0.89900  0.09260  1.0000
  O   O5        1.0  0.00000  0.50000  0.22000  1.0000
  O   O6        1.0  0.50000  0.00000  0.28000  1.0000
  O   O7        1.0  0.89900  0.15900  0.40700  1.0000
  O   O8        1.0  0.34100  0.39900  0.40700  1.0000
  O   O9        1.0  0.65900  0.60100  0.40700  1.0000
  O   O10       1.0  0.10100  0.84100  0.40700  1.0000
  O   O11       1.0  0.15900  0.10100  0.59300  1.0000
  O   O12       1.0  0.60100  0.34100  0.59300  1.0000
  O   O13       1.0  0.39900  0.65900  0.59300  1.0000
  O   O14       1.0  0.84100  0.89900  0.59300  1.0000
  O   O15       1.0  0.00000  0.50000  0.72000  1.0000
  O   O16       1.0  0.50000  0.00000  0.78000  1.0000
  O   O17       1.0  0.10100  0.15900  0.90700  1.0000
  O   O18       1.0  0.65900  0.39900  0.90700  1.0000
  O   O19       1.0  0.34100  0.60100  0.90700  1.0000
  O   O20       1.0  0.89900  0.84100  0.90700  1.0000
  Si  Si1       1.0  0.00000  0.00000  0.00000  1.0000
  Si  Si2       1.0  0.50000  0.50000  0.00000  1.0000
  Si  Si3       1.0  0.00000  0.00000  0.50000  1.0000
  Si  Si4       1.0  0.50000  0.50000  0.50000  1.0000
  Sr  Sr1       1.0  0.50000  0.00000  0.00789  1.0000
  Sr  Sr2       1.0  0.18700  0.18700  0.25000  1.0000
  Sr  Sr3       1.0  0.68700  0.31300  0.25000  1.0000
  Sr  Sr4       1.0  0.31300  0.68700  0.25000  1.0000
  Sr  Sr5       1.0  0.81300  0.81300  0.25000  1.0000
  Sr  Sr6       1.0  0.00000  0.50000  0.49200  1.0000
  Sr  Sr7       1.0  0.50000  0.00000  0.50800  1.0000
  Sr  Sr8       1.0  0.81300  0.18700  0.75000  1.0000
  Sr  Sr9       1.0  0.31300  0.31300  0.75000  1.0000
  Sr  Sr10      1.0  0.68700  0.68700  0.75000  1.0000
  Sr  Sr11      1.0  0.18700  0.81300  0.75000  1.0000
  Sr  Sr12      1.0  0.00000  0.50000  0.99200  1.0000
