data_image0
_chemical_formula_structural       S12Ta24
_chemical_formula_sum              "S12 Ta24"
_cell_length_a       7.41335
_cell_length_b       5.61468
_cell_length_c       15.3149
_cell_angle_alpha    90
_cell_angle_beta     90
_cell_angle_gamma    90

_space_group_name_H-M_alt    "P 1"
_space_group_IT_number       1

loop_
  _space_group_symop_operation_xyz
  'x, y, z'

loop_
  _atom_site_type_symbol
  _atom_site_label
  _atom_site_symmetry_multiplicity
  _atom_site_fract_x
  _atom_site_fract_y
  _atom_site_fract_z
  _atom_site_occupancy
  S   S1        1.0  0.18000  0.25000  0.00000  1.0000
  S   S2        1.0  0.82000  0.75000  0.00000  1.0000
  S   S3        1.0  0.58800  0.26800  0.09740  1.0000
  S   S4        1.0  0.41200  0.76800  0.09740  1.0000
  S   S5        1.0  0.58800  0.26800  0.40300  1.0000
  S   S6        1.0  0.41200  0.76800  0.40300  1.0000
  S   S7        1.0  0.18000  0.25000  0.50000  1.0000
  S   S8        1.0  0.82000  0.75000  0.50000  1.0000
  S   S9        1.0  0.58800  0.23200  0.59700  1.0000
  S   S10       1.0  0.41200  0.73200  0.59700  1.0000
  S   S11       1.0  0.58800  0.23200  0.90300  1.0000
  S   S12       1.0  0.41200  0.73200  0.90300  1.0000
  Ta  Ta1       1.0  0.90500  0.39600  0.09030  1.0000
  Ta  Ta2       1.0  0.09510  0.89600  0.09030  1.0000
  Ta  Ta3       1.0  0.28300  0.39600  0.15400  1.0000
  Ta  Ta4       1.0  0.71700  0.89600  0.15400  1.0000
  Ta  Ta5       1.0  0.00902  0.13300  0.25000  1.0000
  Ta  Ta6       1.0  0.64900  0.37200  0.25000  1.0000
  Ta  Ta7       1.0  0.99100  0.63300  0.25000  1.0000
  Ta  Ta8       1.0  0.35100  0.87200  0.25000  1.0000
  Ta  Ta9       1.0  0.28300  0.39600  0.34600  1.0000
  Ta  Ta10      1.0  0.71700  0.89600  0.34600  1.0000
  Ta  Ta11      1.0  0.90500  0.39600  0.41000  1.0000
  Ta  Ta12      1.0  0.09510  0.89600  0.41000  1.0000
  Ta  Ta13      1.0  0.90500  0.10400  0.59000  1.0000
  Ta  Ta14      1.0  0.09510  0.60400  0.59000  1.0000
  Ta  Ta15      1.0  0.28300  0.10400  0.65400  1.0000
  Ta  Ta16      1.0  0.71700  0.60400  0.65400  1.0000
  Ta  Ta17      1.0  0.64900  0.12800  0.75000  1.0000
  Ta  Ta18      1.0  0.00902  0.36700  0.75000  1.0000
  Ta  Ta19      1.0  0.35100  0.62800  0.75000  1.0000
  Ta  Ta20      1.0  0.99100  0.86700  0.75000  1.0000
  Ta  Ta21      1.0  0.28300  0.10400  0.84600  1.0000
  Ta  Ta22      1.0  0.71700  0.60400  0.84600  1.0000
  Ta  Ta23      1.0  0.90500  0.10400  0.91000  1.0000
  Ta  Ta24      1.0  0.09510  0.60400  0.91000  1.0000
