data_image0
_chemical_formula_structural       Cs4In12O20
_chemical_formula_sum              "Cs4 In12 O20"
_cell_length_a       10.0922
_cell_length_b       3.37048
_cell_length_c       16.5473
_cell_angle_alpha    90
_cell_angle_beta     90
_cell_angle_gamma    90

_space_group_name_H-M_alt    "P 1"
_space_group_IT_number       1

loop_
  _space_group_symop_operation_xyz
  'x, y, z'

loop_
  _atom_site_type_symbol
  _atom_site_label
  _atom_site_symmetry_multiplicity
  _atom_site_fract_x
  _atom_site_fract_y
  _atom_site_fract_z
  _atom_site_occupancy
  Cs  Cs1       1.0  0.47000  0.25000  0.11900  1.0000
  Cs  Cs2       1.0  0.97000  0.25000  0.38100  1.0000
  Cs  Cs3       1.0  0.02980  0.75000  0.61900  1.0000
  Cs  Cs4       1.0  0.53000  0.75000  0.88100  1.0000
  In  In1       1.0  0.85200  0.75000  0.01130  1.0000
  In  In2       1.0  0.10900  0.75000  0.16300  1.0000
  In  In3       1.0  0.81800  0.25000  0.18200  1.0000
  In  In4       1.0  0.31800  0.25000  0.31800  1.0000
  In  In5       1.0  0.60900  0.75000  0.33700  1.0000
  In  In6       1.0  0.35200  0.75000  0.48900  1.0000
  In  In7       1.0  0.64800  0.25000  0.51100  1.0000
  In  In8       1.0  0.39100  0.25000  0.66300  1.0000
  In  In9       1.0  0.68200  0.75000  0.68200  1.0000
  In  In10      1.0  0.18200  0.75000  0.81800  1.0000
  In  In11      1.0  0.89100  0.25000  0.83700  1.0000
  In  In12      1.0  0.14800  0.25000  0.98900  1.0000
  O   O1        1.0  0.22600  0.75000  0.05480  1.0000
  O   O2        1.0  0.97700  0.25000  0.07660  1.0000
  O   O3        1.0  0.72700  0.75000  0.11400  1.0000
  O   O4        1.0  0.19500  0.25000  0.21500  1.0000
  O   O5        1.0  0.93300  0.75000  0.23000  1.0000
  O   O6        1.0  0.43300  0.75000  0.27000  1.0000
  O   O7        1.0  0.69500  0.25000  0.28500  1.0000
  O   O8        1.0  0.22700  0.75000  0.38600  1.0000
  O   O9        1.0  0.47700  0.25000  0.42300  1.0000
  O   O10       1.0  0.72600  0.75000  0.44500  1.0000
  O   O11       1.0  0.27400  0.25000  0.55500  1.0000
  O   O12       1.0  0.52300  0.75000  0.57700  1.0000
  O   O13       1.0  0.77300  0.25000  0.61400  1.0000
  O   O14       1.0  0.30500  0.75000  0.71500  1.0000
  O   O15       1.0  0.56700  0.25000  0.73000  1.0000
  O   O16       1.0  0.06700  0.25000  0.77000  1.0000
  O   O17       1.0  0.80500  0.75000  0.78500  1.0000
  O   O18       1.0  0.27300  0.25000  0.88600  1.0000
  O   O19       1.0  0.02250  0.75000  0.92300  1.0000
  O   O20       1.0  0.77400  0.25000  0.94500  1.0000
