data_image0
_chemical_formula_structural       B6Eu4Li6O18
_chemical_formula_sum              "B6 Eu4 Li6 O18"
_cell_length_a       5.50298
_cell_length_b       11.5926
_cell_length_c       5.51712
_cell_angle_alpha    89.9997
_cell_angle_beta     100.963
_cell_angle_gamma    89.9998

_space_group_name_H-M_alt    "P 1"
_space_group_IT_number       1

loop_
  _space_group_symop_operation_xyz
  'x, y, z'

loop_
  _atom_site_type_symbol
  _atom_site_label
  _atom_site_symmetry_multiplicity
  _atom_site_fract_x
  _atom_site_fract_y
  _atom_site_fract_z
  _atom_site_occupancy
  B   B1        1.0  0.42000  0.63900  0.16900  1.0000
  B   B2        1.0  0.72000  0.02170  0.23400  1.0000
  B   B3        1.0  0.60100  0.22000  0.31800  1.0000
  B   B4        1.0  0.39900  0.72000  0.68200  1.0000
  B   B5        1.0  0.28000  0.52200  0.76600  1.0000
  B   B6        1.0  0.58000  0.13900  0.83100  1.0000
  Eu  Eu1       1.0  0.08910  0.15300  0.04130  1.0000
  Eu  Eu2       1.0  0.68100  0.44500  0.49700  1.0000
  Eu  Eu3       1.0  0.31900  0.94500  0.50300  1.0000
  Eu  Eu4       1.0  0.91100  0.65300  0.95900  1.0000
  Li  Li1       1.0  0.44700  0.85600  0.02150  1.0000
  Li  Li2       1.0  0.14500  0.42700  0.23600  1.0000
  Li  Li3       1.0  0.81200  0.76300  0.45500  1.0000
  Li  Li4       1.0  0.18800  0.26300  0.54500  1.0000
  Li  Li5       1.0  0.85500  0.92700  0.76400  1.0000
  Li  Li6       1.0  0.55300  0.35600  0.97800  1.0000
  O   O1        1.0  0.30000  0.53900  0.05180  1.0000
  O   O2        1.0  0.80900  0.46300  0.09110  1.0000
  O   O3        1.0  0.28900  0.73700  0.18500  1.0000
  O   O4        1.0  0.66800  0.63200  0.26500  1.0000
  O   O5        1.0  0.40200  0.29600  0.26600  1.0000
  O   O6        1.0  0.53200  0.10300  0.30200  1.0000
  O   O7        1.0  0.68700  0.90500  0.30400  1.0000
  O   O8        1.0  0.84200  0.25700  0.34900  1.0000
  O   O9        1.0  0.96100  0.04940  0.36700  1.0000
  O   O10       1.0  0.03900  0.54900  0.63300  1.0000
  O   O11       1.0  0.15800  0.75700  0.65100  1.0000
  O   O12       1.0  0.31300  0.40500  0.69600  1.0000
  O   O13       1.0  0.46800  0.60300  0.69800  1.0000
  O   O14       1.0  0.59800  0.79600  0.73400  1.0000
  O   O15       1.0  0.33200  0.13200  0.73500  1.0000
  O   O16       1.0  0.71100  0.23700  0.81500  1.0000
  O   O17       1.0  0.19100  0.96300  0.90900  1.0000
  O   O18       1.0  0.70000  0.03890  0.94800  1.0000
