data_image0
_chemical_formula_structural       Cs2Fe2K4O5
_chemical_formula_sum              "Cs2 Fe2 K4 O5"
_cell_length_a       6.66263
_cell_length_b       6.66263
_cell_length_c       6.94347
_cell_angle_alpha    90.2692
_cell_angle_beta     90.2692
_cell_angle_gamma    116.422

_space_group_name_H-M_alt    "P 1"
_space_group_IT_number       1

loop_
  _space_group_symop_operation_xyz
  'x, y, z'

loop_
  _atom_site_type_symbol
  _atom_site_label
  _atom_site_symmetry_multiplicity
  _atom_site_fract_x
  _atom_site_fract_y
  _atom_site_fract_z
  _atom_site_occupancy
  Cs  Cs1       1.0  0.32500  0.32500  0.19800  1.0000
  Cs  Cs2       1.0  0.67500  0.67500  0.80200  1.0000
  Fe  Fe1       1.0  0.80000  0.80000  0.30800  1.0000
  Fe  Fe2       1.0  0.20000  0.20000  0.69200  1.0000
  K   K1        1.0  0.78000  0.22000  0.00000  1.0000
  K   K2        1.0  0.22000  0.78000  0.00000  1.0000
  K   K3        1.0  0.76000  0.24000  0.50000  1.0000
  K   K4        1.0  0.24000  0.76000  0.50000  1.0000
  O   O1        1.0  0.85500  0.56100  0.22700  1.0000
  O   O2        1.0  0.56100  0.85500  0.22700  1.0000
  O   O3        1.0  0.00000  0.00000  0.50000  1.0000
  O   O4        1.0  0.43900  0.14500  0.77300  1.0000
  O   O5        1.0  0.14500  0.43900  0.77300  1.0000
