data_image0
_chemical_formula_structural       Hf2Li8Mn2O11
_chemical_formula_sum              "Hf2 Li8 Mn2 O11"
_cell_length_a       10.3168
_cell_length_b       5.24112
_cell_length_c       5.13998
_cell_angle_alpha    99.6108
_cell_angle_beta     101.093
_cell_angle_gamma    119.651

_space_group_name_H-M_alt    "P 1"
_space_group_IT_number       1

loop_
  _space_group_symop_operation_xyz
  'x, y, z'

loop_
  _atom_site_type_symbol
  _atom_site_label
  _atom_site_symmetry_multiplicity
  _atom_site_fract_x
  _atom_site_fract_y
  _atom_site_fract_z
  _atom_site_occupancy
  Hf  Hf1       1.0  0.91600  0.15200  0.00961  1.0000
  Hf  Hf2       1.0  0.43100  0.20000  0.95400  1.0000
  Li  Li1       1.0  0.75900  0.50700  0.00618  1.0000
  Li  Li2       1.0  0.35000  0.43900  0.47200  1.0000
  Li  Li3       1.0  0.66900  0.66400  0.49100  1.0000
  Li  Li4       1.0  0.53400  0.02760  0.50100  1.0000
  Li  Li5       1.0  0.82400  0.35400  0.50300  1.0000
  Li  Li6       1.0  0.00625  0.95600  0.51200  1.0000
  Li  Li7       1.0  0.15100  0.62200  0.55200  1.0000
  Li  Li8       1.0  0.24400  0.45400  0.96200  1.0000
  Mn  Mn1       1.0  0.07650  0.81500  0.02010  1.0000
  Mn  Mn2       1.0  0.58400  0.85000  0.99600  1.0000
  O   O1        1.0  0.45900  0.59700  0.20500  1.0000
  O   O2        1.0  0.77800  0.92200  0.23500  1.0000
  O   O3        1.0  0.61400  0.25600  0.23800  1.0000
  O   O4        1.0  0.97600  0.58500  0.25600  1.0000
  O   O5        1.0  0.12100  0.20200  0.26200  1.0000
  O   O6        1.0  0.51700  0.39300  0.69300  1.0000
  O   O7        1.0  0.38100  0.77100  0.75100  1.0000
  O   O8        1.0  0.87500  0.75800  0.76000  1.0000
  O   O9        1.0  0.70700  0.07600  0.77500  1.0000
  O   O10       1.0  0.04940  0.44100  0.80600  1.0000
  O   O11       1.0  0.19900  0.03590  0.80600  1.0000
