data_image0
_chemical_formula_structural       Li8Mn2O11Si2
_chemical_formula_sum              "Li8 Mn2 O11 Si2"
_cell_length_a       9.82867
_cell_length_b       4.89447
_cell_length_c       4.98486
_cell_angle_alpha    100.549
_cell_angle_beta     100.069
_cell_angle_gamma    119.601

_space_group_name_H-M_alt    "P 1"
_space_group_IT_number       1

loop_
  _space_group_symop_operation_xyz
  'x, y, z'

loop_
  _atom_site_type_symbol
  _atom_site_label
  _atom_site_symmetry_multiplicity
  _atom_site_fract_x
  _atom_site_fract_y
  _atom_site_fract_z
  _atom_site_occupancy
  Li  Li1       1.0  0.75300  0.51100  0.00501  1.0000
  Li  Li2       1.0  0.16800  0.65200  0.49800  1.0000
  Li  Li3       1.0  0.82800  0.32400  0.50200  1.0000
  Li  Li4       1.0  0.00442  0.00381  0.50300  1.0000
  Li  Li5       1.0  0.69500  0.67100  0.50800  1.0000
  Li  Li6       1.0  0.50100  0.04140  0.51800  1.0000
  Li  Li7       1.0  0.30800  0.29700  0.53200  1.0000
  Li  Li8       1.0  0.23500  0.49800  0.98100  1.0000
  Mn  Mn1       1.0  0.92400  0.17600  0.00245  1.0000
  Mn  Mn2       1.0  0.41400  0.15700  0.00508  1.0000
  O   O1        1.0  0.97500  0.60200  0.21300  1.0000
  O   O2        1.0  0.60600  0.18800  0.22100  1.0000
  O   O3        1.0  0.74700  0.89000  0.22100  1.0000
  O   O4        1.0  0.28300  0.93100  0.23100  1.0000
  O   O5        1.0  0.11900  0.21000  0.23200  1.0000
  O   O6        1.0  0.70200  0.05760  0.75800  1.0000
  O   O7        1.0  0.04510  0.46700  0.76300  1.0000
  O   O8        1.0  0.39900  0.74700  0.77100  1.0000
  O   O9        1.0  0.89900  0.78200  0.77600  1.0000
  O   O10       1.0  0.53300  0.44000  0.78500  1.0000
  O   O11       1.0  0.20900  0.07730  0.80000  1.0000
  Si  Si1       1.0  0.59400  0.85200  0.95800  1.0000
  Si  Si2       1.0  0.08460  0.83400  0.99800  1.0000
