data_image0
_chemical_formula_structural       Br24Rb8Sb4
_chemical_formula_sum              "Br24 Rb8 Sb4"
_cell_length_a       13.2562
_cell_length_b       13.2562
_cell_length_c       13.2562
_cell_angle_alpha    132.697
_cell_angle_beta     132.697
_cell_angle_gamma    69.1311

_space_group_name_H-M_alt    "P 1"
_space_group_IT_number       1

loop_
  _space_group_symop_operation_xyz
  'x, y, z'

loop_
  _atom_site_type_symbol
  _atom_site_label
  _atom_site_symmetry_multiplicity
  _atom_site_fract_x
  _atom_site_fract_y
  _atom_site_fract_z
  _atom_site_occupancy
  Br  Br1       1.0  0.49900  0.24900  0.25000  1.0000
  Br  Br2       1.0  0.74900  0.99900  0.75000  1.0000
  Br  Br3       1.0  0.50100  0.75100  0.75000  1.0000
  Br  Br4       1.0  0.25100  0.00101  0.25000  1.0000
  Br  Br5       1.0  0.75100  0.50100  0.25000  1.0000
  Br  Br6       1.0  0.00087  0.25100  0.75000  1.0000
  Br  Br7       1.0  0.24900  0.49900  0.75000  1.0000
  Br  Br8       1.0  0.99900  0.74900  0.25000  1.0000
  Br  Br9       1.0  0.62700  0.14700  0.52400  1.0000
  Br  Br10      1.0  0.12200  0.10300  0.97600  1.0000
  Br  Br11      1.0  0.64700  0.62200  0.51900  1.0000
  Br  Br12      1.0  0.60300  0.12700  0.98100  1.0000
  Br  Br13      1.0  0.37300  0.85300  0.47600  1.0000
  Br  Br14      1.0  0.87800  0.89700  0.02450  1.0000
  Br  Br15      1.0  0.35300  0.37800  0.48100  1.0000
  Br  Br16      1.0  0.39700  0.87300  0.01940  1.0000
  Br  Br17      1.0  0.12900  0.64700  0.52400  1.0000
  Br  Br18      1.0  0.62300  0.60400  0.97600  1.0000
  Br  Br19      1.0  0.14700  0.12300  0.51800  1.0000
  Br  Br20      1.0  0.10400  0.62900  0.98200  1.0000
  Br  Br21      1.0  0.87100  0.35300  0.47600  1.0000
  Br  Br22      1.0  0.37700  0.39600  0.02440  1.0000
  Br  Br23      1.0  0.85300  0.87700  0.48200  1.0000
  Br  Br24      1.0  0.89600  0.37100  0.01850  1.0000
  Rb  Rb1       1.0  0.50000  0.25100  0.75100  1.0000
  Rb  Rb2       1.0  1.00000  0.74900  0.74900  1.0000
  Rb  Rb3       1.0  0.75100  0.50000  0.75100  1.0000
  Rb  Rb4       1.0  0.24900  0.00031  0.74900  1.0000
  Rb  Rb5       1.0  0.50000  0.74900  0.24900  1.0000
  Rb  Rb6       1.0  0.00012  0.25100  0.25100  1.0000
  Rb  Rb7       1.0  0.24900  0.50000  0.24900  1.0000
  Rb  Rb8       1.0  0.75100  0.00000  0.25100  1.0000
  Sb  Sb1       1.0  0.87500  0.62500  0.25000  1.0000
  Sb  Sb2       1.0  0.12500  0.37500  0.75000  1.0000
  Sb  Sb3       1.0  0.37500  0.12500  0.25000  1.0000
  Sb  Sb4       1.0  0.62500  0.87500  0.75000  1.0000
