data_image0
_chemical_formula_structural       Cs16O16Pb4
_chemical_formula_sum              "Cs16 O16 Pb4"
_cell_length_a       7.20963
_cell_length_b       19.9508
_cell_length_c       7.16059
_cell_angle_alpha    90
_cell_angle_beta     112.522
_cell_angle_gamma    90

_space_group_name_H-M_alt    "P 1"
_space_group_IT_number       1

loop_
  _space_group_symop_operation_xyz
  'x, y, z'

loop_
  _atom_site_type_symbol
  _atom_site_label
  _atom_site_symmetry_multiplicity
  _atom_site_fract_x
  _atom_site_fract_y
  _atom_site_fract_z
  _atom_site_occupancy
  Cs  Cs1       1.0  0.17800  0.31200  0.17000  1.0000
  Cs  Cs2       1.0  0.69900  0.21600  0.17600  1.0000
  Cs  Cs3       1.0  0.64900  0.41800  0.21600  1.0000
  Cs  Cs4       1.0  0.78300  0.01650  0.24800  1.0000
  Cs  Cs5       1.0  0.21700  0.51600  0.25200  1.0000
  Cs  Cs6       1.0  0.35100  0.91800  0.28400  1.0000
  Cs  Cs7       1.0  0.30100  0.71600  0.32400  1.0000
  Cs  Cs8       1.0  0.82200  0.81200  0.33000  1.0000
  Cs  Cs9       1.0  0.17800  0.18800  0.67000  1.0000
  Cs  Cs10      1.0  0.69900  0.28400  0.67600  1.0000
  Cs  Cs11      1.0  0.64900  0.08230  0.71600  1.0000
  Cs  Cs12      1.0  0.78300  0.48400  0.74800  1.0000
  Cs  Cs13      1.0  0.21700  0.98400  0.75200  1.0000
  Cs  Cs14      1.0  0.35100  0.58200  0.78400  1.0000
  Cs  Cs15      1.0  0.30100  0.78400  0.82400  1.0000
  Cs  Cs16      1.0  0.82200  0.68800  0.83000  1.0000
  O   O1        1.0  0.01810  0.83200  0.00387  1.0000
  O   O2        1.0  0.41700  0.09340  0.01950  1.0000
  O   O3        1.0  0.56700  0.69500  0.09700  1.0000
  O   O4        1.0  0.78800  0.54800  0.11900  1.0000
  O   O5        1.0  0.21200  0.04800  0.38100  1.0000
  O   O6        1.0  0.43300  0.19500  0.40300  1.0000
  O   O7        1.0  0.58300  0.59300  0.48100  1.0000
  O   O8        1.0  0.98200  0.33200  0.49600  1.0000
  O   O9        1.0  0.01810  0.66800  0.50400  1.0000
  O   O10       1.0  0.41700  0.40700  0.51900  1.0000
  O   O11       1.0  0.56700  0.80500  0.59700  1.0000
  O   O12       1.0  0.78800  0.95200  0.61900  1.0000
  O   O13       1.0  0.21200  0.45200  0.88100  1.0000
  O   O14       1.0  0.43300  0.30500  0.90300  1.0000
  O   O15       1.0  0.58300  0.90700  0.98100  1.0000
  O   O16       1.0  0.98200  0.16800  0.99600  1.0000
  Pb  Pb1       1.0  0.25100  0.12300  0.19300  1.0000
  Pb  Pb2       1.0  0.74900  0.62300  0.30700  1.0000
  Pb  Pb3       1.0  0.25100  0.37700  0.69300  1.0000
  Pb  Pb4       1.0  0.74900  0.87700  0.80700  1.0000
