data_image0
_chemical_formula_structural       Ir2Li8Mn2O11
_chemical_formula_sum              "Ir2 Li8 Mn2 O11"
_cell_length_a       10.0106
_cell_length_b       5.06344
_cell_length_c       5.03152
_cell_angle_alpha    100.005
_cell_angle_beta     99.6552
_cell_angle_gamma    120.006

_space_group_name_H-M_alt    "P 1"
_space_group_IT_number       1

loop_
  _space_group_symop_operation_xyz
  'x, y, z'

loop_
  _atom_site_type_symbol
  _atom_site_label
  _atom_site_symmetry_multiplicity
  _atom_site_fract_x
  _atom_site_fract_y
  _atom_site_fract_z
  _atom_site_occupancy
  Ir  Ir1       1.0  0.09440  0.83800  0.00571  1.0000
  Ir  Ir2       1.0  0.58200  0.83100  0.99800  1.0000
  Li  Li1       1.0  0.75100  0.50300  0.00049  1.0000
  Li  Li2       1.0  0.66400  0.65500  0.49400  1.0000
  Li  Li3       1.0  0.99900  0.99400  0.49600  1.0000
  Li  Li4       1.0  0.33000  0.36800  0.50100  1.0000
  Li  Li5       1.0  0.83200  0.34100  0.50400  1.0000
  Li  Li6       1.0  0.15600  0.63400  0.51700  1.0000
  Li  Li7       1.0  0.51900  0.01600  0.52500  1.0000
  Li  Li8       1.0  0.24400  0.47100  0.97800  1.0000
  Mn  Mn1       1.0  0.92000  0.16900  0.00258  1.0000
  Mn  Mn2       1.0  0.40900  0.16600  0.99200  1.0000
  O   O1        1.0  0.45200  0.56700  0.23000  1.0000
  O   O2        1.0  0.79500  0.93300  0.23300  1.0000
  O   O3        1.0  0.96600  0.57200  0.23700  1.0000
  O   O4        1.0  0.60200  0.22500  0.23700  1.0000
  O   O5        1.0  0.11900  0.24500  0.23800  1.0000
  O   O6        1.0  0.21400  0.07520  0.75000  1.0000
  O   O7        1.0  0.53900  0.42400  0.75100  1.0000
  O   O8        1.0  0.37500  0.77100  0.76700  1.0000
  O   O9        1.0  0.71900  0.08380  0.76900  1.0000
  O   O10       1.0  0.88600  0.77900  0.77000  1.0000
  O   O11       1.0  0.03890  0.40900  0.77200  1.0000
