data_image0
_chemical_formula_structural       Na2O24P6Ti4
_chemical_formula_sum              "Na2 O24 P6 Ti4"
_cell_length_a       8.52342
_cell_length_b       8.52342
_cell_length_c       8.71761
_cell_angle_alpha    90
_cell_angle_beta     119.266
_cell_angle_gamma    60

_space_group_name_H-M_alt    "P 1"
_space_group_IT_number       1

loop_
  _space_group_symop_operation_xyz
  'x, y, z'

loop_
  _atom_site_type_symbol
  _atom_site_label
  _atom_site_symmetry_multiplicity
  _atom_site_fract_x
  _atom_site_fract_y
  _atom_site_fract_z
  _atom_site_occupancy
  Na  Na1       1.0  0.00000  0.00000  0.00000  1.0000
  Na  Na2       1.0  0.00000  0.50000  0.50000  1.0000
  O   O1        1.0  0.37000  0.12800  0.07360  1.0000
  O   O2        1.0  0.57600  0.29600  0.07360  1.0000
  O   O3        1.0  0.20100  0.50200  0.07360  1.0000
  O   O4        1.0  0.80500  0.42100  0.24700  1.0000
  O   O5        1.0  0.02150  0.55800  0.24700  1.0000
  O   O6        1.0  0.66800  0.77400  0.24700  1.0000
  O   O7        1.0  0.97800  0.07930  0.25300  1.0000
  O   O8        1.0  0.19500  0.72600  0.25300  1.0000
  O   O9        1.0  0.33200  0.94200  0.25300  1.0000
  O   O10       1.0  0.79900  0.20400  0.42600  1.0000
  O   O11       1.0  0.42400  0.37200  0.42600  1.0000
  O   O12       1.0  0.63000  0.99800  0.42600  1.0000
  O   O13       1.0  0.37000  0.00241  0.57400  1.0000
  O   O14       1.0  0.57600  0.62800  0.57400  1.0000
  O   O15       1.0  0.20100  0.79600  0.57400  1.0000
  O   O16       1.0  0.66800  0.05770  0.74700  1.0000
  O   O17       1.0  0.80500  0.27400  0.74700  1.0000
  O   O18       1.0  0.02150  0.92100  0.74700  1.0000
  O   O19       1.0  0.33200  0.22600  0.75300  1.0000
  O   O20       1.0  0.97800  0.44200  0.75300  1.0000
  O   O21       1.0  0.19500  0.57900  0.75300  1.0000
  O   O22       1.0  0.79900  0.49800  0.92600  1.0000
  O   O23       1.0  0.42400  0.70400  0.92600  1.0000
  O   O24       1.0  0.63000  0.87200  0.92600  1.0000
  P   P1        1.0  0.78800  0.25000  0.25000  1.0000
  P   P2        1.0  0.21200  0.53800  0.25000  1.0000
  P   P3        1.0  0.50000  0.96200  0.25000  1.0000
  P   P4        1.0  0.50000  0.03810  0.75000  1.0000
  P   P5        1.0  0.78800  0.46200  0.75000  1.0000
  P   P6        1.0  0.21200  0.75000  0.75000  1.0000
  Ti  Ti1       1.0  0.71500  0.64300  0.07220  1.0000
  Ti  Ti2       1.0  0.28500  0.85700  0.42800  1.0000
  Ti  Ti3       1.0  0.71500  0.14300  0.57200  1.0000
  Ti  Ti4       1.0  0.28500  0.35700  0.92800  1.0000
