data_image0
_chemical_formula_structural       Dy4Li8O11
_chemical_formula_sum              "Dy4 Li8 O11"
_cell_length_a       11.3746
_cell_length_b       5.58831
_cell_length_c       5.13089
_cell_angle_alpha    101.389
_cell_angle_beta     100.582
_cell_angle_gamma    119.195

_space_group_name_H-M_alt    "P 1"
_space_group_IT_number       1

loop_
  _space_group_symop_operation_xyz
  'x, y, z'

loop_
  _atom_site_type_symbol
  _atom_site_label
  _atom_site_symmetry_multiplicity
  _atom_site_fract_x
  _atom_site_fract_y
  _atom_site_fract_z
  _atom_site_occupancy
  Dy  Dy1       1.0  0.92100  0.16900  0.07960  1.0000
  Dy  Dy2       1.0  0.07680  0.75600  0.91500  1.0000
  Dy  Dy3       1.0  0.42100  0.18400  0.98900  1.0000
  Dy  Dy4       1.0  0.58300  0.84200  0.99400  1.0000
  Li  Li1       1.0  0.46400  0.96800  0.44400  1.0000
  Li  Li2       1.0  0.21700  0.77000  0.46500  1.0000
  Li  Li3       1.0  0.36200  0.38400  0.47500  1.0000
  Li  Li4       1.0  0.69200  0.64800  0.52500  1.0000
  Li  Li5       1.0  0.95200  0.93800  0.53800  1.0000
  Li  Li6       1.0  0.77400  0.28500  0.54300  1.0000
  Li  Li7       1.0  0.25200  0.47200  0.88200  1.0000
  Li  Li8       1.0  0.74100  0.51000  0.99900  1.0000
  O   O1        1.0  0.43100  0.58400  0.20200  1.0000
  O   O2        1.0  0.29000  0.96800  0.22700  1.0000
  O   O3        1.0  0.61400  0.24200  0.27200  1.0000
  O   O4        1.0  0.77800  0.89900  0.28400  1.0000
  O   O5        1.0  0.01400  0.64600  0.33500  1.0000
  O   O6        1.0  0.37300  0.75500  0.70200  1.0000
  O   O7        1.0  0.20700  0.06830  0.71600  1.0000
  O   O8        1.0  0.54400  0.43000  0.72900  1.0000
  O   O9        1.0  0.05110  0.34500  0.80100  1.0000
  O   O10       1.0  0.87700  0.74800  0.80500  1.0000
  O   O11       1.0  0.74200  0.14300  0.83800  1.0000
