data_image0
_chemical_formula_structural       Hf24P12
_chemical_formula_sum              "Hf24 P12"
_cell_length_a       15.0629
_cell_length_b       12.2679
_cell_length_c       3.5952
_cell_angle_alpha    90
_cell_angle_beta     90
_cell_angle_gamma    90

_space_group_name_H-M_alt    "P 1"
_space_group_IT_number       1

loop_
  _space_group_symop_operation_xyz
  'x, y, z'

loop_
  _atom_site_type_symbol
  _atom_site_label
  _atom_site_symmetry_multiplicity
  _atom_site_fract_x
  _atom_site_fract_y
  _atom_site_fract_z
  _atom_site_occupancy
  Hf  Hf1       1.0  0.75400  0.09680  0.00000  1.0000
  Hf  Hf2       1.0  0.08440  0.11700  0.00000  1.0000
  Hf  Hf3       1.0  0.52200  0.16000  0.00000  1.0000
  Hf  Hf4       1.0  0.29100  0.18700  0.00000  1.0000
  Hf  Hf5       1.0  0.42400  0.41200  0.00000  1.0000
  Hf  Hf6       1.0  0.89400  0.47400  0.00000  1.0000
  Hf  Hf7       1.0  0.10600  0.52600  0.00000  1.0000
  Hf  Hf8       1.0  0.57600  0.58800  0.00000  1.0000
  Hf  Hf9       1.0  0.70900  0.81300  0.00000  1.0000
  Hf  Hf10      1.0  0.47800  0.84000  0.00000  1.0000
  Hf  Hf11      1.0  0.91600  0.88300  0.00000  1.0000
  Hf  Hf12      1.0  0.24600  0.90300  0.00000  1.0000
  Hf  Hf13      1.0  0.39400  0.02570  0.50000  1.0000
  Hf  Hf14      1.0  0.92400  0.08780  0.50000  1.0000
  Hf  Hf15      1.0  0.79100  0.31300  0.50000  1.0000
  Hf  Hf16      1.0  0.02200  0.34000  0.50000  1.0000
  Hf  Hf17      1.0  0.58400  0.38300  0.50000  1.0000
  Hf  Hf18      1.0  0.25400  0.40300  0.50000  1.0000
  Hf  Hf19      1.0  0.74600  0.59700  0.50000  1.0000
  Hf  Hf20      1.0  0.41600  0.61700  0.50000  1.0000
  Hf  Hf21      1.0  0.97800  0.66000  0.50000  1.0000
  Hf  Hf22      1.0  0.20900  0.68700  0.50000  1.0000
  Hf  Hf23      1.0  0.07630  0.91200  0.50000  1.0000
  Hf  Hf24      1.0  0.60600  0.97400  0.50000  1.0000
  P   P1        1.0  0.90900  0.24400  0.00000  1.0000
  P   P2        1.0  0.15000  0.31300  0.00000  1.0000
  P   P3        1.0  0.71200  0.44300  0.00000  1.0000
  P   P4        1.0  0.28800  0.55700  0.00000  1.0000
  P   P5        1.0  0.85000  0.68700  0.00000  1.0000
  P   P6        1.0  0.09110  0.75600  0.00000  1.0000
  P   P7        1.0  0.21200  0.05730  0.50000  1.0000
  P   P8        1.0  0.65000  0.18700  0.50000  1.0000
  P   P9        1.0  0.40900  0.25600  0.50000  1.0000
  P   P10       1.0  0.59100  0.74400  0.50000  1.0000
  P   P11       1.0  0.35000  0.81300  0.50000  1.0000
  P   P12       1.0  0.78800  0.94300  0.50000  1.0000
