data_image0
_chemical_formula_structural       Ba6S18Sn12
_chemical_formula_sum              "Ba6 S18 Sn12"
_cell_length_a       6.22119
_cell_length_b       13.6379
_cell_length_c       12.4344
_cell_angle_alpha    90
_cell_angle_beta     108.221
_cell_angle_gamma    90

_space_group_name_H-M_alt    "P 1"
_space_group_IT_number       1

loop_
  _space_group_symop_operation_xyz
  'x, y, z'

loop_
  _atom_site_type_symbol
  _atom_site_label
  _atom_site_symmetry_multiplicity
  _atom_site_fract_x
  _atom_site_fract_y
  _atom_site_fract_z
  _atom_site_occupancy
  Ba  Ba1       1.0  0.32800  0.07790  0.12800  1.0000
  Ba  Ba2       1.0  0.32800  0.42200  0.12800  1.0000
  Ba  Ba3       1.0  0.35100  0.75000  0.47500  1.0000
  Ba  Ba4       1.0  0.64900  0.25000  0.52500  1.0000
  Ba  Ba5       1.0  0.67200  0.57800  0.87200  1.0000
  Ba  Ba6       1.0  0.67200  0.92200  0.87200  1.0000
  S   S1        1.0  0.78800  0.10700  0.05150  1.0000
  S   S2        1.0  0.78800  0.39300  0.05150  1.0000
  S   S3        1.0  0.82300  0.75000  0.07000  1.0000
  S   S4        1.0  0.24700  0.25000  0.28200  1.0000
  S   S5        1.0  0.20500  0.57900  0.29000  1.0000
  S   S6        1.0  0.20500  0.92100  0.29000  1.0000
  S   S7        1.0  0.80400  0.75000  0.37900  1.0000
  S   S8        1.0  0.79100  0.07060  0.38500  1.0000
  S   S9        1.0  0.79100  0.42900  0.38500  1.0000
  S   S10       1.0  0.20900  0.57100  0.61500  1.0000
  S   S11       1.0  0.20900  0.92900  0.61500  1.0000
  S   S12       1.0  0.19600  0.25000  0.62100  1.0000
  S   S13       1.0  0.79500  0.07950  0.71000  1.0000
  S   S14       1.0  0.79500  0.42100  0.71000  1.0000
  S   S15       1.0  0.75300  0.75000  0.71800  1.0000
  S   S16       1.0  0.17700  0.25000  0.93000  1.0000
  S   S17       1.0  0.21200  0.60700  0.94800  1.0000
  S   S18       1.0  0.21200  0.89300  0.94800  1.0000
  Sn  Sn1       1.0  0.25900  0.75000  0.09940  1.0000
  Sn  Sn2       1.0  0.82700  0.25000  0.20900  1.0000
  Sn  Sn3       1.0  0.77400  0.61400  0.22800  1.0000
  Sn  Sn4       1.0  0.77400  0.88600  0.22800  1.0000
  Sn  Sn5       1.0  0.22400  0.05240  0.44800  1.0000
  Sn  Sn6       1.0  0.22400  0.44800  0.44800  1.0000
  Sn  Sn7       1.0  0.77600  0.55200  0.55200  1.0000
  Sn  Sn8       1.0  0.77600  0.94800  0.55200  1.0000
  Sn  Sn9       1.0  0.22600  0.11400  0.77200  1.0000
  Sn  Sn10      1.0  0.22600  0.38600  0.77200  1.0000
  Sn  Sn11      1.0  0.17300  0.75000  0.79100  1.0000
  Sn  Sn12      1.0  0.74100  0.25000  0.90100  1.0000
