data_image0
_chemical_formula_structural       H27K6Re3
_chemical_formula_sum              "H27 K6 Re3"
_cell_length_a       9.2772
_cell_length_b       9.2772
_cell_length_c       5.38628
_cell_angle_alpha    90
_cell_angle_beta     90
_cell_angle_gamma    120.005

_space_group_name_H-M_alt    "P 1"
_space_group_IT_number       1

loop_
  _space_group_symop_operation_xyz
  'x, y, z'

loop_
  _atom_site_type_symbol
  _atom_site_label
  _atom_site_symmetry_multiplicity
  _atom_site_fract_x
  _atom_site_fract_y
  _atom_site_fract_z
  _atom_site_occupancy
  H   H1        1.0  0.18200  0.00000  0.00000  1.0000
  H   H2        1.0  0.00000  0.18200  0.00000  1.0000
  H   H3        1.0  0.81800  0.81800  0.00000  1.0000
  H   H4        1.0  0.86800  0.00000  0.22100  1.0000
  H   H5        1.0  1.00000  0.86800  0.22100  1.0000
  H   H6        1.0  0.13200  0.13200  0.22100  1.0000
  H   H7        1.0  0.52600  0.22500  0.26900  1.0000
  H   H8        1.0  0.22500  0.52600  0.26900  1.0000
  H   H9        1.0  0.69800  0.47400  0.26900  1.0000
  H   H10       1.0  0.47400  0.69800  0.26900  1.0000
  H   H11       1.0  0.77500  0.30200  0.26900  1.0000
  H   H12       1.0  0.30200  0.77500  0.26900  1.0000
  H   H13       1.0  0.62300  0.13400  0.50000  1.0000
  H   H14       1.0  0.51000  0.37700  0.50000  1.0000
  H   H15       1.0  0.86600  0.49000  0.50000  1.0000
  H   H16       1.0  0.37700  0.51000  0.50000  1.0000
  H   H17       1.0  0.13400  0.62300  0.50000  1.0000
  H   H18       1.0  0.49000  0.86600  0.50000  1.0000
  H   H19       1.0  0.77500  0.30200  0.73100  1.0000
  H   H20       1.0  0.30200  0.77500  0.73100  1.0000
  H   H21       1.0  0.69800  0.47400  0.73100  1.0000
  H   H22       1.0  0.47400  0.69800  0.73100  1.0000
  H   H23       1.0  0.52600  0.22500  0.73100  1.0000
  H   H24       1.0  0.22500  0.52600  0.73100  1.0000
  H   H25       1.0  0.13200  0.13200  0.77900  1.0000
  H   H26       1.0  0.86800  0.00000  0.77900  1.0000
  H   H27       1.0  1.00000  0.86800  0.77900  1.0000
  K   K1        1.0  0.58900  0.00000  0.00000  1.0000
  K   K2        1.0  0.41100  0.41100  0.00000  1.0000
  K   K3        1.0  0.00000  0.58900  0.00000  1.0000
  K   K4        1.0  0.26200  0.00000  0.50000  1.0000
  K   K5        1.0  0.00000  0.26200  0.50000  1.0000
  K   K6        1.0  0.73800  0.73800  0.50000  1.0000
  Re  Re1       1.0  0.00000  0.00000  0.00000  1.0000
  Re  Re2       1.0  0.66700  0.33300  0.50000  1.0000
  Re  Re3       1.0  0.33300  0.66700  0.50000  1.0000
