data_image0
_chemical_formula_structural       Li8Mn2O11W2
_chemical_formula_sum              "Li8 Mn2 O11 W2"
_cell_length_a       10.3748
_cell_length_b       5.12898
_cell_length_c       5.11882
_cell_angle_alpha    99.7581
_cell_angle_beta     100.388
_cell_angle_gamma    120.264

_space_group_name_H-M_alt    "P 1"
_space_group_IT_number       1

loop_
  _space_group_symop_operation_xyz
  'x, y, z'

loop_
  _atom_site_type_symbol
  _atom_site_label
  _atom_site_symmetry_multiplicity
  _atom_site_fract_x
  _atom_site_fract_y
  _atom_site_fract_z
  _atom_site_occupancy
  Li  Li1       1.0  0.99800  0.99900  0.50100  1.0000
  Li  Li2       1.0  0.17500  0.65700  0.50200  1.0000
  Li  Li3       1.0  0.83200  0.32800  0.50200  1.0000
  Li  Li4       1.0  0.68500  0.65100  0.50900  1.0000
  Li  Li5       1.0  0.49400  0.03100  0.51600  1.0000
  Li  Li6       1.0  0.31800  0.31600  0.52800  1.0000
  Li  Li7       1.0  0.24400  0.50500  0.98400  1.0000
  Li  Li8       1.0  0.75200  0.50600  0.99000  1.0000
  Mn  Mn1       1.0  0.91400  0.16200  0.00170  1.0000
  Mn  Mn2       1.0  0.42700  0.21100  0.01090  1.0000
  O   O1        1.0  0.96700  0.60600  0.23000  1.0000
  O   O2        1.0  0.77300  0.89900  0.23900  1.0000
  O   O3        1.0  0.12800  0.22900  0.24100  1.0000
  O   O4        1.0  0.28000  0.92000  0.24100  1.0000
  O   O5        1.0  0.61800  0.19900  0.25000  1.0000
  O   O6        1.0  0.68900  0.02850  0.72800  1.0000
  O   O7        1.0  0.54200  0.43600  0.74400  1.0000
  O   O8        1.0  0.88900  0.74700  0.75700  1.0000
  O   O9        1.0  0.04520  0.44800  0.75900  1.0000
  O   O10       1.0  0.38800  0.75900  0.77000  1.0000
  O   O11       1.0  0.19900  0.07460  0.77300  1.0000
  W   W1        1.0  0.08600  0.83500  0.00123  1.0000
  W   W2        1.0  0.58800  0.84500  0.99100  1.0000
