data_image0
_chemical_formula_structural       Ag4Al4Cs4F24
_chemical_formula_sum              "Ag4 Al4 Cs4 F24"
_cell_length_a       7.19195
_cell_length_b       7.09953
_cell_length_c       10.0534
_cell_angle_alpha    90
_cell_angle_beta     90
_cell_angle_gamma    90

_space_group_name_H-M_alt    "P 1"
_space_group_IT_number       1

loop_
  _space_group_symop_operation_xyz
  'x, y, z'

loop_
  _atom_site_type_symbol
  _atom_site_label
  _atom_site_symmetry_multiplicity
  _atom_site_fract_x
  _atom_site_fract_y
  _atom_site_fract_z
  _atom_site_occupancy
  Ag  Ag1       1.0  0.69600  0.75000  0.24600  1.0000
  Ag  Ag2       1.0  0.19600  0.75000  0.25400  1.0000
  Ag  Ag3       1.0  0.80400  0.25000  0.74600  1.0000
  Ag  Ag4       1.0  0.30400  0.25000  0.75400  1.0000
  Al  Al1       1.0  0.00000  0.00000  0.00000  1.0000
  Al  Al2       1.0  0.00000  0.50000  0.00000  1.0000
  Al  Al3       1.0  0.50000  0.00000  0.50000  1.0000
  Al  Al4       1.0  0.50000  0.50000  0.50000  1.0000
  Cs  Cs1       1.0  0.46700  0.25000  0.12600  1.0000
  Cs  Cs2       1.0  0.96700  0.25000  0.37400  1.0000
  Cs  Cs3       1.0  0.03250  0.75000  0.62600  1.0000
  Cs  Cs4       1.0  0.53300  0.75000  0.87400  1.0000
  F   F1        1.0  0.05270  0.75000  0.00877  1.0000
  F   F2        1.0  0.78100  0.53200  0.08350  1.0000
  F   F3        1.0  0.78100  0.96800  0.08350  1.0000
  F   F4        1.0  0.44200  0.75000  0.15600  1.0000
  F   F5        1.0  0.11700  0.03170  0.15800  1.0000
  F   F6        1.0  0.11700  0.46800  0.15800  1.0000
  F   F7        1.0  0.61700  0.03170  0.34200  1.0000
  F   F8        1.0  0.61700  0.46800  0.34200  1.0000
  F   F9        1.0  0.94200  0.75000  0.34400  1.0000
  F   F10       1.0  0.28100  0.53200  0.41700  1.0000
  F   F11       1.0  0.28100  0.96800  0.41700  1.0000
  F   F12       1.0  0.55300  0.75000  0.49100  1.0000
  F   F13       1.0  0.44700  0.25000  0.50900  1.0000
  F   F14       1.0  0.71900  0.03230  0.58300  1.0000
  F   F15       1.0  0.71900  0.46800  0.58300  1.0000
  F   F16       1.0  0.05790  0.25000  0.65600  1.0000
  F   F17       1.0  0.38300  0.53200  0.65800  1.0000
  F   F18       1.0  0.38300  0.96800  0.65800  1.0000
  F   F19       1.0  0.88300  0.53200  0.84200  1.0000
  F   F20       1.0  0.88300  0.96800  0.84200  1.0000
  F   F21       1.0  0.55800  0.25000  0.84400  1.0000
  F   F22       1.0  0.21900  0.03230  0.91700  1.0000
  F   F23       1.0  0.21900  0.46800  0.91700  1.0000
  F   F24       1.0  0.94700  0.25000  0.99100  1.0000
