data_image0
_chemical_formula_structural       Li8Mn2O11Os2
_chemical_formula_sum              "Li8 Mn2 O11 Os2"
_cell_length_a       10.2254
_cell_length_b       5.04779
_cell_length_c       5.02377
_cell_angle_alpha    99.761
_cell_angle_beta     98.9551
_cell_angle_gamma    119.941

_space_group_name_H-M_alt    "P 1"
_space_group_IT_number       1

loop_
  _space_group_symop_operation_xyz
  'x, y, z'

loop_
  _atom_site_type_symbol
  _atom_site_label
  _atom_site_symmetry_multiplicity
  _atom_site_fract_x
  _atom_site_fract_y
  _atom_site_fract_z
  _atom_site_occupancy
  Li  Li1       1.0  0.98800  0.97200  0.48800  1.0000
  Li  Li2       1.0  0.66900  0.65100  0.50000  1.0000
  Li  Li3       1.0  0.50200  0.00340  0.50300  1.0000
  Li  Li4       1.0  0.33900  0.33400  0.50400  1.0000
  Li  Li5       1.0  0.83400  0.33600  0.50500  1.0000
  Li  Li6       1.0  0.17100  0.69800  0.50800  1.0000
  Li  Li7       1.0  0.25500  0.51900  0.98100  1.0000
  Li  Li8       1.0  0.74900  0.49000  0.00000  1.0000
  Mn  Mn1       1.0  0.41500  0.16900  0.00505  1.0000
  Mn  Mn2       1.0  0.92100  0.16000  0.99800  1.0000
  O   O1        1.0  0.28400  0.92800  0.22700  1.0000
  O   O2        1.0  0.78900  0.91900  0.22900  1.0000
  O   O3        1.0  0.96700  0.56600  0.23600  1.0000
  O   O4        1.0  0.46100  0.57900  0.23700  1.0000
  O   O5        1.0  0.62800  0.23300  0.25200  1.0000
  O   O6        1.0  0.19500  0.08660  0.75700  1.0000
  O   O7        1.0  0.70300  0.06530  0.75800  1.0000
  O   O8        1.0  0.87700  0.76300  0.76200  1.0000
  O   O9        1.0  0.53500  0.42000  0.76700  1.0000
  O   O10       1.0  0.38900  0.77700  0.76900  1.0000
  O   O11       1.0  0.04150  0.41400  0.78000  1.0000
  Os  Os1       1.0  0.58800  0.84000  0.00351  1.0000
  Os  Os2       1.0  0.07830  0.84900  0.99400  1.0000
