data_image0
_chemical_formula_structural       Li8Mn2O11V2
_chemical_formula_sum              "Li8 Mn2 O11 V2"
_cell_length_a       10.0197
_cell_length_b       5.01743
_cell_length_c       5.02454
_cell_angle_alpha    100.23
_cell_angle_beta     99.7474
_cell_angle_gamma    119.878

_space_group_name_H-M_alt    "P 1"
_space_group_IT_number       1

loop_
  _space_group_symop_operation_xyz
  'x, y, z'

loop_
  _atom_site_type_symbol
  _atom_site_label
  _atom_site_symmetry_multiplicity
  _atom_site_fract_x
  _atom_site_fract_y
  _atom_site_fract_z
  _atom_site_occupancy
  Li  Li1       1.0  0.75400  0.50900  0.00444  1.0000
  Li  Li2       1.0  0.67000  0.66100  0.49600  1.0000
  Li  Li3       1.0  0.33500  0.39100  0.50000  1.0000
  Li  Li4       1.0  0.99200  0.99100  0.50100  1.0000
  Li  Li5       1.0  0.83200  0.34200  0.50300  1.0000
  Li  Li6       1.0  0.52500  0.01010  0.51800  1.0000
  Li  Li7       1.0  0.15100  0.62100  0.52700  1.0000
  Li  Li8       1.0  0.24700  0.45900  0.97200  1.0000
  Mn  Mn1       1.0  0.91700  0.17200  0.00731  1.0000
  Mn  Mn2       1.0  0.41900  0.17000  0.98300  1.0000
  O   O1        1.0  0.45800  0.56600  0.22300  1.0000
  O   O2        1.0  0.60600  0.20900  0.22800  1.0000
  O   O3        1.0  0.79000  0.93300  0.23300  1.0000
  O   O4        1.0  0.11300  0.23000  0.23900  1.0000
  O   O5        1.0  0.96700  0.57500  0.24300  1.0000
  O   O6        1.0  0.53900  0.44800  0.74800  1.0000
  O   O7        1.0  0.38300  0.77800  0.75700  1.0000
  O   O8        1.0  0.21100  0.05270  0.76800  1.0000
  O   O9        1.0  0.87900  0.78100  0.77000  1.0000
  O   O10       1.0  0.71800  0.08870  0.77600  1.0000
  O   O11       1.0  0.04240  0.41900  0.78900  1.0000
  V   V1        1.0  0.58600  0.83100  0.99200  1.0000
  V   V2        1.0  0.07530  0.83000  0.99600  1.0000
