data_image0
_chemical_formula_structural       Mo6O24Zn6
_chemical_formula_sum              "Mo6 O24 Zn6"
_cell_length_a       9.59358
_cell_length_b       6.95898
_cell_length_c       8.36388
_cell_angle_alpha    102.339
_cell_angle_beta     96.3961
_cell_angle_gamma    107.054

_space_group_name_H-M_alt    "P 1"
_space_group_IT_number       1

loop_
  _space_group_symop_operation_xyz
  'x, y, z'

loop_
  _atom_site_type_symbol
  _atom_site_label
  _atom_site_symmetry_multiplicity
  _atom_site_fract_x
  _atom_site_fract_y
  _atom_site_fract_z
  _atom_site_occupancy
  Mo  Mo1       1.0  0.34400  0.20100  0.10600  1.0000
  Mo  Mo2       1.0  0.87400  0.47800  0.20200  1.0000
  Mo  Mo3       1.0  0.25600  0.00645  0.48800  1.0000
  Mo  Mo4       1.0  0.74400  0.99400  0.51200  1.0000
  Mo  Mo5       1.0  0.12600  0.52200  0.79800  1.0000
  Mo  Mo6       1.0  0.65600  0.79900  0.89400  1.0000
  O   O1        1.0  0.74700  0.34600  0.01380  1.0000
  O   O2        1.0  0.15000  0.04890  0.02590  1.0000
  O   O3        1.0  0.57400  0.75100  0.06480  1.0000
  O   O4        1.0  0.96400  0.73800  0.20200  1.0000
  O   O5        1.0  0.43500  0.06370  0.21200  1.0000
  O   O6        1.0  0.01790  0.35800  0.22900  1.0000
  O   O7        1.0  0.36500  0.45500  0.23800  1.0000
  O   O8        1.0  0.18400  0.15300  0.36200  1.0000
  O   O9        1.0  0.26100  0.76200  0.36400  1.0000
  O   O10       1.0  0.85600  0.05160  0.36400  1.0000
  O   O11       1.0  0.77500  0.47500  0.37100  1.0000
  O   O12       1.0  0.56700  0.83500  0.40800  1.0000
  O   O13       1.0  0.43300  0.16500  0.59200  1.0000
  O   O14       1.0  0.22500  0.52500  0.62900  1.0000
  O   O15       1.0  0.14400  0.94800  0.63600  1.0000
  O   O16       1.0  0.73900  0.23800  0.63600  1.0000
  O   O17       1.0  0.81600  0.84700  0.63800  1.0000
  O   O18       1.0  0.63500  0.54500  0.76200  1.0000
  O   O19       1.0  0.98200  0.64200  0.77100  1.0000
  O   O20       1.0  0.56500  0.93600  0.78800  1.0000
  O   O21       1.0  0.03570  0.26200  0.79800  1.0000
  O   O22       1.0  0.42600  0.24900  0.93500  1.0000
  O   O23       1.0  0.85000  0.95100  0.97400  1.0000
  O   O24       1.0  0.25300  0.65400  0.98600  1.0000
  Zn  Zn1       1.0  0.98800  0.03370  0.19200  1.0000
  Zn  Zn2       1.0  0.41100  0.75400  0.19600  1.0000
  Zn  Zn3       1.0  0.21700  0.47100  0.39100  1.0000
  Zn  Zn4       1.0  0.78300  0.52900  0.60900  1.0000
  Zn  Zn5       1.0  0.58900  0.24600  0.80400  1.0000
  Zn  Zn6       1.0  0.01190  0.96600  0.80800  1.0000
