data_image0
_chemical_formula_structural       B4Ca4H4O20Si4
_chemical_formula_sum              "B4 Ca4 H4 O20 Si4"
_cell_length_a       4.7825
_cell_length_b       7.55603
_cell_length_c       9.61894
_cell_angle_alpha    90
_cell_angle_beta     90.5314
_cell_angle_gamma    90

_space_group_name_H-M_alt    "P 1"
_space_group_IT_number       1

loop_
  _space_group_symop_operation_xyz
  'x, y, z'

loop_
  _atom_site_type_symbol
  _atom_site_label
  _atom_site_symmetry_multiplicity
  _atom_site_fract_x
  _atom_site_fract_y
  _atom_site_fract_z
  _atom_site_occupancy
  B   B1        1.0  0.42700  0.91100  0.15800  1.0000
  B   B2        1.0  0.57300  0.41100  0.34200  1.0000
  B   B3        1.0  0.42700  0.58900  0.65800  1.0000
  B   B4        1.0  0.57300  0.08890  0.84200  1.0000
  Ca  Ca1       1.0  0.00655  0.60600  0.16500  1.0000
  Ca  Ca2       1.0  0.99300  0.10600  0.33500  1.0000
  Ca  Ca3       1.0  0.00655  0.89400  0.66500  1.0000
  Ca  Ca4       1.0  0.99300  0.39400  0.83500  1.0000
  H   H1        1.0  0.80800  0.96000  0.07440  1.0000
  H   H2        1.0  0.19200  0.46000  0.42600  1.0000
  H   H3        1.0  0.80800  0.54000  0.57400  1.0000
  H   H4        1.0  0.19200  0.03950  0.92600  1.0000
  O   O1        1.0  0.24300  0.40800  0.03560  1.0000
  O   O2        1.0  0.31900  0.80200  0.04080  1.0000
  O   O3        1.0  0.31000  0.09050  0.14400  1.0000
  O   O4        1.0  0.74000  0.91100  0.16200  1.0000
  O   O5        1.0  0.68400  0.33600  0.21200  1.0000
  O   O6        1.0  0.31600  0.83600  0.28800  1.0000
  O   O7        1.0  0.26000  0.41100  0.33800  1.0000
  O   O8        1.0  0.69000  0.59000  0.35600  1.0000
  O   O9        1.0  0.68100  0.30200  0.45900  1.0000
  O   O10       1.0  0.75700  0.90800  0.46400  1.0000
  O   O11       1.0  0.24300  0.09180  0.53600  1.0000
  O   O12       1.0  0.31900  0.69800  0.54100  1.0000
  O   O13       1.0  0.31000  0.41000  0.64400  1.0000
  O   O14       1.0  0.74000  0.58900  0.66200  1.0000
  O   O15       1.0  0.68400  0.16400  0.71200  1.0000
  O   O16       1.0  0.31600  0.66400  0.78800  1.0000
  O   O17       1.0  0.26000  0.08860  0.83800  1.0000
  O   O18       1.0  0.69000  0.91000  0.85600  1.0000
  O   O19       1.0  0.68100  0.19800  0.95900  1.0000
  O   O20       1.0  0.75700  0.59200  0.96400  1.0000
  Si  Si1       1.0  0.47300  0.27000  0.08380  1.0000
  Si  Si2       1.0  0.52700  0.77000  0.41600  1.0000
  Si  Si3       1.0  0.47300  0.23000  0.58400  1.0000
  Si  Si4       1.0  0.52700  0.73000  0.91600  1.0000
