data_image0
_chemical_formula_structural       O24W4Yb8
_chemical_formula_sum              "O24 W4 Yb8"
_cell_length_a       7.50759
_cell_length_b       5.46617
_cell_length_c       11.0805
_cell_angle_alpha    90
_cell_angle_beta     101.675
_cell_angle_gamma    90

_space_group_name_H-M_alt    "P 1"
_space_group_IT_number       1

loop_
  _space_group_symop_operation_xyz
  'x, y, z'

loop_
  _atom_site_type_symbol
  _atom_site_label
  _atom_site_symmetry_multiplicity
  _atom_site_fract_x
  _atom_site_fract_y
  _atom_site_fract_z
  _atom_site_occupancy
  O   O1        1.0  0.35300  0.84000  0.06450  1.0000
  O   O2        1.0  0.86200  0.50600  0.06850  1.0000
  O   O3        1.0  0.92300  0.01940  0.10200  1.0000
  O   O4        1.0  0.47500  0.34000  0.10800  1.0000
  O   O5        1.0  0.71200  0.97900  0.21300  1.0000
  O   O6        1.0  0.22000  0.45900  0.24900  1.0000
  O   O7        1.0  0.78000  0.45900  0.25100  1.0000
  O   O8        1.0  0.28800  0.97900  0.28700  1.0000
  O   O9        1.0  0.52500  0.34000  0.39200  1.0000
  O   O10       1.0  0.07690  0.01940  0.39800  1.0000
  O   O11       1.0  0.13800  0.50600  0.43200  1.0000
  O   O12       1.0  0.64700  0.84000  0.43600  1.0000
  O   O13       1.0  0.35300  0.16000  0.56400  1.0000
  O   O14       1.0  0.86200  0.49400  0.56800  1.0000
  O   O15       1.0  0.92300  0.98100  0.60200  1.0000
  O   O16       1.0  0.47500  0.66000  0.60800  1.0000
  O   O17       1.0  0.71200  0.02060  0.71300  1.0000
  O   O18       1.0  0.22000  0.54100  0.74900  1.0000
  O   O19       1.0  0.78000  0.54100  0.75100  1.0000
  O   O20       1.0  0.28800  0.02060  0.78700  1.0000
  O   O21       1.0  0.52500  0.66000  0.89200  1.0000
  O   O22       1.0  0.07690  0.98100  0.89800  1.0000
  O   O23       1.0  0.13800  0.49400  0.93200  1.0000
  O   O24       1.0  0.64700  0.16000  0.93600  1.0000
  W   W1        1.0  0.70600  0.24600  0.09830  1.0000
  W   W2        1.0  0.29400  0.24600  0.40200  1.0000
  W   W3        1.0  0.70600  0.75400  0.59800  1.0000
  W   W4        1.0  0.29400  0.75400  0.90200  1.0000
  Yb  Yb1       1.0  0.19000  0.19400  0.08400  1.0000
  Yb  Yb2       1.0  0.00000  0.73400  0.25000  1.0000
  Yb  Yb3       1.0  0.50000  0.67000  0.25000  1.0000
  Yb  Yb4       1.0  0.81000  0.19400  0.41600  1.0000
  Yb  Yb5       1.0  0.19000  0.80600  0.58400  1.0000
  Yb  Yb6       1.0  0.00000  0.26600  0.75000  1.0000
  Yb  Yb7       1.0  0.50000  0.33000  0.75000  1.0000
  Yb  Yb8       1.0  0.81000  0.80600  0.91600  1.0000
