data_image0
_chemical_formula_structural       Li8Mn2O11Sb2
_chemical_formula_sum              "Li8 Mn2 O11 Sb2"
_cell_length_a       10.4583
_cell_length_b       5.08742
_cell_length_c       5.10467
_cell_angle_alpha    99.8634
_cell_angle_beta     98.7108
_cell_angle_gamma    120.345

_space_group_name_H-M_alt    "P 1"
_space_group_IT_number       1

loop_
  _space_group_symop_operation_xyz
  'x, y, z'

loop_
  _atom_site_type_symbol
  _atom_site_label
  _atom_site_symmetry_multiplicity
  _atom_site_fract_x
  _atom_site_fract_y
  _atom_site_fract_z
  _atom_site_occupancy
  Li  Li1       1.0  0.67400  0.65100  0.49700  1.0000
  Li  Li2       1.0  0.50100  0.00454  0.50000  1.0000
  Li  Li3       1.0  0.83300  0.34500  0.50500  1.0000
  Li  Li4       1.0  0.98700  0.98100  0.50900  1.0000
  Li  Li5       1.0  0.34600  0.33300  0.51200  1.0000
  Li  Li6       1.0  0.16800  0.69000  0.51600  1.0000
  Li  Li7       1.0  0.25000  0.50900  0.96300  1.0000
  Li  Li8       1.0  0.74800  0.49300  0.99000  1.0000
  Mn  Mn1       1.0  0.91200  0.16300  0.99000  1.0000
  Mn  Mn2       1.0  0.41400  0.16200  0.99700  1.0000
  O   O1        1.0  0.78900  0.91700  0.22400  1.0000
  O   O2        1.0  0.46200  0.56800  0.22800  1.0000
  O   O3        1.0  0.29600  0.92300  0.22800  1.0000
  O   O4        1.0  0.96600  0.54900  0.24100  1.0000
  O   O5        1.0  0.62500  0.22900  0.24800  1.0000
  O   O6        1.0  0.19800  0.07440  0.74200  1.0000
  O   O7        1.0  0.69800  0.06000  0.75300  1.0000
  O   O8        1.0  0.87800  0.76800  0.75900  1.0000
  O   O9        1.0  0.38900  0.77300  0.76600  1.0000
  O   O10       1.0  0.53300  0.41700  0.77100  1.0000
  O   O11       1.0  0.03930  0.44400  0.78700  1.0000
  Sb  Sb1       1.0  0.58700  0.84000  0.00362  1.0000
  Sb  Sb2       1.0  0.08810  0.87800  0.02900  1.0000
