data_image0
_chemical_formula_structural       Cr4I4K4O24
_chemical_formula_sum              "Cr4 I4 K4 O24"
_cell_length_a       8.93491
_cell_length_b       4.5802
_cell_length_c       13.874
_cell_angle_alpha    90
_cell_angle_beta     107.387
_cell_angle_gamma    90

_space_group_name_H-M_alt    "P 1"
_space_group_IT_number       1

loop_
  _space_group_symop_operation_xyz
  'x, y, z'

loop_
  _atom_site_type_symbol
  _atom_site_label
  _atom_site_symmetry_multiplicity
  _atom_site_fract_x
  _atom_site_fract_y
  _atom_site_fract_z
  _atom_site_occupancy
  Cr  Cr1       1.0  0.77600  0.96900  0.02460  1.0000
  Cr  Cr2       1.0  0.22400  0.46900  0.47500  1.0000
  Cr  Cr3       1.0  0.77600  0.53100  0.52500  1.0000
  Cr  Cr4       1.0  0.22400  0.03090  0.97500  1.0000
  I   I1        1.0  0.56600  0.64400  0.16300  1.0000
  I   I2        1.0  0.43400  0.14400  0.33700  1.0000
  I   I3        1.0  0.56600  0.85600  0.66300  1.0000
  I   I4        1.0  0.43400  0.35600  0.83700  1.0000
  K   K1        1.0  0.09170  0.58800  0.16700  1.0000
  K   K2        1.0  0.90800  0.08760  0.33300  1.0000
  K   K3        1.0  0.09170  0.91200  0.66700  1.0000
  K   K4        1.0  0.90800  0.41200  0.83300  1.0000
  O   O1        1.0  0.11600  0.25200  0.01650  1.0000
  O   O2        1.0  0.61200  0.76900  0.03940  1.0000
  O   O3        1.0  0.29000  0.76700  0.05720  1.0000
  O   O4        1.0  0.88000  0.09460  0.13400  1.0000
  O   O5        1.0  0.55000  0.02060  0.20900  1.0000
  O   O6        1.0  0.76400  0.58000  0.23800  1.0000
  O   O7        1.0  0.23600  0.07970  0.26200  1.0000
  O   O8        1.0  0.45000  0.52100  0.29100  1.0000
  O   O9        1.0  0.12000  0.59500  0.36600  1.0000
  O   O10       1.0  0.71000  0.26700  0.44300  1.0000
  O   O11       1.0  0.38800  0.26900  0.46100  1.0000
  O   O12       1.0  0.88400  0.75200  0.48300  1.0000
  O   O13       1.0  0.11600  0.24800  0.51700  1.0000
  O   O14       1.0  0.61200  0.73100  0.53900  1.0000
  O   O15       1.0  0.29000  0.73300  0.55700  1.0000
  O   O16       1.0  0.88000  0.40500  0.63400  1.0000
  O   O17       1.0  0.55000  0.47900  0.70900  1.0000
  O   O18       1.0  0.76400  0.92000  0.73800  1.0000
  O   O19       1.0  0.23600  0.42000  0.76200  1.0000
  O   O20       1.0  0.45000  0.97900  0.79100  1.0000
  O   O21       1.0  0.12000  0.90500  0.86600  1.0000
  O   O22       1.0  0.71000  0.23300  0.94300  1.0000
  O   O23       1.0  0.38800  0.23100  0.96100  1.0000
  O   O24       1.0  0.88400  0.74800  0.98300  1.0000
