data_image0
_chemical_formula_structural       Cl4H12O20
_chemical_formula_sum              "Cl4 H12 O20"
_cell_length_a       7.1873
_cell_length_b       9.05726
_cell_length_c       5.19598
_cell_angle_alpha    90
_cell_angle_beta     98.1354
_cell_angle_gamma    90

_space_group_name_H-M_alt    "P 1"
_space_group_IT_number       1

loop_
  _space_group_symop_operation_xyz
  'x, y, z'

loop_
  _atom_site_type_symbol
  _atom_site_label
  _atom_site_symmetry_multiplicity
  _atom_site_fract_x
  _atom_site_fract_y
  _atom_site_fract_z
  _atom_site_occupancy
  Cl  Cl1       1.0  0.28200  0.96600  0.22300  1.0000
  Cl  Cl2       1.0  0.21800  0.46600  0.27700  1.0000
  Cl  Cl3       1.0  0.78200  0.53400  0.72300  1.0000
  Cl  Cl4       1.0  0.71800  0.03390  0.77700  1.0000
  H   H1        1.0  0.66800  0.39700  0.10400  1.0000
  H   H2        1.0  0.77400  0.82600  0.10600  1.0000
  H   H3        1.0  0.73700  0.22200  0.13100  1.0000
  H   H4        1.0  0.76300  0.72200  0.36900  1.0000
  H   H5        1.0  0.72600  0.32600  0.39400  1.0000
  H   H6        1.0  0.83200  0.89700  0.39600  1.0000
  H   H7        1.0  0.16800  0.10300  0.60400  1.0000
  H   H8        1.0  0.27400  0.67400  0.60600  1.0000
  H   H9        1.0  0.23700  0.27800  0.63100  1.0000
  H   H10       1.0  0.26300  0.77800  0.86900  1.0000
  H   H11       1.0  0.22600  0.17400  0.89400  1.0000
  H   H12       1.0  0.33200  0.60300  0.89600  1.0000
  O   O1        1.0  0.83500  0.09650  0.00622  1.0000
  O   O2        1.0  0.31900  0.45300  0.05200  1.0000
  O   O3        1.0  0.31000  0.12300  0.17600  1.0000
  O   O4        1.0  0.66400  0.30300  0.21000  1.0000
  O   O5        1.0  0.04180  0.38900  0.22900  1.0000
  O   O6        1.0  0.45800  0.88900  0.27100  1.0000
  O   O7        1.0  0.83600  0.80300  0.29000  1.0000
  O   O8        1.0  0.19000  0.62300  0.32400  1.0000
  O   O9        1.0  0.18100  0.95300  0.44800  1.0000
  O   O10       1.0  0.66500  0.59700  0.49400  1.0000
  O   O11       1.0  0.33500  0.40300  0.50600  1.0000
  O   O12       1.0  0.81900  0.04750  0.55200  1.0000
  O   O13       1.0  0.81000  0.37700  0.67600  1.0000
  O   O14       1.0  0.16400  0.19700  0.71000  1.0000
  O   O15       1.0  0.54200  0.11100  0.72900  1.0000
  O   O16       1.0  0.95800  0.61100  0.77100  1.0000
  O   O17       1.0  0.33600  0.69700  0.79000  1.0000
  O   O18       1.0  0.69000  0.87700  0.82400  1.0000
  O   O19       1.0  0.68100  0.54700  0.94800  1.0000
  O   O20       1.0  0.16500  0.90300  0.99400  1.0000
