data_image0
_chemical_formula_structural       Hg4O24V8
_chemical_formula_sum              "Hg4 O24 V8"
_cell_length_a       14.4916
_cell_length_b       5.90898
_cell_length_c       4.92339
_cell_angle_alpha    90
_cell_angle_beta     90
_cell_angle_gamma    90

_space_group_name_H-M_alt    "P 1"
_space_group_IT_number       1

loop_
  _space_group_symop_operation_xyz
  'x, y, z'

loop_
  _atom_site_type_symbol
  _atom_site_label
  _atom_site_symmetry_multiplicity
  _atom_site_fract_x
  _atom_site_fract_y
  _atom_site_fract_z
  _atom_site_occupancy
  Hg  Hg1       1.0  0.00000  0.00000  0.00000  1.0000
  Hg  Hg2       1.0  0.50000  0.50000  0.00000  1.0000
  Hg  Hg3       1.0  0.50000  0.00000  0.50000  1.0000
  Hg  Hg4       1.0  0.00000  0.50000  0.50000  1.0000
  O   O1        1.0  0.90400  0.37400  0.07200  1.0000
  O   O2        1.0  0.59600  0.87400  0.07200  1.0000
  O   O3        1.0  0.60900  0.32400  0.16900  1.0000
  O   O4        1.0  0.89100  0.82400  0.16900  1.0000
  O   O5        1.0  0.24700  0.10400  0.21100  1.0000
  O   O6        1.0  0.25300  0.60400  0.21100  1.0000
  O   O7        1.0  0.74700  0.10400  0.28900  1.0000
  O   O8        1.0  0.75300  0.60400  0.28900  1.0000
  O   O9        1.0  0.10900  0.32400  0.33100  1.0000
  O   O10       1.0  0.39100  0.82400  0.33100  1.0000
  O   O11       1.0  0.40400  0.37400  0.42800  1.0000
  O   O12       1.0  0.09560  0.87400  0.42800  1.0000
  O   O13       1.0  0.90400  0.12600  0.57200  1.0000
  O   O14       1.0  0.59600  0.62600  0.57200  1.0000
  O   O15       1.0  0.60900  0.17600  0.66900  1.0000
  O   O16       1.0  0.89100  0.67600  0.66900  1.0000
  O   O17       1.0  0.24700  0.39600  0.71100  1.0000
  O   O18       1.0  0.25300  0.89600  0.71100  1.0000
  O   O19       1.0  0.74700  0.39600  0.78900  1.0000
  O   O20       1.0  0.75300  0.89600  0.78900  1.0000
  O   O21       1.0  0.10900  0.17600  0.83100  1.0000
  O   O22       1.0  0.39100  0.67600  0.83100  1.0000
  O   O23       1.0  0.40400  0.12600  0.92800  1.0000
  O   O24       1.0  0.09560  0.62600  0.92800  1.0000
  V   V1        1.0  0.17100  0.43500  0.02410  1.0000
  V   V2        1.0  0.32900  0.93500  0.02410  1.0000
  V   V3        1.0  0.67100  0.43500  0.47600  1.0000
  V   V4        1.0  0.82900  0.93500  0.47600  1.0000
  V   V5        1.0  0.17100  0.06480  0.52400  1.0000
  V   V6        1.0  0.32900  0.56500  0.52400  1.0000
  V   V7        1.0  0.67100  0.06480  0.97600  1.0000
  V   V8        1.0  0.82900  0.56500  0.97600  1.0000
