data_image0
_chemical_formula_structural       As6O24SrZr4
_chemical_formula_sum              "As6 O24 Sr1 Zr4"
_cell_length_a       8.87627
_cell_length_b       8.87627
_cell_length_c       9.50606
_cell_angle_alpha    117.832
_cell_angle_beta     117.832
_cell_angle_gamma    60

_space_group_name_H-M_alt    "P 1"
_space_group_IT_number       1

loop_
  _space_group_symop_operation_xyz
  'x, y, z'

loop_
  _atom_site_type_symbol
  _atom_site_label
  _atom_site_symmetry_multiplicity
  _atom_site_fract_x
  _atom_site_fract_y
  _atom_site_fract_z
  _atom_site_occupancy
  As  As1       1.0  0.04020  0.74600  0.25800  1.0000
  As  As2       1.0  0.47100  0.04020  0.25800  1.0000
  As  As3       1.0  0.74600  0.47100  0.25800  1.0000
  As  As4       1.0  0.25400  0.52900  0.74200  1.0000
  As  As5       1.0  0.52900  0.96000  0.74200  1.0000
  As  As6       1.0  0.96000  0.25400  0.74200  1.0000
  O   O1        1.0  0.49800  0.88700  0.07020  1.0000
  O   O2        1.0  0.68500  0.49800  0.07020  1.0000
  O   O3        1.0  0.88700  0.68500  0.07020  1.0000
  O   O4        1.0  0.25800  0.60900  0.24700  1.0000
  O   O5        1.0  0.38000  0.25800  0.24700  1.0000
  O   O6        1.0  0.60900  0.38000  0.24700  1.0000
  O   O7        1.0  0.00368  0.96600  0.29400  1.0000
  O   O8        1.0  0.32400  0.00368  0.29400  1.0000
  O   O9        1.0  0.96600  0.32400  0.29400  1.0000
  O   O10       1.0  0.02660  0.71000  0.41200  1.0000
  O   O11       1.0  0.67500  0.02660  0.41200  1.0000
  O   O12       1.0  0.71000  0.67500  0.41200  1.0000
  O   O13       1.0  0.29000  0.32500  0.58800  1.0000
  O   O14       1.0  0.32500  0.97300  0.58800  1.0000
  O   O15       1.0  0.97300  0.29000  0.58800  1.0000
  O   O16       1.0  0.03380  0.67600  0.70600  1.0000
  O   O17       1.0  0.67600  0.99600  0.70600  1.0000
  O   O18       1.0  0.99600  0.03380  0.70600  1.0000
  O   O19       1.0  0.39100  0.62000  0.75300  1.0000
  O   O20       1.0  0.62000  0.74200  0.75300  1.0000
  O   O21       1.0  0.74200  0.39100  0.75300  1.0000
  O   O22       1.0  0.11300  0.31500  0.93000  1.0000
  O   O23       1.0  0.31500  0.50200  0.93000  1.0000
  O   O24       1.0  0.50200  0.11300  0.93000  1.0000
  Sr  Sr1       1.0  0.50000  0.50000  0.50000  1.0000
  Zr  Zr1       1.0  0.35400  0.35400  0.06310  1.0000
  Zr  Zr2       1.0  0.14400  0.14400  0.43200  1.0000
  Zr  Zr3       1.0  0.85600  0.85600  0.56800  1.0000
  Zr  Zr4       1.0  0.64600  0.64600  0.93700  1.0000
