data_image0
_chemical_formula_structural       Cs2In14S18
_chemical_formula_sum              "Cs2 In14 S18"
_cell_length_a       25.2126
_cell_length_b       3.98448
_cell_length_c       9.10441
_cell_angle_alpha    90
_cell_angle_beta     90
_cell_angle_gamma    90

_space_group_name_H-M_alt    "P 1"
_space_group_IT_number       1

loop_
  _space_group_symop_operation_xyz
  'x, y, z'

loop_
  _atom_site_type_symbol
  _atom_site_label
  _atom_site_symmetry_multiplicity
  _atom_site_fract_x
  _atom_site_fract_y
  _atom_site_fract_z
  _atom_site_occupancy
  Cs  Cs1       1.0  0.75000  0.25000  0.37500  1.0000
  Cs  Cs2       1.0  0.25000  0.75000  0.62500  1.0000
  In  In1       1.0  0.59700  0.25000  0.05290  1.0000
  In  In2       1.0  0.90300  0.25000  0.05290  1.0000
  In  In3       1.0  0.25000  0.25000  0.15500  1.0000
  In  In4       1.0  0.11900  0.75000  0.24900  1.0000
  In  In5       1.0  0.38100  0.75000  0.24900  1.0000
  In  In6       1.0  0.53600  0.75000  0.33900  1.0000
  In  In7       1.0  0.96400  0.75000  0.33900  1.0000
  In  In8       1.0  0.03560  0.25000  0.66100  1.0000
  In  In9       1.0  0.46400  0.25000  0.66100  1.0000
  In  In10      1.0  0.61900  0.25000  0.75100  1.0000
  In  In11      1.0  0.88100  0.25000  0.75100  1.0000
  In  In12      1.0  0.75000  0.75000  0.84500  1.0000
  In  In13      1.0  0.09710  0.75000  0.94700  1.0000
  In  In14      1.0  0.40300  0.75000  0.94700  1.0000
  S   S1        1.0  0.75000  0.25000  0.00136  1.0000
  S   S2        1.0  0.50600  0.25000  0.17000  1.0000
  S   S3        1.0  0.99400  0.25000  0.17000  1.0000
  S   S4        1.0  0.63000  0.75000  0.20600  1.0000
  S   S5        1.0  0.87000  0.75000  0.20600  1.0000
  S   S6        1.0  0.17600  0.25000  0.34100  1.0000
  S   S7        1.0  0.32400  0.25000  0.34100  1.0000
  S   S8        1.0  0.05880  0.75000  0.47100  1.0000
  S   S9        1.0  0.44100  0.75000  0.47100  1.0000
  S   S10       1.0  0.55900  0.25000  0.52900  1.0000
  S   S11       1.0  0.94100  0.25000  0.52900  1.0000
  S   S12       1.0  0.67600  0.75000  0.65900  1.0000
  S   S13       1.0  0.82400  0.75000  0.65900  1.0000
  S   S14       1.0  0.13000  0.25000  0.79400  1.0000
  S   S15       1.0  0.37000  0.25000  0.79400  1.0000
  S   S16       1.0  0.00558  0.75000  0.83000  1.0000
  S   S17       1.0  0.49400  0.75000  0.83000  1.0000
  S   S18       1.0  0.25000  0.75000  0.99900  1.0000
