data_image0
_chemical_formula_structural       Ba12S20Si4
_chemical_formula_sum              "Ba12 S20 Si4"
_cell_length_a       12.0908
_cell_length_b       9.53843
_cell_length_c       8.65565
_cell_angle_alpha    90
_cell_angle_beta     90
_cell_angle_gamma    90

_space_group_name_H-M_alt    "P 1"
_space_group_IT_number       1

loop_
  _space_group_symop_operation_xyz
  'x, y, z'

loop_
  _atom_site_type_symbol
  _atom_site_label
  _atom_site_symmetry_multiplicity
  _atom_site_fract_x
  _atom_site_fract_y
  _atom_site_fract_z
  _atom_site_occupancy
  Ba  Ba1       1.0  0.18200  0.52000  0.07850  1.0000
  Ba  Ba2       1.0  0.18200  0.98000  0.07850  1.0000
  Ba  Ba3       1.0  0.48000  0.25000  0.11300  1.0000
  Ba  Ba4       1.0  0.98000  0.25000  0.38700  1.0000
  Ba  Ba5       1.0  0.68200  0.52000  0.42200  1.0000
  Ba  Ba6       1.0  0.68200  0.98000  0.42200  1.0000
  Ba  Ba7       1.0  0.31800  0.01970  0.57800  1.0000
  Ba  Ba8       1.0  0.31800  0.48000  0.57800  1.0000
  Ba  Ba9       1.0  0.01980  0.75000  0.61300  1.0000
  Ba  Ba10      1.0  0.52000  0.75000  0.88700  1.0000
  Ba  Ba11      1.0  0.81800  0.01970  0.92200  1.0000
  Ba  Ba12      1.0  0.81800  0.48000  0.92200  1.0000
  S   S1        1.0  0.00527  0.25000  0.01500  1.0000
  S   S2        1.0  0.72800  0.75000  0.14900  1.0000
  S   S3        1.0  0.73400  0.25000  0.18100  1.0000
  S   S4        1.0  0.44400  0.56500  0.18500  1.0000
  S   S5        1.0  0.44400  0.93500  0.18500  1.0000
  S   S6        1.0  0.94400  0.56500  0.31500  1.0000
  S   S7        1.0  0.94400  0.93500  0.31500  1.0000
  S   S8        1.0  0.23400  0.25000  0.31900  1.0000
  S   S9        1.0  0.22800  0.75000  0.35100  1.0000
  S   S10       1.0  0.50500  0.25000  0.48500  1.0000
  S   S11       1.0  0.49500  0.75000  0.51500  1.0000
  S   S12       1.0  0.77200  0.25000  0.64900  1.0000
  S   S13       1.0  0.76600  0.75000  0.68100  1.0000
  S   S14       1.0  0.05580  0.06530  0.68500  1.0000
  S   S15       1.0  0.05580  0.43500  0.68500  1.0000
  S   S16       1.0  0.55600  0.06530  0.81500  1.0000
  S   S17       1.0  0.55600  0.43500  0.81500  1.0000
  S   S18       1.0  0.26600  0.75000  0.81900  1.0000
  S   S19       1.0  0.27200  0.25000  0.85100  1.0000
  S   S20       1.0  0.99500  0.75000  0.98500  1.0000
  Si  Si1       1.0  0.90300  0.75000  0.19300  1.0000
  Si  Si2       1.0  0.40300  0.75000  0.30700  1.0000
  Si  Si3       1.0  0.59700  0.25000  0.69300  1.0000
  Si  Si4       1.0  0.09750  0.25000  0.80700  1.0000
