data_image0
_chemical_formula_structural       Ge2Li8Mn2O11
_chemical_formula_sum              "Ge2 Li8 Mn2 O11"
_cell_length_a       10.0473
_cell_length_b       4.99017
_cell_length_c       5.05912
_cell_angle_alpha    100.623
_cell_angle_beta     100.121
_cell_angle_gamma    119.528

_space_group_name_H-M_alt    "P 1"
_space_group_IT_number       1

loop_
  _space_group_symop_operation_xyz
  'x, y, z'

loop_
  _atom_site_type_symbol
  _atom_site_label
  _atom_site_symmetry_multiplicity
  _atom_site_fract_x
  _atom_site_fract_y
  _atom_site_fract_z
  _atom_site_occupancy
  Ge  Ge1       1.0  0.08460  0.83500  0.00077  1.0000
  Ge  Ge2       1.0  0.59300  0.85200  0.96200  1.0000
  Li  Li1       1.0  0.75300  0.51000  0.00130  1.0000
  Li  Li2       1.0  0.16800  0.64800  0.50000  1.0000
  Li  Li3       1.0  0.69900  0.67900  0.50000  1.0000
  Li  Li4       1.0  0.83000  0.32700  0.50100  1.0000
  Li  Li5       1.0  0.00267  0.00786  0.50200  1.0000
  Li  Li6       1.0  0.50100  0.04490  0.51800  1.0000
  Li  Li7       1.0  0.30900  0.29800  0.53100  1.0000
  Li  Li8       1.0  0.23400  0.49500  0.97900  1.0000
  Mn  Mn1       1.0  0.92300  0.17600  0.00051  1.0000
  Mn  Mn2       1.0  0.41300  0.15300  0.00482  1.0000
  O   O1        1.0  0.96900  0.58500  0.22100  1.0000
  O   O2        1.0  0.76300  0.90500  0.22600  1.0000
  O   O3        1.0  0.60600  0.20700  0.23100  1.0000
  O   O4        1.0  0.29200  0.93500  0.23800  1.0000
  O   O5        1.0  0.12000  0.22200  0.24100  1.0000
  O   O6        1.0  0.70200  0.06100  0.74400  1.0000
  O   O7        1.0  0.04180  0.44800  0.75800  1.0000
  O   O8        1.0  0.39000  0.74300  0.76300  1.0000
  O   O9        1.0  0.89300  0.78400  0.77100  1.0000
  O   O10       1.0  0.52900  0.42200  0.78800  1.0000
  O   O11       1.0  0.21500  0.08360  0.79500  1.0000
