data_image0
_chemical_formula_structural       Ge16Nb12Zr8
_chemical_formula_sum              "Ge16 Nb12 Zr8"
_cell_length_a       6.86829
_cell_length_b       13.5112
_cell_length_c       6.97515
_cell_angle_alpha    90
_cell_angle_beta     90
_cell_angle_gamma    90

_space_group_name_H-M_alt    "P 1"
_space_group_IT_number       1

loop_
  _space_group_symop_operation_xyz
  'x, y, z'

loop_
  _atom_site_type_symbol
  _atom_site_label
  _atom_site_symmetry_multiplicity
  _atom_site_fract_x
  _atom_site_fract_y
  _atom_site_fract_z
  _atom_site_occupancy
  Ge  Ge1       1.0  0.30300  0.04270  0.02640  1.0000
  Ge  Ge2       1.0  0.30300  0.45700  0.02640  1.0000
  Ge  Ge3       1.0  0.95500  0.25000  0.09710  1.0000
  Ge  Ge4       1.0  0.32000  0.75000  0.15900  1.0000
  Ge  Ge5       1.0  0.82000  0.75000  0.34100  1.0000
  Ge  Ge6       1.0  0.45500  0.25000  0.40300  1.0000
  Ge  Ge7       1.0  0.80300  0.04270  0.47400  1.0000
  Ge  Ge8       1.0  0.80300  0.45700  0.47400  1.0000
  Ge  Ge9       1.0  0.19700  0.54300  0.52600  1.0000
  Ge  Ge10      1.0  0.19700  0.95700  0.52600  1.0000
  Ge  Ge11      1.0  0.54500  0.75000  0.59700  1.0000
  Ge  Ge12      1.0  0.18000  0.25000  0.65900  1.0000
  Ge  Ge13      1.0  0.68000  0.25000  0.84100  1.0000
  Ge  Ge14      1.0  0.04520  0.75000  0.90300  1.0000
  Ge  Ge15      1.0  0.69700  0.54300  0.97400  1.0000
  Ge  Ge16      1.0  0.69700  0.95700  0.97400  1.0000
  Nb  Nb1       1.0  0.32500  0.25000  0.00359  1.0000
  Nb  Nb2       1.0  0.02100  0.59100  0.17800  1.0000
  Nb  Nb3       1.0  0.02100  0.90900  0.17800  1.0000
  Nb  Nb4       1.0  0.52100  0.59100  0.32200  1.0000
  Nb  Nb5       1.0  0.52100  0.90900  0.32200  1.0000
  Nb  Nb6       1.0  0.82500  0.25000  0.49600  1.0000
  Nb  Nb7       1.0  0.17500  0.75000  0.50400  1.0000
  Nb  Nb8       1.0  0.47900  0.09060  0.67800  1.0000
  Nb  Nb9       1.0  0.47900  0.40900  0.67800  1.0000
  Nb  Nb10      1.0  0.97900  0.09060  0.82200  1.0000
  Nb  Nb11      1.0  0.97900  0.40900  0.82200  1.0000
  Nb  Nb12      1.0  0.67500  0.75000  0.99600  1.0000
  Zr  Zr1       1.0  0.65100  0.12400  0.16600  1.0000
  Zr  Zr2       1.0  0.65100  0.37600  0.16600  1.0000
  Zr  Zr3       1.0  0.15100  0.12400  0.33400  1.0000
  Zr  Zr4       1.0  0.15100  0.37600  0.33400  1.0000
  Zr  Zr5       1.0  0.84900  0.62400  0.66600  1.0000
  Zr  Zr6       1.0  0.84900  0.87600  0.66600  1.0000
  Zr  Zr7       1.0  0.34900  0.62400  0.83400  1.0000
  Zr  Zr8       1.0  0.34900  0.87600  0.83400  1.0000
