data_image0
_chemical_formula_structural       Cl4Co5Mo4Na2O16
_chemical_formula_sum              "Cl4 Co5 Mo4 Na2 O16"
_cell_length_a       6.94557
_cell_length_b       6.94557
_cell_length_c       10.5872
_cell_angle_alpha    105.609
_cell_angle_beta     74.3911
_cell_angle_gamma    100.918

_space_group_name_H-M_alt    "P 1"
_space_group_IT_number       1

loop_
  _space_group_symop_operation_xyz
  'x, y, z'

loop_
  _atom_site_type_symbol
  _atom_site_label
  _atom_site_symmetry_multiplicity
  _atom_site_fract_x
  _atom_site_fract_y
  _atom_site_fract_z
  _atom_site_occupancy
  Cl  Cl1       1.0  0.36000  0.03110  0.37700  1.0000
  Cl  Cl2       1.0  0.96900  0.64000  0.37700  1.0000
  Cl  Cl3       1.0  0.03110  0.36000  0.62300  1.0000
  Cl  Cl4       1.0  0.64000  0.96900  0.62300  1.0000
  Co  Co1       1.0  0.08480  0.56100  0.13600  1.0000
  Co  Co2       1.0  0.43900  0.91500  0.13600  1.0000
  Co  Co3       1.0  0.00000  0.00000  0.50000  1.0000
  Co  Co4       1.0  0.56100  0.08480  0.86400  1.0000
  Co  Co5       1.0  0.91500  0.43900  0.86400  1.0000
  Mo  Mo1       1.0  0.55200  0.44800  0.15900  1.0000
  Mo  Mo2       1.0  0.95800  0.04210  0.19000  1.0000
  Mo  Mo3       1.0  0.04210  0.95800  0.81000  1.0000
  Mo  Mo4       1.0  0.44800  0.55200  0.84100  1.0000
  Na  Na1       1.0  0.66900  0.33100  0.48100  1.0000
  Na  Na2       1.0  0.33100  0.66900  0.51900  1.0000
  O   O1        1.0  0.48400  0.18700  0.08430  1.0000
  O   O2        1.0  0.81300  0.51600  0.08430  1.0000
  O   O3        1.0  0.14000  0.86000  0.12600  1.0000
  O   O4        1.0  0.39200  0.60800  0.13400  1.0000
  O   O5        1.0  0.05580  0.27000  0.13900  1.0000
  O   O6        1.0  0.73000  0.94400  0.13900  1.0000
  O   O7        1.0  0.52400  0.47600  0.33100  1.0000
  O   O8        1.0  0.89900  0.10100  0.37000  1.0000
  O   O9        1.0  0.10100  0.89900  0.63000  1.0000
  O   O10       1.0  0.47600  0.52400  0.66900  1.0000
  O   O11       1.0  0.27000  0.05580  0.86100  1.0000
  O   O12       1.0  0.94400  0.73000  0.86100  1.0000
  O   O13       1.0  0.60800  0.39200  0.86600  1.0000
  O   O14       1.0  0.86000  0.14000  0.87400  1.0000
  O   O15       1.0  0.18700  0.48400  0.91600  1.0000
  O   O16       1.0  0.51600  0.81300  0.91600  1.0000
