data_image0
_chemical_formula_structural       Al2Li8Mn2O11
_chemical_formula_sum              "Al2 Li8 Mn2 O11"
_cell_length_a       9.88433
_cell_length_b       4.94192
_cell_length_c       4.98391
_cell_angle_alpha    99.9984
_cell_angle_beta     99.5258
_cell_angle_gamma    120.217

_space_group_name_H-M_alt    "P 1"
_space_group_IT_number       1

loop_
  _space_group_symop_operation_xyz
  'x, y, z'

loop_
  _atom_site_type_symbol
  _atom_site_label
  _atom_site_symmetry_multiplicity
  _atom_site_fract_x
  _atom_site_fract_y
  _atom_site_fract_z
  _atom_site_occupancy
  Al  Al1       1.0  0.58600  0.84300  0.00532  1.0000
  Al  Al2       1.0  0.05830  0.81700  0.97600  1.0000
  Li  Li1       1.0  0.75200  0.50900  0.00477  1.0000
  Li  Li2       1.0  0.98900  0.99100  0.48800  1.0000
  Li  Li3       1.0  0.67500  0.66900  0.49300  1.0000
  Li  Li4       1.0  0.33400  0.38800  0.49600  1.0000
  Li  Li5       1.0  0.83100  0.33700  0.49900  1.0000
  Li  Li6       1.0  0.52800  0.01570  0.52400  1.0000
  Li  Li7       1.0  0.15500  0.62400  0.52700  1.0000
  Li  Li8       1.0  0.24400  0.45800  0.98000  1.0000
  Mn  Mn1       1.0  0.91700  0.17100  0.00482  1.0000
  Mn  Mn2       1.0  0.42700  0.18300  0.97800  1.0000
  O   O1        1.0  0.46300  0.57200  0.22100  1.0000
  O   O2        1.0  0.78600  0.93300  0.22700  1.0000
  O   O3        1.0  0.60400  0.21900  0.23100  1.0000
  O   O4        1.0  0.11500  0.21400  0.23200  1.0000
  O   O5        1.0  0.97900  0.59200  0.23500  1.0000
  O   O6        1.0  0.52900  0.42300  0.75500  1.0000
  O   O7        1.0  0.88000  0.77200  0.76000  1.0000
  O   O8        1.0  0.39000  0.78200  0.77000  1.0000
  O   O9        1.0  0.71400  0.07660  0.78200  1.0000
  O   O10       1.0  0.04150  0.43400  0.79000  1.0000
  O   O11       1.0  0.21300  0.04680  0.79600  1.0000
