data_image0
_chemical_formula_structural       Al6Na14O16
_chemical_formula_sum              "Al6 Na14 O16"
_cell_length_a       7.93408
_cell_length_b       5.82432
_cell_length_c       11.2521
_cell_angle_alpha    89.7436
_cell_angle_beta     110.584
_cell_angle_gamma    109.031

_space_group_name_H-M_alt    "P 1"
_space_group_IT_number       1

loop_
  _space_group_symop_operation_xyz
  'x, y, z'

loop_
  _atom_site_type_symbol
  _atom_site_label
  _atom_site_symmetry_multiplicity
  _atom_site_fract_x
  _atom_site_fract_y
  _atom_site_fract_z
  _atom_site_occupancy
  Al  Al1       1.0  0.30100  0.06870  0.13600  1.0000
  Al  Al2       1.0  0.90500  0.16600  0.15900  1.0000
  Al  Al3       1.0  0.67600  0.95800  0.35500  1.0000
  Al  Al4       1.0  0.32400  0.04240  0.64500  1.0000
  Al  Al5       1.0  0.09510  0.83400  0.84100  1.0000
  Al  Al6       1.0  0.69900  0.93100  0.86400  1.0000
  Na  Na1       1.0  0.90200  0.65800  0.05070  1.0000
  Na  Na2       1.0  0.51000  0.74600  0.05620  1.0000
  Na  Na3       1.0  0.30600  0.55200  0.23900  1.0000
  Na  Na4       1.0  0.70900  0.47400  0.27000  1.0000
  Na  Na5       1.0  0.09970  0.85200  0.33300  1.0000
  Na  Na6       1.0  0.08870  0.37200  0.44400  1.0000
  Na  Na7       1.0  0.51600  0.27400  0.44800  1.0000
  Na  Na8       1.0  0.48400  0.72600  0.55200  1.0000
  Na  Na9       1.0  0.91100  0.62800  0.55600  1.0000
  Na  Na10      1.0  0.90000  0.14800  0.66700  1.0000
  Na  Na11      1.0  0.29100  0.52600  0.73000  1.0000
  Na  Na12      1.0  0.69400  0.44800  0.76100  1.0000
  Na  Na13      1.0  0.49000  0.25400  0.94400  1.0000
  Na  Na14      1.0  0.09820  0.34200  0.94900  1.0000
  O   O1        1.0  0.23400  0.84000  0.00576  1.0000
  O   O2        1.0  0.40700  0.36200  0.10400  1.0000
  O   O3        1.0  0.09540  0.06850  0.16400  1.0000
  O   O4        1.0  0.99100  0.46700  0.23200  1.0000
  O   O5        1.0  0.78400  0.94500  0.24000  1.0000
  O   O6        1.0  0.44200  0.97800  0.27500  1.0000
  O   O7        1.0  0.63300  0.67700  0.41900  1.0000
  O   O8        1.0  0.80200  0.22300  0.46500  1.0000
  O   O9        1.0  0.19800  0.77700  0.53500  1.0000
  O   O10       1.0  0.36700  0.32300  0.58100  1.0000
  O   O11       1.0  0.55800  0.02220  0.72500  1.0000
  O   O12       1.0  0.21600  0.05490  0.76000  1.0000
  O   O13       1.0  0.00939  0.53300  0.76800  1.0000
  O   O14       1.0  0.90500  0.93200  0.83600  1.0000
  O   O15       1.0  0.59300  0.63800  0.89600  1.0000
  O   O16       1.0  0.76600  0.16000  0.99400  1.0000
