data_image0
_chemical_formula_structural       Ca4Li8O11
_chemical_formula_sum              "Ca4 Li8 O11"
_cell_length_a       10.8438
_cell_length_b       5.95268
_cell_length_c       4.9253
_cell_angle_alpha    110.475
_cell_angle_beta     108.135
_cell_angle_gamma    108.569

_space_group_name_H-M_alt    "P 1"
_space_group_IT_number       1

loop_
  _space_group_symop_operation_xyz
  'x, y, z'

loop_
  _atom_site_type_symbol
  _atom_site_label
  _atom_site_symmetry_multiplicity
  _atom_site_fract_x
  _atom_site_fract_y
  _atom_site_fract_z
  _atom_site_occupancy
  Ca  Ca1       1.0  0.41500  0.19500  0.05550  1.0000
  Ca  Ca2       1.0  0.92500  0.17300  0.96300  1.0000
  Ca  Ca3       1.0  0.10700  0.84600  0.97100  1.0000
  Ca  Ca4       1.0  0.57900  0.84700  0.99100  1.0000
  Li  Li1       1.0  0.97900  0.96500  0.39200  1.0000
  Li  Li2       1.0  0.20900  0.63400  0.48300  1.0000
  Li  Li3       1.0  0.82300  0.40400  0.49400  1.0000
  Li  Li4       1.0  0.69000  0.62200  0.52400  1.0000
  Li  Li5       1.0  0.32300  0.36000  0.53600  1.0000
  Li  Li6       1.0  0.51400  0.10900  0.58600  1.0000
  Li  Li7       1.0  0.21400  0.44700  0.89900  1.0000
  Li  Li8       1.0  0.72200  0.53400  0.98400  1.0000
  O   O1        1.0  0.63900  0.27000  0.09290  1.0000
  O   O2        1.0  0.16800  0.28700  0.14200  1.0000
  O   O3        1.0  0.77200  0.88000  0.38500  1.0000
  O   O4        1.0  0.00074  0.54100  0.43300  1.0000
  O   O5        1.0  0.28700  0.96100  0.44900  1.0000
  O   O6        1.0  0.68900  0.98100  0.56000  1.0000
  O   O7        1.0  0.00881  0.36700  0.59700  1.0000
  O   O8        1.0  0.52900  0.44700  0.60400  1.0000
  O   O9        1.0  0.20400  0.07260  0.62000  1.0000
  O   O10       1.0  0.87800  0.74100  0.91600  1.0000
  O   O11       1.0  0.35200  0.75000  0.92400  1.0000
