data_image0
_chemical_formula_structural       O11Pt4
_chemical_formula_sum              "O11 Pt4"
_cell_length_a       10.7527
_cell_length_b       5.17084
_cell_length_c       4.64374
_cell_angle_alpha    100.457
_cell_angle_beta     101.509
_cell_angle_gamma    122.356

_space_group_name_H-M_alt    "P 1"
_space_group_IT_number       1

loop_
  _space_group_symop_operation_xyz
  'x, y, z'

loop_
  _atom_site_type_symbol
  _atom_site_label
  _atom_site_symmetry_multiplicity
  _atom_site_fract_x
  _atom_site_fract_y
  _atom_site_fract_z
  _atom_site_occupancy
  O   O1        1.0  0.97400  0.58600  0.23800  1.0000
  O   O2        1.0  0.78800  0.95700  0.24400  1.0000
  O   O3        1.0  0.59100  0.16900  0.26000  1.0000
  O   O4        1.0  0.29600  0.99700  0.26500  1.0000
  O   O5        1.0  0.10100  0.22500  0.26700  1.0000
  O   O6        1.0  0.70200  0.98500  0.71600  1.0000
  O   O7        1.0  0.90200  0.79700  0.73700  1.0000
  O   O8        1.0  0.39300  0.77500  0.73700  1.0000
  O   O9        1.0  0.52100  0.39700  0.74900  1.0000
  O   O10       1.0  0.02620  0.43300  0.76100  1.0000
  O   O11       1.0  0.22200  0.09590  0.78600  1.0000
  Pt  Pt1       1.0  0.41700  0.15600  0.00207  1.0000
  Pt  Pt2       1.0  0.08690  0.85900  0.00975  1.0000
  Pt  Pt3       1.0  0.58100  0.82300  0.98900  1.0000
  Pt  Pt4       1.0  0.91500  0.16000  0.99500  1.0000
