data_image0
_chemical_formula_structural       Ba4Cu4Gd8O20
_chemical_formula_sum              "Ba4 Cu4 Gd8 O20"
_cell_length_a       7.19304
_cell_length_b       12.259
_cell_length_c       5.70254
_cell_angle_alpha    90
_cell_angle_beta     90
_cell_angle_gamma    90

_space_group_name_H-M_alt    "P 1"
_space_group_IT_number       1

loop_
  _space_group_symop_operation_xyz
  'x, y, z'

loop_
  _atom_site_type_symbol
  _atom_site_label
  _atom_site_symmetry_multiplicity
  _atom_site_fract_x
  _atom_site_fract_y
  _atom_site_fract_z
  _atom_site_occupancy
  Ba  Ba1       1.0  0.57000  0.40500  0.25000  1.0000
  Ba  Ba2       1.0  0.93000  0.90500  0.25000  1.0000
  Ba  Ba3       1.0  0.06960  0.09490  0.75000  1.0000
  Ba  Ba4       1.0  0.43000  0.59500  0.75000  1.0000
  Cu  Cu1       1.0  0.78600  0.16000  0.25000  1.0000
  Cu  Cu2       1.0  0.71400  0.66000  0.25000  1.0000
  Cu  Cu3       1.0  0.28600  0.34000  0.75000  1.0000
  Cu  Cu4       1.0  0.21400  0.84000  0.75000  1.0000
  Gd  Gd1       1.0  0.39600  0.07400  0.25000  1.0000
  Gd  Gd2       1.0  0.11500  0.28800  0.25000  1.0000
  Gd  Gd3       1.0  0.10400  0.57400  0.25000  1.0000
  Gd  Gd4       1.0  0.38500  0.78800  0.25000  1.0000
  Gd  Gd5       1.0  0.61500  0.21200  0.75000  1.0000
  Gd  Gd6       1.0  0.89600  0.42600  0.75000  1.0000
  Gd  Gd7       1.0  0.88500  0.71200  0.75000  1.0000
  Gd  Gd8       1.0  0.60400  0.92600  0.75000  1.0000
  O   O1        1.0  0.85300  0.27300  0.00557  1.0000
  O   O2        1.0  0.64700  0.77300  0.00557  1.0000
  O   O3        1.0  0.66700  0.06710  0.00863  1.0000
  O   O4        1.0  0.83300  0.56700  0.00863  1.0000
  O   O5        1.0  0.07860  0.09950  0.25000  1.0000
  O   O6        1.0  0.42100  0.59900  0.25000  1.0000
  O   O7        1.0  0.66700  0.06710  0.49100  1.0000
  O   O8        1.0  0.83300  0.56700  0.49100  1.0000
  O   O9        1.0  0.85300  0.27300  0.49400  1.0000
  O   O10       1.0  0.64700  0.77300  0.49400  1.0000
  O   O11       1.0  0.35300  0.22700  0.50600  1.0000
  O   O12       1.0  0.14700  0.72700  0.50600  1.0000
  O   O13       1.0  0.16700  0.43300  0.50900  1.0000
  O   O14       1.0  0.33300  0.93300  0.50900  1.0000
  O   O15       1.0  0.57900  0.40100  0.75000  1.0000
  O   O16       1.0  0.92100  0.90100  0.75000  1.0000
  O   O17       1.0  0.16700  0.43300  0.99100  1.0000
  O   O18       1.0  0.33300  0.93300  0.99100  1.0000
  O   O19       1.0  0.35300  0.22700  0.99400  1.0000
  O   O20       1.0  0.14700  0.72700  0.99400  1.0000
