data_image0
_chemical_formula_structural       Ba4Cu4O20Y8
_chemical_formula_sum              "Ba4 Cu4 O20 Y8"
_cell_length_a       7.13646
_cell_length_b       12.1622
_cell_length_c       5.66428
_cell_angle_alpha    90
_cell_angle_beta     90
_cell_angle_gamma    90

_space_group_name_H-M_alt    "P 1"
_space_group_IT_number       1

loop_
  _space_group_symop_operation_xyz
  'x, y, z'

loop_
  _atom_site_type_symbol
  _atom_site_label
  _atom_site_symmetry_multiplicity
  _atom_site_fract_x
  _atom_site_fract_y
  _atom_site_fract_z
  _atom_site_occupancy
  Ba  Ba1       1.0  0.57100  0.40500  0.25000  1.0000
  Ba  Ba2       1.0  0.92900  0.90500  0.25000  1.0000
  Ba  Ba3       1.0  0.07090  0.09540  0.75000  1.0000
  Ba  Ba4       1.0  0.42900  0.59500  0.75000  1.0000
  Cu  Cu1       1.0  0.78800  0.16000  0.25000  1.0000
  Cu  Cu2       1.0  0.71200  0.66000  0.25000  1.0000
  Cu  Cu3       1.0  0.28800  0.34000  0.75000  1.0000
  Cu  Cu4       1.0  0.21200  0.84000  0.75000  1.0000
  O   O1        1.0  0.85700  0.27200  0.00437  1.0000
  O   O2        1.0  0.64300  0.77200  0.00437  1.0000
  O   O3        1.0  0.66600  0.06700  0.00780  1.0000
  O   O4        1.0  0.83400  0.56700  0.00780  1.0000
  O   O5        1.0  0.08170  0.10000  0.25000  1.0000
  O   O6        1.0  0.41800  0.60000  0.25000  1.0000
  O   O7        1.0  0.66600  0.06700  0.49200  1.0000
  O   O8        1.0  0.83400  0.56700  0.49200  1.0000
  O   O9        1.0  0.85700  0.27200  0.49600  1.0000
  O   O10       1.0  0.64300  0.77200  0.49600  1.0000
  O   O11       1.0  0.35700  0.22800  0.50400  1.0000
  O   O12       1.0  0.14300  0.72800  0.50400  1.0000
  O   O13       1.0  0.16600  0.43300  0.50800  1.0000
  O   O14       1.0  0.33400  0.93300  0.50800  1.0000
  O   O15       1.0  0.58200  0.40000  0.75000  1.0000
  O   O16       1.0  0.91800  0.90000  0.75000  1.0000
  O   O17       1.0  0.16600  0.43300  0.99200  1.0000
  O   O18       1.0  0.33400  0.93300  0.99200  1.0000
  O   O19       1.0  0.35700  0.22800  0.99600  1.0000
  O   O20       1.0  0.14300  0.72800  0.99600  1.0000
  Y   Y1        1.0  0.39700  0.07430  0.25000  1.0000
  Y   Y2        1.0  0.11600  0.28800  0.25000  1.0000
  Y   Y3        1.0  0.10300  0.57400  0.25000  1.0000
  Y   Y4        1.0  0.38400  0.78800  0.25000  1.0000
  Y   Y5        1.0  0.61600  0.21200  0.75000  1.0000
  Y   Y6        1.0  0.89700  0.42600  0.75000  1.0000
  Y   Y7        1.0  0.88400  0.71200  0.75000  1.0000
  Y   Y8        1.0  0.60300  0.92600  0.75000  1.0000
