data_image0
_chemical_formula_structural       Ni2O5
_chemical_formula_sum              "Ni2 O5"
_cell_length_a       4.67187
_cell_length_b       4.67187
_cell_length_c       4.30084
_cell_angle_alpha    102.572
_cell_angle_beta     102.572
_cell_angle_gamma    117.624

_space_group_name_H-M_alt    "P 1"
_space_group_IT_number       1

loop_
  _space_group_symop_operation_xyz
  'x, y, z'

loop_
  _atom_site_type_symbol
  _atom_site_label
  _atom_site_symmetry_multiplicity
  _atom_site_fract_x
  _atom_site_fract_y
  _atom_site_fract_z
  _atom_site_occupancy
  Ni  Ni1       1.0  0.81900  0.17000  0.99100  1.0000
  Ni  Ni2       1.0  0.17000  0.81900  0.99100  1.0000
  O   O1        1.0  0.94500  0.60500  0.24600  1.0000
  O   O2        1.0  0.60500  0.94500  0.24600  1.0000
  O   O3        1.0  0.37700  0.08160  0.76300  1.0000
  O   O4        1.0  0.08160  0.37700  0.76300  1.0000
  O   O5        1.0  0.75500  0.75500  0.76900  1.0000
