data_image0
_chemical_formula_structural       O5Ru2
_chemical_formula_sum              "O5 Ru2"
_cell_length_a       5.21124
_cell_length_b       5.21124
_cell_length_c       4.81487
_cell_angle_alpha    101.203
_cell_angle_beta     101.203
_cell_angle_gamma    119.172

_space_group_name_H-M_alt    "P 1"
_space_group_IT_number       1

loop_
  _space_group_symop_operation_xyz
  'x, y, z'

loop_
  _atom_site_type_symbol
  _atom_site_label
  _atom_site_symmetry_multiplicity
  _atom_site_fract_x
  _atom_site_fract_y
  _atom_site_fract_z
  _atom_site_occupancy
  O   O1        1.0  0.55100  0.03020  0.24600  1.0000
  O   O2        1.0  0.03020  0.55100  0.24600  1.0000
  O   O3        1.0  0.39500  0.06240  0.74400  1.0000
  O   O4        1.0  0.06240  0.39500  0.74400  1.0000
  O   O5        1.0  0.82900  0.82900  0.86700  1.0000
  Ru  Ru1       1.0  0.78100  0.16200  0.96000  1.0000
  Ru  Ru2       1.0  0.16200  0.78100  0.96000  1.0000
