data_image0
_chemical_formula_structural       Ga12I24
_chemical_formula_sum              "Ga12 I24"
_cell_length_a       7.78572
_cell_length_b       15.3207
_cell_length_c       15.3207
_cell_angle_alpha    117.191
_cell_angle_beta     99.7526
_cell_angle_gamma    99.7526

_space_group_name_H-M_alt    "P 1"
_space_group_IT_number       1

loop_
  _space_group_symop_operation_xyz
  'x, y, z'

loop_
  _atom_site_type_symbol
  _atom_site_label
  _atom_site_symmetry_multiplicity
  _atom_site_fract_x
  _atom_site_fract_y
  _atom_site_fract_z
  _atom_site_occupancy
  Ga  Ga1       1.0  0.89200  0.83600  0.15000  1.0000
  Ga  Ga2       1.0  0.05510  0.31300  0.16400  1.0000
  Ga  Ga3       1.0  0.39400  0.80800  0.19200  1.0000
  Ga  Ga4       1.0  0.58600  0.38400  0.19200  1.0000
  Ga  Ga5       1.0  0.55500  0.16400  0.31300  1.0000
  Ga  Ga6       1.0  0.08640  0.19200  0.38400  1.0000
  Ga  Ga7       1.0  0.20200  0.80800  0.61600  1.0000
  Ga  Ga8       1.0  0.74200  0.85000  0.68700  1.0000
  Ga  Ga9       1.0  0.89400  0.19200  0.80800  1.0000
  Ga  Ga10      1.0  0.70200  0.61600  0.80800  1.0000
  Ga  Ga11      1.0  0.39200  0.15000  0.83600  1.0000
  Ga  Ga12      1.0  0.24200  0.68700  0.85000  1.0000
  I   I1        1.0  0.11600  0.65500  0.06320  1.0000
  I   I2        1.0  0.35500  0.40700  0.06870  1.0000
  I   I3        1.0  0.50400  0.90200  0.09670  1.0000
  I   I4        1.0  0.60200  0.19400  0.09760  1.0000
  I   I5        1.0  0.10200  0.09760  0.19400  1.0000
  I   I6        1.0  0.90200  0.51100  0.25200  1.0000
  I   I7        1.0  0.65000  0.74800  0.25900  1.0000
  I   I8        1.0  0.28600  0.93100  0.33800  1.0000
  I   I9        1.0  0.46100  0.40800  0.34500  1.0000
  I   I10       1.0  0.85500  0.06870  0.40700  1.0000
  I   I11       1.0  0.96100  0.34500  0.40800  1.0000
  I   I12       1.0  0.39100  0.74100  0.48900  1.0000
  I   I13       1.0  0.40200  0.25200  0.51100  1.0000
  I   I14       1.0  0.05300  0.93700  0.59200  1.0000
  I   I15       1.0  0.94800  0.66200  0.59300  1.0000
  I   I16       1.0  0.61600  0.06320  0.65500  1.0000
  I   I17       1.0  0.44800  0.59300  0.66200  1.0000
  I   I18       1.0  0.89100  0.48900  0.74100  1.0000
  I   I19       1.0  0.15000  0.25900  0.74800  1.0000
  I   I20       1.0  0.40800  0.90300  0.80600  1.0000
  I   I21       1.0  0.00433  0.09670  0.90200  1.0000
  I   I22       1.0  0.90800  0.80600  0.90300  1.0000
  I   I23       1.0  0.78600  0.33800  0.93100  1.0000
  I   I24       1.0  0.55300  0.59200  0.93700  1.0000
