data_image0
_chemical_formula_structural       H24O4Si8
_chemical_formula_sum              "H24 O4 Si8"
_cell_length_a       4.50739
_cell_length_b       7.60402
_cell_length_c       12.6185
_cell_angle_alpha    90
_cell_angle_beta     90
_cell_angle_gamma    90

_space_group_name_H-M_alt    "P 1"
_space_group_IT_number       1

loop_
  _space_group_symop_operation_xyz
  'x, y, z'

loop_
  _atom_site_type_symbol
  _atom_site_label
  _atom_site_symmetry_multiplicity
  _atom_site_fract_x
  _atom_site_fract_y
  _atom_site_fract_z
  _atom_site_occupancy
  H   H1        1.0  0.02280  0.34900  0.00894  1.0000
  H   H2        1.0  0.96300  0.98200  0.03700  1.0000
  H   H3        1.0  0.04840  0.66200  0.05290  1.0000
  H   H4        1.0  0.58200  0.81500  0.15800  1.0000
  H   H5        1.0  0.27900  0.12400  0.19300  1.0000
  H   H6        1.0  0.78600  0.24000  0.20700  1.0000
  H   H7        1.0  0.21400  0.74000  0.29300  1.0000
  H   H8        1.0  0.72100  0.62400  0.30700  1.0000
  H   H9        1.0  0.41800  0.31500  0.34200  1.0000
  H   H10       1.0  0.95200  0.16200  0.44700  1.0000
  H   H11       1.0  0.03670  0.48200  0.46300  1.0000
  H   H12       1.0  0.97700  0.84900  0.49100  1.0000
  H   H13       1.0  0.47700  0.65100  0.50900  1.0000
  H   H14       1.0  0.53700  0.01760  0.53700  1.0000
  H   H15       1.0  0.45200  0.33800  0.55300  1.0000
  H   H16       1.0  0.91800  0.18500  0.65800  1.0000
  H   H17       1.0  0.22100  0.87600  0.69300  1.0000
  H   H18       1.0  0.71400  0.76000  0.70700  1.0000
  H   H19       1.0  0.28600  0.26000  0.79300  1.0000
  H   H20       1.0  0.77900  0.37600  0.80700  1.0000
  H   H21       1.0  0.08190  0.68500  0.84200  1.0000
  H   H22       1.0  0.54800  0.83800  0.94700  1.0000
  H   H23       1.0  0.46300  0.51800  0.96300  1.0000
  H   H24       1.0  0.52300  0.15100  0.99100  1.0000
  O   O1        1.0  0.36600  0.45200  0.16000  1.0000
  O   O2        1.0  0.63400  0.95200  0.34000  1.0000
  O   O3        1.0  0.13400  0.54800  0.66000  1.0000
  O   O4        1.0  0.86600  0.04780  0.84000  1.0000
  Si  Si1       1.0  0.22200  0.49600  0.04270  1.0000
  Si  Si2       1.0  0.46700  0.27400  0.22800  1.0000
  Si  Si3       1.0  0.53300  0.77400  0.27200  1.0000
  Si  Si4       1.0  0.77800  0.99600  0.45700  1.0000
  Si  Si5       1.0  0.27800  0.50400  0.54300  1.0000
  Si  Si6       1.0  0.03340  0.72600  0.72800  1.0000
  Si  Si7       1.0  0.96700  0.22600  0.77200  1.0000
  Si  Si8       1.0  0.72200  0.00381  0.95700  1.0000
