data_image0
_chemical_formula_structural       Cu8P28
_chemical_formula_sum              "Cu8 P28"
_cell_length_a       7.27317
_cell_length_b       7.30479
_cell_length_c       14.5547
_cell_angle_alpha    103.898
_cell_angle_beta     104.469
_cell_angle_gamma    60.1431

_space_group_name_H-M_alt    "P 1"
_space_group_IT_number       1

loop_
  _space_group_symop_operation_xyz
  'x, y, z'

loop_
  _atom_site_type_symbol
  _atom_site_label
  _atom_site_symmetry_multiplicity
  _atom_site_fract_x
  _atom_site_fract_y
  _atom_site_fract_z
  _atom_site_occupancy
  Cu  Cu1       1.0  0.84400  0.34600  0.03280  1.0000
  Cu  Cu2       1.0  0.38400  0.43800  0.20600  1.0000
  Cu  Cu3       1.0  0.03410  0.28400  0.35300  1.0000
  Cu  Cu4       1.0  0.71900  0.99000  0.42700  1.0000
  Cu  Cu5       1.0  0.28100  0.00978  0.57300  1.0000
  Cu  Cu6       1.0  0.96600  0.71600  0.64700  1.0000
  Cu  Cu7       1.0  0.61600  0.56200  0.79400  1.0000
  Cu  Cu8       1.0  0.15600  0.65400  0.96700  1.0000
  P   P1        1.0  0.35700  0.83400  0.01920  1.0000
  P   P2        1.0  0.82700  0.83400  0.01920  1.0000
  P   P3        1.0  0.34600  0.35000  0.04330  1.0000
  P   P4        1.0  0.46100  0.93500  0.17100  1.0000
  P   P5        1.0  0.77500  0.93500  0.17100  1.0000
  P   P6        1.0  0.89500  0.41300  0.20300  1.0000
  P   P7        1.0  0.02900  0.63500  0.22300  1.0000
  P   P8        1.0  0.56000  0.63500  0.22300  1.0000
  P   P9        1.0  0.52800  0.29800  0.35500  1.0000
  P   P10       1.0  0.04140  0.77900  0.37700  1.0000
  P   P11       1.0  0.55700  0.77900  0.37700  1.0000
  P   P12       1.0  0.22400  0.95900  0.40700  1.0000
  P   P13       1.0  0.23600  0.45800  0.42100  1.0000
  P   P14       1.0  0.72800  0.45800  0.42100  1.0000
  P   P15       1.0  0.27200  0.54200  0.57900  1.0000
  P   P16       1.0  0.76400  0.54200  0.57900  1.0000
  P   P17       1.0  0.77600  0.04120  0.59300  1.0000
  P   P18       1.0  0.44300  0.22100  0.62300  1.0000
  P   P19       1.0  0.95900  0.22100  0.62300  1.0000
  P   P20       1.0  0.47200  0.70200  0.64500  1.0000
  P   P21       1.0  0.44000  0.36500  0.77700  1.0000
  P   P22       1.0  0.97100  0.36500  0.77700  1.0000
  P   P23       1.0  0.10500  0.58700  0.79700  1.0000
  P   P24       1.0  0.22500  0.06490  0.82900  1.0000
  P   P25       1.0  0.53900  0.06490  0.82900  1.0000
  P   P26       1.0  0.65400  0.65000  0.95700  1.0000
  P   P27       1.0  0.17300  0.16600  0.98100  1.0000
  P   P28       1.0  0.64300  0.16600  0.98100  1.0000
