data_image0
_chemical_formula_structural       As16Ba12Sn8
_chemical_formula_sum              "As16 Ba12 Sn8"
_cell_length_a       8.15729
_cell_length_b       20.0841
_cell_length_c       8.03856
_cell_angle_alpha    90
_cell_angle_beta     112.221
_cell_angle_gamma    90

_space_group_name_H-M_alt    "P 1"
_space_group_IT_number       1

loop_
  _space_group_symop_operation_xyz
  'x, y, z'

loop_
  _atom_site_type_symbol
  _atom_site_label
  _atom_site_symmetry_multiplicity
  _atom_site_fract_x
  _atom_site_fract_y
  _atom_site_fract_z
  _atom_site_occupancy
  As  As1       1.0  0.03410  0.81800  0.21500  1.0000
  As  As2       1.0  0.51300  0.69900  0.21500  1.0000
  As  As3       1.0  0.49900  0.93500  0.24700  1.0000
  As  As4       1.0  0.00016  0.55400  0.24900  1.0000
  As  As5       1.0  0.00000  0.05400  0.25100  1.0000
  As  As6       1.0  0.50100  0.43500  0.25300  1.0000
  As  As7       1.0  0.48700  0.19900  0.28500  1.0000
  As  As8       1.0  0.96600  0.31800  0.28500  1.0000
  As  As9       1.0  0.03410  0.68200  0.71500  1.0000
  As  As10      1.0  0.51300  0.80100  0.71500  1.0000
  As  As11      1.0  0.49900  0.56500  0.74700  1.0000
  As  As12      1.0  0.00016  0.94600  0.74900  1.0000
  As  As13      1.0  0.00000  0.44600  0.75100  1.0000
  As  As14      1.0  0.50100  0.06450  0.75300  1.0000
  As  As15      1.0  0.48700  0.30100  0.78500  1.0000
  As  As16      1.0  0.96600  0.18200  0.78500  1.0000
  Ba  Ba1       1.0  0.26200  0.56100  0.00593  1.0000
  Ba  Ba2       1.0  0.21200  0.31700  0.00848  1.0000
  Ba  Ba3       1.0  0.25800  0.06370  0.01220  1.0000
  Ba  Ba4       1.0  0.74200  0.56400  0.48800  1.0000
  Ba  Ba5       1.0  0.78800  0.81700  0.49200  1.0000
  Ba  Ba6       1.0  0.73800  0.06070  0.49400  1.0000
  Ba  Ba7       1.0  0.26200  0.93900  0.50600  1.0000
  Ba  Ba8       1.0  0.21200  0.18300  0.50800  1.0000
  Ba  Ba9       1.0  0.25800  0.43600  0.51200  1.0000
  Ba  Ba10      1.0  0.74200  0.93600  0.98800  1.0000
  Ba  Ba11      1.0  0.78800  0.68300  0.99200  1.0000
  Ba  Ba12      1.0  0.73800  0.43900  0.99400  1.0000
  Sn  Sn1       1.0  0.21000  0.87700  0.02460  1.0000
  Sn  Sn2       1.0  0.68400  0.24200  0.10000  1.0000
  Sn  Sn3       1.0  0.31600  0.74200  0.40000  1.0000
  Sn  Sn4       1.0  0.79000  0.37700  0.47500  1.0000
  Sn  Sn5       1.0  0.21000  0.62300  0.52500  1.0000
  Sn  Sn6       1.0  0.68400  0.25800  0.60000  1.0000
  Sn  Sn7       1.0  0.31600  0.75800  0.90000  1.0000
  Sn  Sn8       1.0  0.79000  0.12300  0.97500  1.0000
