data_image0
_chemical_formula_structural       B12Br12S12
_chemical_formula_sum              "B12 Br12 S12"
_cell_length_a       14.5782
_cell_length_b       4.53109
_cell_length_c       18.7107
_cell_angle_alpha    90
_cell_angle_beta     115.323
_cell_angle_gamma    90

_space_group_name_H-M_alt    "P 1"
_space_group_IT_number       1

loop_
  _space_group_symop_operation_xyz
  'x, y, z'

loop_
  _atom_site_type_symbol
  _atom_site_label
  _atom_site_symmetry_multiplicity
  _atom_site_fract_x
  _atom_site_fract_y
  _atom_site_fract_z
  _atom_site_occupancy
  B   B1        1.0  0.75300  0.84800  0.09970  1.0000
  B   B2        1.0  0.61200  0.65900  0.16500  1.0000
  B   B3        1.0  0.17400  0.26200  0.22900  1.0000
  B   B4        1.0  0.82600  0.76200  0.27100  1.0000
  B   B5        1.0  0.38800  0.15900  0.33500  1.0000
  B   B6        1.0  0.24700  0.34800  0.40000  1.0000
  B   B7        1.0  0.75300  0.65200  0.60000  1.0000
  B   B8        1.0  0.61200  0.84100  0.66500  1.0000
  B   B9        1.0  0.17400  0.23800  0.72900  1.0000
  B   B10       1.0  0.82600  0.73800  0.77100  1.0000
  B   B11       1.0  0.38800  0.34100  0.83500  1.0000
  B   B12       1.0  0.24700  0.15200  0.90000  1.0000
  Br  Br1       1.0  0.77900  0.94600  0.00967  1.0000
  Br  Br2       1.0  0.06610  0.27900  0.12400  1.0000
  Br  Br3       1.0  0.47600  0.55000  0.14900  1.0000
  Br  Br4       1.0  0.52400  0.04960  0.35100  1.0000
  Br  Br5       1.0  0.93400  0.77900  0.37600  1.0000
  Br  Br6       1.0  0.22100  0.44600  0.49000  1.0000
  Br  Br7       1.0  0.77900  0.55400  0.51000  1.0000
  Br  Br8       1.0  0.06610  0.22100  0.62400  1.0000
  Br  Br9       1.0  0.47600  0.95000  0.64900  1.0000
  Br  Br10      1.0  0.52400  0.45000  0.85100  1.0000
  Br  Br11      1.0  0.93400  0.72100  0.87600  1.0000
  Br  Br12      1.0  0.22100  0.05440  0.99000  1.0000
  S   S1        1.0  0.62200  0.75900  0.07510  1.0000
  S   S2        1.0  0.86300  0.86800  0.19400  1.0000
  S   S3        1.0  0.29500  0.14000  0.23400  1.0000
  S   S4        1.0  0.70500  0.64000  0.26600  1.0000
  S   S5        1.0  0.13700  0.36800  0.30600  1.0000
  S   S6        1.0  0.37800  0.25900  0.42500  1.0000
  S   S7        1.0  0.62200  0.74100  0.57500  1.0000
  S   S8        1.0  0.86300  0.63200  0.69400  1.0000
  S   S9        1.0  0.29500  0.36000  0.73400  1.0000
  S   S10       1.0  0.70500  0.86000  0.76600  1.0000
  S   S11       1.0  0.13700  0.13200  0.80600  1.0000
  S   S12       1.0  0.37800  0.24100  0.92500  1.0000
