data_image0
_chemical_formula_structural       As2Li8Mn2O11
_chemical_formula_sum              "As2 Li8 Mn2 O11"
_cell_length_a       10.0529
_cell_length_b       4.95144
_cell_length_c       5.01706
_cell_angle_alpha    99.6917
_cell_angle_beta     99.4211
_cell_angle_gamma    119.764

_space_group_name_H-M_alt    "P 1"
_space_group_IT_number       1

loop_
  _space_group_symop_operation_xyz
  'x, y, z'

loop_
  _atom_site_type_symbol
  _atom_site_label
  _atom_site_symmetry_multiplicity
  _atom_site_fract_x
  _atom_site_fract_y
  _atom_site_fract_z
  _atom_site_occupancy
  As  As1       1.0  0.09240  0.86300  0.03220  1.0000
  As  As2       1.0  0.58100  0.83200  0.99100  1.0000
  Li  Li1       1.0  0.49600  0.98900  0.49400  1.0000
  Li  Li2       1.0  0.66900  0.66200  0.49600  1.0000
  Li  Li3       1.0  0.83100  0.34500  0.50200  1.0000
  Li  Li4       1.0  0.99100  0.96100  0.50300  1.0000
  Li  Li5       1.0  0.34700  0.34000  0.50500  1.0000
  Li  Li6       1.0  0.17700  0.69700  0.52200  1.0000
  Li  Li7       1.0  0.25600  0.51400  0.97800  1.0000
  Li  Li8       1.0  0.74700  0.49600  0.98800  1.0000
  Mn  Mn1       1.0  0.91300  0.16300  0.99500  1.0000
  Mn  Mn2       1.0  0.41700  0.16800  0.99600  1.0000
  O   O1        1.0  0.46800  0.58700  0.21700  1.0000
  O   O2        1.0  0.60800  0.20700  0.21800  1.0000
  O   O3        1.0  0.77900  0.92200  0.22300  1.0000
  O   O4        1.0  0.28900  0.91800  0.23600  1.0000
  O   O5        1.0  0.96900  0.56400  0.24500  1.0000
  O   O6        1.0  0.88100  0.77000  0.75900  1.0000
  O   O7        1.0  0.38800  0.76000  0.76300  1.0000
  O   O8        1.0  0.69000  0.05400  0.76400  1.0000
  O   O9        1.0  0.21200  0.07850  0.77200  1.0000
  O   O10       1.0  0.53800  0.43800  0.77500  1.0000
  O   O11       1.0  0.04270  0.45900  0.79600  1.0000
