data_image0
_chemical_formula_structural       Bi8Mo4O24
_chemical_formula_sum              "Bi8 Mo4 O24"
_cell_length_a       5.28714
_cell_length_b       16.1213
_cell_length_c       5.29228
_cell_angle_alpha    90
_cell_angle_beta     90
_cell_angle_gamma    90

_space_group_name_H-M_alt    "P 1"
_space_group_IT_number       1

loop_
  _space_group_symop_operation_xyz
  'x, y, z'

loop_
  _atom_site_type_symbol
  _atom_site_label
  _atom_site_symmetry_multiplicity
  _atom_site_fract_x
  _atom_site_fract_y
  _atom_site_fract_z
  _atom_site_occupancy
  Bi  Bi1       1.0  0.00351  0.17000  0.48900  1.0000
  Bi  Bi2       1.0  0.49600  0.83000  0.98900  1.0000
  Bi  Bi3       1.0  0.50400  0.33000  0.51100  1.0000
  Bi  Bi4       1.0  0.99600  0.67000  0.01140  1.0000
  Bi  Bi5       1.0  0.99600  0.83000  0.51100  1.0000
  Bi  Bi6       1.0  0.50400  0.17000  0.01140  1.0000
  Bi  Bi7       1.0  0.49600  0.67000  0.48900  1.0000
  Bi  Bi8       1.0  0.00351  0.33000  0.98900  1.0000
  Mo  Mo1       1.0  0.00000  0.00000  0.00000  1.0000
  Mo  Mo2       1.0  0.50000  0.00000  0.50000  1.0000
  Mo  Mo3       1.0  0.50000  0.50000  0.00000  1.0000
  Mo  Mo4       1.0  0.00000  0.50000  0.50000  1.0000
  O   O1        1.0  0.00468  0.11700  0.03280  1.0000
  O   O2        1.0  0.49500  0.88300  0.53300  1.0000
  O   O3        1.0  0.50500  0.38300  0.96700  1.0000
  O   O4        1.0  0.99500  0.61700  0.46700  1.0000
  O   O5        1.0  0.99500  0.88300  0.96700  1.0000
  O   O6        1.0  0.50500  0.11700  0.46700  1.0000
  O   O7        1.0  0.49500  0.61700  0.03280  1.0000
  O   O8        1.0  0.00468  0.38300  0.53300  1.0000
  O   O9        1.0  0.18200  0.49200  0.18200  1.0000
  O   O10       1.0  0.31800  0.50800  0.68200  1.0000
  O   O11       1.0  0.68200  0.00790  0.81800  1.0000
  O   O12       1.0  0.81800  0.99200  0.31800  1.0000
  O   O13       1.0  0.81800  0.50800  0.81800  1.0000
  O   O14       1.0  0.68200  0.49200  0.31800  1.0000
  O   O15       1.0  0.31800  0.99200  0.18200  1.0000
  O   O16       1.0  0.18200  0.00790  0.68200  1.0000
  O   O17       1.0  0.25300  0.25200  0.25000  1.0000
  O   O18       1.0  0.24700  0.74800  0.75000  1.0000
  O   O19       1.0  0.75300  0.24800  0.75000  1.0000
  O   O20       1.0  0.74700  0.75200  0.25000  1.0000
  O   O21       1.0  0.74700  0.74800  0.75000  1.0000
  O   O22       1.0  0.75300  0.25200  0.25000  1.0000
  O   O23       1.0  0.24700  0.75200  0.25000  1.0000
  O   O24       1.0  0.25300  0.24800  0.75000  1.0000
