data_image0
_chemical_formula_structural       Ni20Si12U4
_chemical_formula_sum              "Ni20 Si12 U4"
_cell_length_a       18.6707
_cell_length_b       3.81067
_cell_length_c       6.57829
_cell_angle_alpha    90
_cell_angle_beta     90
_cell_angle_gamma    90

_space_group_name_H-M_alt    "P 1"
_space_group_IT_number       1

loop_
  _space_group_symop_operation_xyz
  'x, y, z'

loop_
  _atom_site_type_symbol
  _atom_site_label
  _atom_site_symmetry_multiplicity
  _atom_site_fract_x
  _atom_site_fract_y
  _atom_site_fract_z
  _atom_site_occupancy
  Ni  Ni1       1.0  0.29100  0.25000  0.07910  1.0000
  Ni  Ni2       1.0  0.48300  0.75000  0.11600  1.0000
  Ni  Ni3       1.0  0.99400  0.25000  0.13300  1.0000
  Ni  Ni4       1.0  0.61300  0.25000  0.14700  1.0000
  Ni  Ni5       1.0  0.19900  0.75000  0.18500  1.0000
  Ni  Ni6       1.0  0.69900  0.75000  0.31500  1.0000
  Ni  Ni7       1.0  0.11300  0.25000  0.35300  1.0000
  Ni  Ni8       1.0  0.49400  0.25000  0.36700  1.0000
  Ni  Ni9       1.0  0.98300  0.75000  0.38400  1.0000
  Ni  Ni10      1.0  0.79100  0.25000  0.42100  1.0000
  Ni  Ni11      1.0  0.20900  0.75000  0.57900  1.0000
  Ni  Ni12      1.0  0.01670  0.25000  0.61600  1.0000
  Ni  Ni13      1.0  0.50600  0.75000  0.63300  1.0000
  Ni  Ni14      1.0  0.88700  0.75000  0.64700  1.0000
  Ni  Ni15      1.0  0.30100  0.25000  0.68500  1.0000
  Ni  Ni16      1.0  0.80100  0.25000  0.81500  1.0000
  Ni  Ni17      1.0  0.38700  0.75000  0.85300  1.0000
  Ni  Ni18      1.0  0.00565  0.75000  0.86700  1.0000
  Ni  Ni19      1.0  0.51700  0.25000  0.88400  1.0000
  Ni  Ni20      1.0  0.70900  0.75000  0.92100  1.0000
  Si  Si1       1.0  0.41300  0.25000  0.08180  1.0000
  Si  Si2       1.0  0.73400  0.25000  0.11500  1.0000
  Si  Si3       1.0  0.07380  0.75000  0.15400  1.0000
  Si  Si4       1.0  0.57400  0.75000  0.34600  1.0000
  Si  Si5       1.0  0.23400  0.25000  0.38500  1.0000
  Si  Si6       1.0  0.91300  0.25000  0.41800  1.0000
  Si  Si7       1.0  0.08740  0.75000  0.58200  1.0000
  Si  Si8       1.0  0.76600  0.75000  0.61500  1.0000
  Si  Si9       1.0  0.42600  0.25000  0.65400  1.0000
  Si  Si10      1.0  0.92600  0.25000  0.84600  1.0000
  Si  Si11      1.0  0.26600  0.75000  0.88500  1.0000
  Si  Si12      1.0  0.58700  0.75000  0.91800  1.0000
  U   U1        1.0  0.85700  0.75000  0.12300  1.0000
  U   U2        1.0  0.35700  0.75000  0.37700  1.0000
  U   U3        1.0  0.64300  0.25000  0.62300  1.0000
  U   U4        1.0  0.14300  0.25000  0.87700  1.0000
