data_image0
_chemical_formula_structural       Ga2Li8Mn2O11
_chemical_formula_sum              "Ga2 Li8 Mn2 O11"
_cell_length_a       9.93885
_cell_length_b       5.00455
_cell_length_c       5.01861
_cell_angle_alpha    100.005
_cell_angle_beta     99.7351
_cell_angle_gamma    119.342

_space_group_name_H-M_alt    "P 1"
_space_group_IT_number       1

loop_
  _space_group_symop_operation_xyz
  'x, y, z'

loop_
  _atom_site_type_symbol
  _atom_site_label
  _atom_site_symmetry_multiplicity
  _atom_site_fract_x
  _atom_site_fract_y
  _atom_site_fract_z
  _atom_site_occupancy
  Ga  Ga1       1.0  0.57900  0.83100  0.01130  1.0000
  Ga  Ga2       1.0  0.08200  0.79200  0.97000  1.0000
  Li  Li1       1.0  0.74700  0.50200  0.00489  1.0000
  Li  Li2       1.0  0.82700  0.32700  0.49000  1.0000
  Li  Li3       1.0  0.49300  0.00330  0.49800  1.0000
  Li  Li4       1.0  0.66100  0.64200  0.50200  1.0000
  Li  Li5       1.0  0.18800  0.72700  0.50500  1.0000
  Li  Li6       1.0  0.98500  0.97400  0.51300  1.0000
  Li  Li7       1.0  0.35500  0.36000  0.51400  1.0000
  Li  Li8       1.0  0.26000  0.51100  0.96600  1.0000
  Mn  Mn1       1.0  0.41700  0.17500  0.00382  1.0000
  Mn  Mn2       1.0  0.90100  0.15600  0.98300  1.0000
  O   O1        1.0  0.80100  0.94300  0.23100  1.0000
  O   O2        1.0  0.28700  0.94300  0.23100  1.0000
  O   O3        1.0  0.97100  0.56200  0.23300  1.0000
  O   O4        1.0  0.45700  0.56900  0.23700  1.0000
  O   O5        1.0  0.61000  0.22900  0.23700  1.0000
  O   O6        1.0  0.38200  0.78300  0.76000  1.0000
  O   O7        1.0  0.71200  0.06890  0.76300  1.0000
  O   O8        1.0  0.03390  0.38600  0.76700  1.0000
  O   O9        1.0  0.21200  0.08330  0.77300  1.0000
  O   O10       1.0  0.53600  0.42000  0.78200  1.0000
  O   O11       1.0  0.89200  0.78100  0.78900  1.0000
