data_image0
_chemical_formula_structural       Cl20K8Mo4O4
_chemical_formula_sum              "Cl20 K8 Mo4 O4"
_cell_length_a       13.5823
_cell_length_b       9.87381
_cell_length_c       6.99556
_cell_angle_alpha    90
_cell_angle_beta     90
_cell_angle_gamma    90

_space_group_name_H-M_alt    "P 1"
_space_group_IT_number       1

loop_
  _space_group_symop_operation_xyz
  'x, y, z'

loop_
  _atom_site_type_symbol
  _atom_site_label
  _atom_site_symmetry_multiplicity
  _atom_site_fract_x
  _atom_site_fract_y
  _atom_site_fract_z
  _atom_site_occupancy
  Cl  Cl1       1.0  0.50200  0.25000  0.02500  1.0000
  Cl  Cl2       1.0  0.77800  0.75000  0.06490  1.0000
  Cl  Cl3       1.0  0.74800  0.25000  0.08880  1.0000
  Cl  Cl4       1.0  0.10900  0.00699  0.20000  1.0000
  Cl  Cl5       1.0  0.10900  0.49300  0.20000  1.0000
  Cl  Cl6       1.0  0.60900  0.00699  0.30000  1.0000
  Cl  Cl7       1.0  0.60900  0.49300  0.30000  1.0000
  Cl  Cl8       1.0  0.24800  0.25000  0.41100  1.0000
  Cl  Cl9       1.0  0.27800  0.75000  0.43500  1.0000
  Cl  Cl10      1.0  0.00196  0.25000  0.47500  1.0000
  Cl  Cl11      1.0  0.99800  0.75000  0.52500  1.0000
  Cl  Cl12      1.0  0.72200  0.25000  0.56500  1.0000
  Cl  Cl13      1.0  0.75200  0.75000  0.58900  1.0000
  Cl  Cl14      1.0  0.39100  0.50700  0.70000  1.0000
  Cl  Cl15      1.0  0.39100  0.99300  0.70000  1.0000
  Cl  Cl16      1.0  0.89100  0.50700  0.80000  1.0000
  Cl  Cl17      1.0  0.89100  0.99300  0.80000  1.0000
  Cl  Cl18      1.0  0.25200  0.75000  0.91100  1.0000
  Cl  Cl19      1.0  0.22200  0.25000  0.93500  1.0000
  Cl  Cl20      1.0  0.49800  0.75000  0.97500  1.0000
  K   K1        1.0  0.35700  0.00154  0.17800  1.0000
  K   K2        1.0  0.35700  0.49800  0.17800  1.0000
  K   K3        1.0  0.85700  0.00154  0.32200  1.0000
  K   K4        1.0  0.85700  0.49800  0.32200  1.0000
  K   K5        1.0  0.14300  0.50200  0.67800  1.0000
  K   K6        1.0  0.14300  0.99800  0.67800  1.0000
  K   K7        1.0  0.64300  0.50200  0.82200  1.0000
  K   K8        1.0  0.64300  0.99800  0.82200  1.0000
  Mo  Mo1       1.0  0.09650  0.25000  0.18100  1.0000
  Mo  Mo2       1.0  0.59700  0.25000  0.31900  1.0000
  Mo  Mo3       1.0  0.40300  0.75000  0.68100  1.0000
  Mo  Mo4       1.0  0.90300  0.75000  0.81900  1.0000
  O   O1        1.0  0.99800  0.25000  0.03150  1.0000
  O   O2        1.0  0.49800  0.25000  0.46800  1.0000
  O   O3        1.0  0.50200  0.75000  0.53200  1.0000
  O   O4        1.0  0.00170  0.75000  0.96800  1.0000
