data_image0
_chemical_formula_structural       F8O16Rb4S4Sb4
_chemical_formula_sum              "F8 O16 Rb4 S4 Sb4"
_cell_length_a       9.38595
_cell_length_b       11.4626
_cell_length_c       5.0958
_cell_angle_alpha    90
_cell_angle_beta     90
_cell_angle_gamma    90

_space_group_name_H-M_alt    "P 1"
_space_group_IT_number       1

loop_
  _space_group_symop_operation_xyz
  'x, y, z'

loop_
  _atom_site_type_symbol
  _atom_site_label
  _atom_site_symmetry_multiplicity
  _atom_site_fract_x
  _atom_site_fract_y
  _atom_site_fract_z
  _atom_site_occupancy
  F   F1        1.0  0.32000  0.65600  0.09060  1.0000
  F   F2        1.0  0.82000  0.84400  0.09060  1.0000
  F   F3        1.0  0.37700  0.06360  0.27900  1.0000
  F   F4        1.0  0.87700  0.43600  0.27900  1.0000
  F   F5        1.0  0.18000  0.15600  0.59100  1.0000
  F   F6        1.0  0.68000  0.34400  0.59100  1.0000
  F   F7        1.0  0.12300  0.56400  0.77900  1.0000
  F   F8        1.0  0.62300  0.93600  0.77900  1.0000
  O   O1        1.0  0.72300  0.24100  0.09650  1.0000
  O   O2        1.0  0.22300  0.25900  0.09650  1.0000
  O   O3        1.0  0.69700  0.05760  0.33400  1.0000
  O   O4        1.0  0.19700  0.44200  0.33400  1.0000
  O   O5        1.0  0.91900  0.16700  0.37100  1.0000
  O   O6        1.0  0.41900  0.33300  0.37100  1.0000
  O   O7        1.0  0.63900  0.57900  0.45700  1.0000
  O   O8        1.0  0.13900  0.92100  0.45700  1.0000
  O   O9        1.0  0.77700  0.74100  0.59700  1.0000
  O   O10       1.0  0.27700  0.75900  0.59700  1.0000
  O   O11       1.0  0.80300  0.55800  0.83400  1.0000
  O   O12       1.0  0.30300  0.94200  0.83400  1.0000
  O   O13       1.0  0.58100  0.66700  0.87100  1.0000
  O   O14       1.0  0.08080  0.83300  0.87100  1.0000
  O   O15       1.0  0.86100  0.07870  0.95700  1.0000
  O   O16       1.0  0.36100  0.42100  0.95700  1.0000
  Rb  Rb1       1.0  0.01510  0.65700  0.25200  1.0000
  Rb  Rb2       1.0  0.51500  0.84300  0.25200  1.0000
  Rb  Rb3       1.0  0.48500  0.15700  0.75200  1.0000
  Rb  Rb4       1.0  0.98500  0.34300  0.75200  1.0000
  S   S1        1.0  0.79800  0.13400  0.20200  1.0000
  S   S2        1.0  0.29800  0.36600  0.20200  1.0000
  S   S3        1.0  0.70200  0.63400  0.70200  1.0000
  S   S4        1.0  0.20200  0.86600  0.70200  1.0000
  Sb  Sb1       1.0  0.16700  0.08310  0.24100  1.0000
  Sb  Sb2       1.0  0.66700  0.41700  0.24100  1.0000
  Sb  Sb3       1.0  0.33300  0.58300  0.74100  1.0000
  Sb  Sb4       1.0  0.83300  0.91700  0.74100  1.0000
