data_image0
_chemical_formula_structural       Al8Cr4U
_chemical_formula_sum              "Al8 Cr4 U1"
_cell_length_a       4.98483
_cell_length_b       6.75029
_cell_length_c       6.75029
_cell_angle_alpha    97.8356
_cell_angle_beta     68.3318
_cell_angle_gamma    111.668

_space_group_name_H-M_alt    "P 1"
_space_group_IT_number       1

loop_
  _space_group_symop_operation_xyz
  'x, y, z'

loop_
  _atom_site_type_symbol
  _atom_site_label
  _atom_site_symmetry_multiplicity
  _atom_site_fract_x
  _atom_site_fract_y
  _atom_site_fract_z
  _atom_site_occupancy
  Al  Al1       1.0  0.50000  0.21600  0.21600  1.0000
  Al  Al2       1.0  0.28400  0.78400  0.21600  1.0000
  Al  Al3       1.0  0.00000  0.34200  0.34200  1.0000
  Al  Al4       1.0  0.65800  0.65800  0.34200  1.0000
  Al  Al5       1.0  0.00000  0.65800  0.65800  1.0000
  Al  Al6       1.0  0.34200  0.34200  0.65800  1.0000
  Al  Al7       1.0  0.71600  0.21600  0.78400  1.0000
  Al  Al8       1.0  0.50000  0.78400  0.78400  1.0000
  Cr  Cr1       1.0  0.00000  0.50000  0.00000  1.0000
  Cr  Cr2       1.0  0.50000  0.50000  0.00000  1.0000
  Cr  Cr3       1.0  0.00000  0.00000  0.50000  1.0000
  Cr  Cr4       1.0  0.50000  0.00000  0.50000  1.0000
  U   U1        1.0  0.00000  0.00000  0.00000  1.0000
