data_image0
_chemical_formula_structural       AgBe12
_chemical_formula_sum              "Ag1 Be12"
_cell_length_a       4.25008
_cell_length_b       5.61644
_cell_length_c       5.61644
_cell_angle_alpha    98.2306
_cell_angle_beta     67.7678
_cell_angle_gamma    112.232

_space_group_name_H-M_alt    "P 1"
_space_group_IT_number       1

loop_
  _space_group_symop_operation_xyz
  'x, y, z'

loop_
  _atom_site_type_symbol
  _atom_site_label
  _atom_site_symmetry_multiplicity
  _atom_site_fract_x
  _atom_site_fract_y
  _atom_site_fract_z
  _atom_site_occupancy
  Ag  Ag1       1.0  0.00000  0.00000  0.00000  1.0000
  Be  Be1       1.0  0.00000  0.50000  0.00000  1.0000
  Be  Be2       1.0  0.50000  0.50000  0.00000  1.0000
  Be  Be3       1.0  0.26600  0.76600  0.23400  1.0000
  Be  Be4       1.0  0.50000  0.23400  0.23400  1.0000
  Be  Be5       1.0  0.00000  0.35400  0.35400  1.0000
  Be  Be6       1.0  0.64600  0.64600  0.35400  1.0000
  Be  Be7       1.0  0.00000  0.00000  0.50000  1.0000
  Be  Be8       1.0  0.50000  0.00000  0.50000  1.0000
  Be  Be9       1.0  0.35400  0.35400  0.64600  1.0000
  Be  Be10      1.0  0.00000  0.64600  0.64600  1.0000
  Be  Be11      1.0  0.73400  0.23400  0.76600  1.0000
  Be  Be12      1.0  0.50000  0.76600  0.76600  1.0000
