data_image0
_chemical_formula_structural       F24O8Pt4
_chemical_formula_sum              "F24 O8 Pt4"
_cell_length_a       8.02196
_cell_length_b       8.02196
_cell_length_c       8.02196
_cell_angle_alpha    109.471
_cell_angle_beta     109.471
_cell_angle_gamma    109.471

_space_group_name_H-M_alt    "P 1"
_space_group_IT_number       1

loop_
  _space_group_symop_operation_xyz
  'x, y, z'

loop_
  _atom_site_type_symbol
  _atom_site_label
  _atom_site_symmetry_multiplicity
  _atom_site_fract_x
  _atom_site_fract_y
  _atom_site_fract_z
  _atom_site_occupancy
  F   F1        1.0  0.33100  0.60700  0.05330  1.0000
  F   F2        1.0  0.10700  0.27600  0.05340  1.0000
  F   F3        1.0  0.27600  0.05340  0.10700  1.0000
  F   F4        1.0  0.72200  0.77600  0.16900  1.0000
  F   F5        1.0  0.55300  0.44700  0.22200  1.0000
  F   F6        1.0  0.83100  0.27800  0.22400  1.0000
  F   F7        1.0  0.05340  0.10700  0.27600  1.0000
  F   F8        1.0  0.22400  0.83100  0.27800  1.0000
  F   F9        1.0  0.60700  0.05330  0.33100  1.0000
  F   F10       1.0  0.94700  0.66900  0.39300  1.0000
  F   F11       1.0  0.22200  0.55300  0.44700  1.0000
  F   F12       1.0  0.55300  0.77800  0.44700  1.0000
  F   F13       1.0  0.44700  0.22200  0.55300  1.0000
  F   F14       1.0  0.77800  0.44700  0.55300  1.0000
  F   F15       1.0  0.05330  0.33100  0.60700  1.0000
  F   F16       1.0  0.39300  0.94700  0.66900  1.0000
  F   F17       1.0  0.77600  0.16900  0.72200  1.0000
  F   F18       1.0  0.94700  0.89300  0.72400  1.0000
  F   F19       1.0  0.16900  0.72200  0.77600  1.0000
  F   F20       1.0  0.44700  0.55300  0.77800  1.0000
  F   F21       1.0  0.27800  0.22400  0.83100  1.0000
  F   F22       1.0  0.72400  0.94700  0.89300  1.0000
  F   F23       1.0  0.89300  0.72400  0.94700  1.0000
  F   F24       1.0  0.66900  0.39300  0.94700  1.0000
  O   O1        1.0  0.50000  0.07260  0.00000  1.0000
  O   O2        1.0  0.50000  0.92700  0.00000  1.0000
  O   O3        1.0  0.00000  0.50000  0.07260  1.0000
  O   O4        1.0  0.42700  0.42700  0.42700  1.0000
  O   O5        1.0  0.92700  0.00000  0.50000  1.0000
  O   O6        1.0  0.07260  0.00000  0.50000  1.0000
  O   O7        1.0  0.57300  0.57300  0.57300  1.0000
  O   O8        1.0  0.00000  0.50000  0.92700  1.0000
  Pt  Pt1       1.0  0.00000  0.00000  0.00000  1.0000
  Pt  Pt2       1.0  0.50000  0.50000  0.00000  1.0000
  Pt  Pt3       1.0  0.50000  0.00000  0.50000  1.0000
  Pt  Pt4       1.0  0.00000  0.50000  0.50000  1.0000
