data_image0
_chemical_formula_structural       Cu4N8O24
_chemical_formula_sum              "Cu4 N8 O24"
_cell_length_a       10.8102
_cell_length_b       4.87606
_cell_length_c       7.88262
_cell_angle_alpha    90
_cell_angle_beta     90
_cell_angle_gamma    90

_space_group_name_H-M_alt    "P 1"
_space_group_IT_number       1

loop_
  _space_group_symop_operation_xyz
  'x, y, z'

loop_
  _atom_site_type_symbol
  _atom_site_label
  _atom_site_symmetry_multiplicity
  _atom_site_fract_x
  _atom_site_fract_y
  _atom_site_fract_z
  _atom_site_occupancy
  Cu  Cu1       1.0  0.25100  0.75100  0.24800  1.0000
  Cu  Cu2       1.0  0.74900  0.75100  0.24800  1.0000
  Cu  Cu3       1.0  0.24900  0.24900  0.74800  1.0000
  Cu  Cu4       1.0  0.75100  0.24900  0.74800  1.0000
  N   N1        1.0  0.00000  0.75700  0.19500  1.0000
  N   N2        1.0  0.50000  0.76700  0.31500  1.0000
  N   N3        1.0  0.19500  0.22100  0.41100  1.0000
  N   N4        1.0  0.80500  0.22100  0.41100  1.0000
  N   N5        1.0  0.50000  0.24300  0.69500  1.0000
  N   N6        1.0  0.00000  0.23300  0.81500  1.0000
  N   N7        1.0  0.30500  0.77900  0.91100  1.0000
  N   N8        1.0  0.69500  0.77900  0.91100  1.0000
  O   O1        1.0  0.32000  0.60800  0.03150  1.0000
  O   O2        1.0  0.68000  0.60800  0.03150  1.0000
  O   O3        1.0  0.09930  0.83400  0.12000  1.0000
  O   O4        1.0  0.90100  0.83400  0.12000  1.0000
  O   O5        1.0  0.50000  0.96900  0.22300  1.0000
  O   O6        1.0  0.20700  0.30000  0.26200  1.0000
  O   O7        1.0  0.79300  0.30000  0.26200  1.0000
  O   O8        1.0  0.00000  0.62600  0.32800  1.0000
  O   O9        1.0  0.40100  0.65000  0.36900  1.0000
  O   O10       1.0  0.59900  0.65000  0.36900  1.0000
  O   O11       1.0  0.19700  0.96500  0.44800  1.0000
  O   O12       1.0  0.80300  0.96500  0.44800  1.0000
  O   O13       1.0  0.18000  0.39200  0.53200  1.0000
  O   O14       1.0  0.82000  0.39200  0.53200  1.0000
  O   O15       1.0  0.40100  0.16600  0.62000  1.0000
  O   O16       1.0  0.59900  0.16600  0.62000  1.0000
  O   O17       1.0  0.00000  0.03120  0.72300  1.0000
  O   O18       1.0  0.29300  0.70000  0.76200  1.0000
  O   O19       1.0  0.70700  0.70000  0.76200  1.0000
  O   O20       1.0  0.50000  0.37400  0.82800  1.0000
  O   O21       1.0  0.09900  0.35000  0.86900  1.0000
  O   O22       1.0  0.90100  0.35000  0.86900  1.0000
  O   O23       1.0  0.30300  0.03470  0.94800  1.0000
  O   O24       1.0  0.69700  0.03470  0.94800  1.0000
