data_image0
_chemical_formula_structural       Ba2CuO8P2
_chemical_formula_sum              "Ba2 Cu1 O8 P2"
_cell_length_a       5.12631
_cell_length_b       6.58744
_cell_length_c       6.84606
_cell_angle_alpha    104.216
_cell_angle_beta     90
_cell_angle_gamma    112.898

_space_group_name_H-M_alt    "P 1"
_space_group_IT_number       1

loop_
  _space_group_symop_operation_xyz
  'x, y, z'

loop_
  _atom_site_type_symbol
  _atom_site_label
  _atom_site_symmetry_multiplicity
  _atom_site_fract_x
  _atom_site_fract_y
  _atom_site_fract_z
  _atom_site_occupancy
  Ba  Ba1       1.0  0.17400  0.34800  0.21500  1.0000
  Ba  Ba2       1.0  0.82600  0.65200  0.78500  1.0000
  Cu  Cu1       1.0  0.50000  0.00000  0.50000  1.0000
  O   O1        1.0  0.74300  0.48700  0.15400  1.0000
  O   O2        1.0  0.95400  0.90800  0.17400  1.0000
  O   O3        1.0  0.12100  0.75500  0.44000  1.0000
  O   O4        1.0  0.63300  0.75500  0.44000  1.0000
  O   O5        1.0  0.36700  0.24500  0.56000  1.0000
  O   O6        1.0  0.87900  0.24500  0.56000  1.0000
  O   O7        1.0  0.04610  0.09210  0.82600  1.0000
  O   O8        1.0  0.25700  0.51300  0.84600  1.0000
  P   P1        1.0  0.86600  0.73300  0.29700  1.0000
  P   P2        1.0  0.13400  0.26700  0.70300  1.0000
