data_image0
_chemical_formula_structural       N8Ni4O24
_chemical_formula_sum              "N8 Ni4 O24"
_cell_length_a       7.26196
_cell_length_b       7.26196
_cell_length_c       7.26196
_cell_angle_alpha    90
_cell_angle_beta     90
_cell_angle_gamma    90

_space_group_name_H-M_alt    "P 1"
_space_group_IT_number       1

loop_
  _space_group_symop_operation_xyz
  'x, y, z'

loop_
  _atom_site_type_symbol
  _atom_site_label
  _atom_site_symmetry_multiplicity
  _atom_site_fract_x
  _atom_site_fract_y
  _atom_site_fract_z
  _atom_site_occupancy
  N   N1        1.0  0.82200  0.32200  0.17800  1.0000
  N   N2        1.0  0.67800  0.82200  0.17800  1.0000
  N   N3        1.0  0.32200  0.32200  0.32200  1.0000
  N   N4        1.0  0.17800  0.82200  0.32200  1.0000
  N   N5        1.0  0.82200  0.17800  0.67800  1.0000
  N   N6        1.0  0.67800  0.67800  0.67800  1.0000
  N   N7        1.0  0.32200  0.17800  0.82200  1.0000
  N   N8        1.0  0.17800  0.67800  0.82200  1.0000
  Ni  Ni1       1.0  0.00000  0.00000  0.00000  1.0000
  Ni  Ni2       1.0  0.50000  0.50000  0.00000  1.0000
  Ni  Ni3       1.0  0.50000  0.00000  0.50000  1.0000
  Ni  Ni4       1.0  0.00000  0.50000  0.50000  1.0000
  O   O1        1.0  0.70300  0.31200  0.05210  1.0000
  O   O2        1.0  0.79700  0.81200  0.05210  1.0000
  O   O3        1.0  0.94800  0.20300  0.18800  1.0000
  O   O4        1.0  0.55200  0.70300  0.18800  1.0000
  O   O5        1.0  0.31200  0.44800  0.20300  1.0000
  O   O6        1.0  0.18800  0.94800  0.20300  1.0000
  O   O7        1.0  0.81200  0.44800  0.29700  1.0000
  O   O8        1.0  0.68800  0.94800  0.29700  1.0000
  O   O9        1.0  0.44800  0.20300  0.31200  1.0000
  O   O10       1.0  0.05210  0.70300  0.31200  1.0000
  O   O11       1.0  0.20300  0.31200  0.44800  1.0000
  O   O12       1.0  0.29700  0.81200  0.44800  1.0000
  O   O13       1.0  0.70300  0.18800  0.55200  1.0000
  O   O14       1.0  0.79700  0.68800  0.55200  1.0000
  O   O15       1.0  0.94800  0.29700  0.68800  1.0000
  O   O16       1.0  0.55200  0.79700  0.68800  1.0000
  O   O17       1.0  0.31200  0.05210  0.70300  1.0000
  O   O18       1.0  0.18800  0.55200  0.70300  1.0000
  O   O19       1.0  0.81200  0.05210  0.79700  1.0000
  O   O20       1.0  0.68800  0.55200  0.79700  1.0000
  O   O21       1.0  0.44800  0.29700  0.81200  1.0000
  O   O22       1.0  0.05210  0.79700  0.81200  1.0000
  O   O23       1.0  0.20300  0.18800  0.94800  1.0000
  O   O24       1.0  0.29700  0.68800  0.94800  1.0000
