data_image0
_chemical_formula_structural       Ca6Na4O20Si6
_chemical_formula_sum              "Ca6 Na4 O20 Si6"
_cell_length_a       5.13115
_cell_length_b       8.48256
_cell_length_c       11.3663
_cell_angle_alpha    92.6434
_cell_angle_beta     90
_cell_angle_gamma    107.605

_space_group_name_H-M_alt    "P 1"
_space_group_IT_number       1

loop_
  _space_group_symop_operation_xyz
  'x, y, z'

loop_
  _atom_site_type_symbol
  _atom_site_label
  _atom_site_symmetry_multiplicity
  _atom_site_fract_x
  _atom_site_fract_y
  _atom_site_fract_z
  _atom_site_occupancy
  Ca  Ca1       1.0  0.50000  0.50000  0.00000  1.0000
  Ca  Ca2       1.0  0.91300  0.30400  0.20800  1.0000
  Ca  Ca3       1.0  0.61000  0.69600  0.29200  1.0000
  Ca  Ca4       1.0  0.00000  0.50000  0.50000  1.0000
  Ca  Ca5       1.0  0.39000  0.30400  0.70800  1.0000
  Ca  Ca6       1.0  0.08670  0.69600  0.79200  1.0000
  Na  Na1       1.0  0.72400  0.91500  0.03440  1.0000
  Na  Na2       1.0  0.80900  0.08540  0.46600  1.0000
  Na  Na3       1.0  0.19100  0.91500  0.53400  1.0000
  Na  Na4       1.0  0.27600  0.08540  0.96600  1.0000
  O   O1        1.0  0.70100  0.28100  0.02730  1.0000
  O   O2        1.0  0.84200  0.68900  0.11000  1.0000
  O   O3        1.0  0.08040  0.08760  0.15000  1.0000
  O   O4        1.0  0.23700  0.54300  0.16200  1.0000
  O   O5        1.0  0.35100  0.86400  0.18600  1.0000
  O   O6        1.0  0.48700  0.13600  0.31400  1.0000
  O   O7        1.0  0.69400  0.45700  0.33800  1.0000
  O   O8        1.0  0.99300  0.91200  0.35000  1.0000
  O   O9        1.0  0.15300  0.31100  0.39000  1.0000
  O   O10       1.0  0.42100  0.71900  0.47300  1.0000
  O   O11       1.0  0.57900  0.28100  0.52700  1.0000
  O   O12       1.0  0.84700  0.68900  0.61000  1.0000
  O   O13       1.0  0.00723  0.08760  0.65000  1.0000
  O   O14       1.0  0.30600  0.54300  0.66200  1.0000
  O   O15       1.0  0.51300  0.86400  0.68600  1.0000
  O   O16       1.0  0.64900  0.13600  0.81400  1.0000
  O   O17       1.0  0.76300  0.45700  0.83800  1.0000
  O   O18       1.0  0.92000  0.91200  0.85000  1.0000
  O   O19       1.0  0.15800  0.31100  0.89000  1.0000
  O   O20       1.0  0.29900  0.71900  0.97300  1.0000
  Si  Si1       1.0  0.16000  0.69700  0.10300  1.0000
  Si  Si2       1.0  0.20500  0.00000  0.25000  1.0000
  Si  Si3       1.0  0.46300  0.30300  0.39700  1.0000
  Si  Si4       1.0  0.53700  0.69700  0.60300  1.0000
  Si  Si5       1.0  0.79500  0.00000  0.75000  1.0000
  Si  Si6       1.0  0.84000  0.30300  0.89700  1.0000
