data_image0
_chemical_formula_structural       Li14O16Rb2Si4
_chemical_formula_sum              "Li14 O16 Rb2 Si4"
_cell_length_a       6.33414
_cell_length_b       7.72704
_cell_length_c       8.39407
_cell_angle_alpha    90.515
_cell_angle_beta     112.166
_cell_angle_gamma    90

_space_group_name_H-M_alt    "P 1"
_space_group_IT_number       1

loop_
  _space_group_symop_operation_xyz
  'x, y, z'

loop_
  _atom_site_type_symbol
  _atom_site_label
  _atom_site_symmetry_multiplicity
  _atom_site_fract_x
  _atom_site_fract_y
  _atom_site_fract_z
  _atom_site_occupancy
  Li  Li1       1.0  0.00000  0.00000  0.00000  1.0000
  Li  Li2       1.0  0.50000  0.00000  0.00000  1.0000
  Li  Li3       1.0  0.06760  0.29300  0.13500  1.0000
  Li  Li4       1.0  0.32700  0.63300  0.14500  1.0000
  Li  Li5       1.0  0.81800  0.63300  0.14500  1.0000
  Li  Li6       1.0  0.64500  0.86400  0.29000  1.0000
  Li  Li7       1.0  0.44000  0.13900  0.36800  1.0000
  Li  Li8       1.0  0.92800  0.13900  0.36800  1.0000
  Li  Li9       1.0  0.07170  0.86100  0.63200  1.0000
  Li  Li10      1.0  0.56000  0.86100  0.63200  1.0000
  Li  Li11      1.0  0.35500  0.13600  0.71000  1.0000
  Li  Li12      1.0  0.18200  0.36700  0.85500  1.0000
  Li  Li13      1.0  0.67300  0.36700  0.85500  1.0000
  Li  Li14      1.0  0.93200  0.70700  0.86500  1.0000
  O   O1        1.0  0.53300  0.74700  0.06610  1.0000
  O   O2        1.0  0.05130  0.76300  0.10300  1.0000
  O   O3        1.0  0.38300  0.39300  0.20300  1.0000
  O   O4        1.0  0.82000  0.39300  0.20300  1.0000
  O   O5        1.0  0.61600  0.10100  0.23200  1.0000
  O   O6        1.0  0.12900  0.06950  0.25800  1.0000
  O   O7        1.0  0.41500  0.80000  0.39300  1.0000
  O   O8        1.0  0.97700  0.80000  0.39300  1.0000
  O   O9        1.0  0.02250  0.20000  0.60700  1.0000
  O   O10       1.0  0.58500  0.20000  0.60700  1.0000
  O   O11       1.0  0.87100  0.93000  0.74200  1.0000
  O   O12       1.0  0.38400  0.89900  0.76800  1.0000
  O   O13       1.0  0.18000  0.60700  0.79700  1.0000
  O   O14       1.0  0.61700  0.60700  0.79700  1.0000
  O   O15       1.0  0.94900  0.23700  0.89700  1.0000
  O   O16       1.0  0.46700  0.25300  0.93400  1.0000
  Rb  Rb1       1.0  0.24500  0.47000  0.48900  1.0000
  Rb  Rb2       1.0  0.75500  0.53000  0.51100  1.0000
  Si  Si1       1.0  0.57100  0.29400  0.14200  1.0000
  Si  Si2       1.0  0.14700  0.85900  0.29400  1.0000
  Si  Si3       1.0  0.85300  0.14100  0.70600  1.0000
  Si  Si4       1.0  0.42900  0.70600  0.85800  1.0000
