data_image0
_chemical_formula_structural       Hf2O5
_chemical_formula_sum              "Hf2 O5"
_cell_length_a       6.15788
_cell_length_b       6.15788
_cell_length_c       3.36073
_cell_angle_alpha    101.034
_cell_angle_beta     101.034
_cell_angle_gamma    124.606

_space_group_name_H-M_alt    "P 1"
_space_group_IT_number       1

loop_
  _space_group_symop_operation_xyz
  'x, y, z'

loop_
  _atom_site_type_symbol
  _atom_site_label
  _atom_site_symmetry_multiplicity
  _atom_site_fract_x
  _atom_site_fract_y
  _atom_site_fract_z
  _atom_site_occupancy
  Hf  Hf1       1.0  0.85300  0.20700  0.00068  1.0000
  Hf  Hf2       1.0  0.20700  0.85300  0.00068  1.0000
  O   O1        1.0  0.94100  0.60300  0.30600  1.0000
  O   O2        1.0  0.60300  0.94100  0.30600  1.0000
  O   O3        1.0  0.45700  0.11800  0.68700  1.0000
  O   O4        1.0  0.11800  0.45700  0.68700  1.0000
  O   O5        1.0  0.04470  0.04470  0.99100  1.0000
