data_image0
_chemical_formula_structural       As4H4O20Zn8
_chemical_formula_sum              "As4 H4 O20 Zn8"
_cell_length_a       8.24302
_cell_length_b       8.53744
_cell_length_c       6.07142
_cell_angle_alpha    90
_cell_angle_beta     90
_cell_angle_gamma    90

_space_group_name_H-M_alt    "P 1"
_space_group_IT_number       1

loop_
  _space_group_symop_operation_xyz
  'x, y, z'

loop_
  _atom_site_type_symbol
  _atom_site_label
  _atom_site_symmetry_multiplicity
  _atom_site_fract_x
  _atom_site_fract_y
  _atom_site_fract_z
  _atom_site_occupancy
  As  As1       1.0  0.74700  0.25200  0.00000  1.0000
  As  As2       1.0  0.25300  0.74800  0.00000  1.0000
  As  As3       1.0  0.24700  0.24800  0.50000  1.0000
  As  As4       1.0  0.75300  0.75200  0.50000  1.0000
  H   H1        1.0  0.22000  0.08340  0.00000  1.0000
  H   H2        1.0  0.78000  0.91700  0.00000  1.0000
  H   H3        1.0  0.72000  0.41700  0.50000  1.0000
  H   H4        1.0  0.28000  0.58300  0.50000  1.0000
  O   O1        1.0  0.11200  0.12900  0.00000  1.0000
  O   O2        1.0  0.56300  0.34700  0.00000  1.0000
  O   O3        1.0  0.89400  0.39400  0.00000  1.0000
  O   O4        1.0  0.10600  0.60600  0.00000  1.0000
  O   O5        1.0  0.43700  0.65300  0.00000  1.0000
  O   O6        1.0  0.88800  0.87100  0.00000  1.0000
  O   O7        1.0  0.77000  0.13000  0.22400  1.0000
  O   O8        1.0  0.23000  0.87000  0.22400  1.0000
  O   O9        1.0  0.27000  0.37000  0.27600  1.0000
  O   O10       1.0  0.73000  0.63000  0.27600  1.0000
  O   O11       1.0  0.39400  0.10600  0.50000  1.0000
  O   O12       1.0  0.06310  0.15300  0.50000  1.0000
  O   O13       1.0  0.61200  0.37100  0.50000  1.0000
  O   O14       1.0  0.38800  0.62900  0.50000  1.0000
  O   O15       1.0  0.93700  0.84700  0.50000  1.0000
  O   O16       1.0  0.60600  0.89400  0.50000  1.0000
  O   O17       1.0  0.27000  0.37000  0.72400  1.0000
  O   O18       1.0  0.73000  0.63000  0.72400  1.0000
  O   O19       1.0  0.77000  0.13000  0.77600  1.0000
  O   O20       1.0  0.23000  0.87000  0.77600  1.0000
  Zn  Zn1       1.0  0.13500  0.36400  0.00000  1.0000
  Zn  Zn2       1.0  0.86500  0.63600  0.00000  1.0000
  Zn  Zn3       1.0  0.00000  0.00000  0.24700  1.0000
  Zn  Zn4       1.0  0.50000  0.50000  0.25300  1.0000
  Zn  Zn5       1.0  0.63500  0.13600  0.50000  1.0000
  Zn  Zn6       1.0  0.36500  0.86400  0.50000  1.0000
  Zn  Zn7       1.0  0.50000  0.50000  0.74700  1.0000
  Zn  Zn8       1.0  0.00000  0.00000  0.75300  1.0000
