data_image0
_chemical_formula_structural       Cr2O5
_chemical_formula_sum              "Cr2 O5"
_cell_length_a       4.88701
_cell_length_b       4.88701
_cell_length_c       4.70509
_cell_angle_alpha    101.476
_cell_angle_beta     101.476
_cell_angle_gamma    116.218

_space_group_name_H-M_alt    "P 1"
_space_group_IT_number       1

loop_
  _space_group_symop_operation_xyz
  'x, y, z'

loop_
  _atom_site_type_symbol
  _atom_site_label
  _atom_site_symmetry_multiplicity
  _atom_site_fract_x
  _atom_site_fract_y
  _atom_site_fract_z
  _atom_site_occupancy
  Cr  Cr1       1.0  0.79100  0.18700  0.97000  1.0000
  Cr  Cr2       1.0  0.18700  0.79100  0.97000  1.0000
  O   O1        1.0  0.97700  0.56500  0.22800  1.0000
  O   O2        1.0  0.56500  0.97700  0.22800  1.0000
  O   O3        1.0  0.40500  0.05070  0.74100  1.0000
  O   O4        1.0  0.05070  0.40500  0.74100  1.0000
  O   O5        1.0  0.87300  0.87300  0.86200  1.0000
