data_image0
_chemical_formula_structural       Ag4Cs4F24Fe4
_chemical_formula_sum              "Ag4 Cs4 F24 Fe4"
_cell_length_a       7.14046
_cell_length_b       7.38678
_cell_length_c       10.3345
_cell_angle_alpha    90
_cell_angle_beta     90
_cell_angle_gamma    90

_space_group_name_H-M_alt    "P 1"
_space_group_IT_number       1

loop_
  _space_group_symop_operation_xyz
  'x, y, z'

loop_
  _atom_site_type_symbol
  _atom_site_label
  _atom_site_symmetry_multiplicity
  _atom_site_fract_x
  _atom_site_fract_y
  _atom_site_fract_z
  _atom_site_occupancy
  Ag  Ag1       1.0  0.68300  0.75000  0.24900  1.0000
  Ag  Ag2       1.0  0.18300  0.75000  0.25100  1.0000
  Ag  Ag3       1.0  0.81700  0.25000  0.74900  1.0000
  Ag  Ag4       1.0  0.31700  0.25000  0.75100  1.0000
  Cs  Cs1       1.0  0.47800  0.25000  0.12300  1.0000
  Cs  Cs2       1.0  0.97800  0.25000  0.37700  1.0000
  Cs  Cs3       1.0  0.02230  0.75000  0.62300  1.0000
  Cs  Cs4       1.0  0.52200  0.75000  0.87700  1.0000
  F   F1        1.0  0.09310  0.75000  0.00354  1.0000
  F   F2        1.0  0.77800  0.55600  0.08570  1.0000
  F   F3        1.0  0.77800  0.94400  0.08570  1.0000
  F   F4        1.0  0.43200  0.75000  0.14400  1.0000
  F   F5        1.0  0.12200  0.03870  0.16100  1.0000
  F   F6        1.0  0.12200  0.46100  0.16100  1.0000
  F   F7        1.0  0.62200  0.03870  0.33900  1.0000
  F   F8        1.0  0.62200  0.46100  0.33900  1.0000
  F   F9        1.0  0.93200  0.75000  0.35600  1.0000
  F   F10       1.0  0.27800  0.55600  0.41400  1.0000
  F   F11       1.0  0.27800  0.94400  0.41400  1.0000
  F   F12       1.0  0.59300  0.75000  0.49600  1.0000
  F   F13       1.0  0.40700  0.25000  0.50400  1.0000
  F   F14       1.0  0.72200  0.05630  0.58600  1.0000
  F   F15       1.0  0.72200  0.44400  0.58600  1.0000
  F   F16       1.0  0.06790  0.25000  0.64400  1.0000
  F   F17       1.0  0.37800  0.53900  0.66100  1.0000
  F   F18       1.0  0.37800  0.96100  0.66100  1.0000
  F   F19       1.0  0.87800  0.53900  0.83900  1.0000
  F   F20       1.0  0.87800  0.96100  0.83900  1.0000
  F   F21       1.0  0.56800  0.25000  0.85600  1.0000
  F   F22       1.0  0.22200  0.05630  0.91400  1.0000
  F   F23       1.0  0.22200  0.44400  0.91400  1.0000
  F   F24       1.0  0.90700  0.25000  0.99600  1.0000
  Fe  Fe1       1.0  0.00000  0.00000  0.00000  1.0000
  Fe  Fe2       1.0  0.00000  0.50000  0.00000  1.0000
  Fe  Fe3       1.0  0.50000  0.00000  0.50000  1.0000
  Fe  Fe4       1.0  0.50000  0.50000  0.50000  1.0000
