data_image0
_chemical_formula_structural       Cr2Li8Mn2O11
_chemical_formula_sum              "Cr2 Li8 Mn2 O11"
_cell_length_a       9.93058
_cell_length_b       5.00361
_cell_length_c       5.01233
_cell_angle_alpha    100.128
_cell_angle_beta     99.8048
_cell_angle_gamma    119.735

_space_group_name_H-M_alt    "P 1"
_space_group_IT_number       1

loop_
  _space_group_symop_operation_xyz
  'x, y, z'

loop_
  _atom_site_type_symbol
  _atom_site_label
  _atom_site_symmetry_multiplicity
  _atom_site_fract_x
  _atom_site_fract_y
  _atom_site_fract_z
  _atom_site_occupancy
  Cr  Cr1       1.0  0.07150  0.82600  0.98800  1.0000
  Cr  Cr2       1.0  0.58700  0.83000  0.99800  1.0000
  Li  Li1       1.0  0.75100  0.50400  0.00299  1.0000
  Li  Li2       1.0  0.99900  0.99500  0.49800  1.0000
  Li  Li3       1.0  0.66700  0.65800  0.49900  1.0000
  Li  Li4       1.0  0.82900  0.34300  0.49900  1.0000
  Li  Li5       1.0  0.33400  0.38400  0.50600  1.0000
  Li  Li6       1.0  0.52500  0.00997  0.51900  1.0000
  Li  Li7       1.0  0.15200  0.62500  0.52600  1.0000
  Li  Li8       1.0  0.24600  0.45700  0.97800  1.0000
  Mn  Mn1       1.0  0.91900  0.17600  0.00428  1.0000
  Mn  Mn2       1.0  0.42000  0.17100  0.98700  1.0000
  O   O1        1.0  0.45900  0.56600  0.22500  1.0000
  O   O2        1.0  0.78700  0.93400  0.22700  1.0000
  O   O3        1.0  0.60600  0.21400  0.23200  1.0000
  O   O4        1.0  0.11500  0.23500  0.23800  1.0000
  O   O5        1.0  0.96700  0.57700  0.23900  1.0000
  O   O6        1.0  0.54000  0.44500  0.75100  1.0000
  O   O7        1.0  0.21200  0.05730  0.76400  1.0000
  O   O8        1.0  0.88200  0.78000  0.76600  1.0000
  O   O9        1.0  0.38700  0.77800  0.76600  1.0000
  O   O10       1.0  0.71800  0.08540  0.77600  1.0000
  O   O11       1.0  0.03970  0.41900  0.78300  1.0000
