data_image0
_chemical_formula_structural       K2O24P6Th4
_chemical_formula_sum              "K2 O24 P6 Th4"
_cell_length_a       6.87089
_cell_length_b       8.10934
_cell_length_c       9.43597
_cell_angle_alpha    101.031
_cell_angle_beta     111.351
_cell_angle_gamma    90

_space_group_name_H-M_alt    "P 1"
_space_group_IT_number       1

loop_
  _space_group_symop_operation_xyz
  'x, y, z'

loop_
  _atom_site_type_symbol
  _atom_site_label
  _atom_site_symmetry_multiplicity
  _atom_site_fract_x
  _atom_site_fract_y
  _atom_site_fract_z
  _atom_site_occupancy
  K   K1        1.0  0.40100  0.25000  0.00000  1.0000
  K   K2        1.0  0.59900  0.75000  0.00000  1.0000
  O   O1        1.0  0.79900  0.41200  0.04810  1.0000
  O   O2        1.0  0.24900  0.91200  0.04810  1.0000
  O   O3        1.0  0.10100  0.25000  0.14500  1.0000
  O   O4        1.0  0.04350  0.75000  0.14500  1.0000
  O   O5        1.0  0.54000  0.16100  0.27900  1.0000
  O   O6        1.0  0.73900  0.66100  0.27900  1.0000
  O   O7        1.0  0.40100  0.56600  0.30100  1.0000
  O   O8        1.0  0.90000  0.06630  0.30100  1.0000
  O   O9        1.0  0.54900  0.87300  0.40300  1.0000
  O   O10       1.0  0.85300  0.37300  0.40300  1.0000
  O   O11       1.0  0.17900  0.83200  0.45200  1.0000
  O   O12       1.0  0.27300  0.33200  0.45200  1.0000
  O   O13       1.0  0.82100  0.16800  0.54800  1.0000
  O   O14       1.0  0.72700  0.66800  0.54800  1.0000
  O   O15       1.0  0.45100  0.12700  0.59700  1.0000
  O   O16       1.0  0.14700  0.62700  0.59700  1.0000
  O   O17       1.0  0.59900  0.43400  0.69900  1.0000
  O   O18       1.0  0.10000  0.93400  0.69900  1.0000
  O   O19       1.0  0.46000  0.83900  0.72100  1.0000
  O   O20       1.0  0.26100  0.33900  0.72100  1.0000
  O   O21       1.0  0.89900  0.75000  0.85500  1.0000
  O   O22       1.0  0.95700  0.25000  0.85500  1.0000
  O   O23       1.0  0.20100  0.58800  0.95200  1.0000
  O   O24       1.0  0.75100  0.08810  0.95200  1.0000
  P   P1        1.0  0.89700  0.25000  0.00000  1.0000
  P   P2        1.0  0.10300  0.75000  0.00000  1.0000
  P   P3        1.0  0.60100  0.68300  0.37600  1.0000
  P   P4        1.0  0.77500  0.18300  0.37600  1.0000
  P   P5        1.0  0.22500  0.81700  0.62400  1.0000
  P   P6        1.0  0.39900  0.31700  0.62400  1.0000
  Th  Th1       1.0  0.24500  0.03510  0.30700  1.0000
  Th  Th2       1.0  0.06220  0.53500  0.30700  1.0000
  Th  Th3       1.0  0.75500  0.96500  0.69300  1.0000
  Th  Th4       1.0  0.93800  0.46500  0.69300  1.0000
