data_image0
_chemical_formula_structural       Mo4O24Sb8
_chemical_formula_sum              "Mo4 O24 Sb8"
_cell_length_a       7.4539
_cell_length_b       7.48951
_cell_length_c       10.0937
_cell_angle_alpha    70.0982
_cell_angle_beta     70.5263
_cell_angle_gamma    83.3928

_space_group_name_H-M_alt    "P 1"
_space_group_IT_number       1

loop_
  _space_group_symop_operation_xyz
  'x, y, z'

loop_
  _atom_site_type_symbol
  _atom_site_label
  _atom_site_symmetry_multiplicity
  _atom_site_fract_x
  _atom_site_fract_y
  _atom_site_fract_z
  _atom_site_occupancy
  Mo  Mo1       1.0  0.77400  0.72400  0.48500  1.0000
  Mo  Mo2       1.0  0.27100  0.78100  0.49800  1.0000
  Mo  Mo3       1.0  0.72900  0.21900  0.50200  1.0000
  Mo  Mo4       1.0  0.22600  0.27600  0.51500  1.0000
  O   O1        1.0  0.38800  0.69000  0.05630  1.0000
  O   O2        1.0  0.69900  0.88700  0.05770  1.0000
  O   O3        1.0  0.19900  0.37400  0.06010  1.0000
  O   O4        1.0  0.87300  0.20900  0.06260  1.0000
  O   O5        1.0  0.27900  0.40800  0.30900  1.0000
  O   O6        1.0  0.92400  0.27700  0.31100  1.0000
  O   O7        1.0  0.40700  0.76300  0.31100  1.0000
  O   O8        1.0  0.76500  0.92500  0.31200  1.0000
  O   O9        1.0  0.73500  0.53200  0.43100  1.0000
  O   O10       1.0  0.53100  0.22900  0.43600  1.0000
  O   O11       1.0  0.23000  0.02970  0.43700  1.0000
  O   O12       1.0  0.02730  0.72900  0.43700  1.0000
  O   O13       1.0  0.97300  0.27100  0.56300  1.0000
  O   O14       1.0  0.77000  0.97000  0.56300  1.0000
  O   O15       1.0  0.46900  0.77100  0.56400  1.0000
  O   O16       1.0  0.26500  0.46800  0.56900  1.0000
  O   O17       1.0  0.23500  0.07470  0.68800  1.0000
  O   O18       1.0  0.59300  0.23700  0.68900  1.0000
  O   O19       1.0  0.07630  0.72300  0.68900  1.0000
  O   O20       1.0  0.72100  0.59200  0.69100  1.0000
  O   O21       1.0  0.12700  0.79100  0.93700  1.0000
  O   O22       1.0  0.80100  0.62600  0.94000  1.0000
  O   O23       1.0  0.30100  0.11300  0.94200  1.0000
  O   O24       1.0  0.61200  0.31000  0.94400  1.0000
  Sb  Sb1       1.0  0.61000  0.08360  0.16200  1.0000
  Sb  Sb2       1.0  0.58400  0.61900  0.16400  1.0000
  Sb  Sb3       1.0  0.12200  0.56400  0.17100  1.0000
  Sb  Sb4       1.0  0.06330  0.11500  0.17300  1.0000
  Sb  Sb5       1.0  0.93700  0.88500  0.82700  1.0000
  Sb  Sb6       1.0  0.87800  0.43600  0.82900  1.0000
  Sb  Sb7       1.0  0.41600  0.38100  0.83600  1.0000
  Sb  Sb8       1.0  0.39000  0.91600  0.83800  1.0000
