data_image0
_chemical_formula_structural       Li8Mn2O11Zr2
_chemical_formula_sum              "Li8 Mn2 O11 Zr2"
_cell_length_a       10.5234
_cell_length_b       5.2108
_cell_length_c       5.14053
_cell_angle_alpha    100.45
_cell_angle_beta     99.4557
_cell_angle_gamma    120.123

_space_group_name_H-M_alt    "P 1"
_space_group_IT_number       1

loop_
  _space_group_symop_operation_xyz
  'x, y, z'

loop_
  _atom_site_type_symbol
  _atom_site_label
  _atom_site_symmetry_multiplicity
  _atom_site_fract_x
  _atom_site_fract_y
  _atom_site_fract_z
  _atom_site_occupancy
  Li  Li1       1.0  0.71400  0.69100  0.47800  1.0000
  Li  Li2       1.0  0.83800  0.33400  0.49600  1.0000
  Li  Li3       1.0  0.99500  0.02580  0.50600  1.0000
  Li  Li4       1.0  0.50200  0.07380  0.50700  1.0000
  Li  Li5       1.0  0.17900  0.64600  0.51100  1.0000
  Li  Li6       1.0  0.31100  0.30300  0.54200  1.0000
  Li  Li7       1.0  0.23200  0.48600  0.98300  1.0000
  Li  Li8       1.0  0.75200  0.52100  0.99100  1.0000
  Mn  Mn1       1.0  0.41100  0.14400  0.00104  1.0000
  Mn  Mn2       1.0  0.92300  0.17200  0.00697  1.0000
  O   O1        1.0  0.79200  0.93100  0.21900  1.0000
  O   O2        1.0  0.60600  0.23900  0.23000  1.0000
  O   O3        1.0  0.95200  0.55100  0.23300  1.0000
  O   O4        1.0  0.30200  0.93900  0.24800  1.0000
  O   O5        1.0  0.12900  0.24600  0.26900  1.0000
  O   O6        1.0  0.68900  0.04720  0.68800  1.0000
  O   O7        1.0  0.88600  0.78300  0.76500  1.0000
  O   O8        1.0  0.37300  0.72900  0.76500  1.0000
  O   O9        1.0  0.03150  0.40200  0.77400  1.0000
  O   O10       1.0  0.22400  0.08100  0.78900  1.0000
  O   O11       1.0  0.52500  0.40400  0.79300  1.0000
  Zr  Zr1       1.0  0.08440  0.83900  0.01940  1.0000
  Zr  Zr2       1.0  0.59200  0.86000  0.95200  1.0000
