data_image0
_chemical_formula_structural       O5Pt2
_chemical_formula_sum              "O5 Pt2"
_cell_length_a       5.48635
_cell_length_b       4.97924
_cell_length_c       4.61545
_cell_angle_alpha    97.686
_cell_angle_beta     102.025
_cell_angle_gamma    123.747

_space_group_name_H-M_alt    "P 1"
_space_group_IT_number       1

loop_
  _space_group_symop_operation_xyz
  'x, y, z'

loop_
  _atom_site_type_symbol
  _atom_site_label
  _atom_site_symmetry_multiplicity
  _atom_site_fract_x
  _atom_site_fract_y
  _atom_site_fract_z
  _atom_site_occupancy
  O   O1        1.0  0.57900  0.98400  0.25600  1.0000
  O   O2        1.0  0.17900  0.18500  0.26200  1.0000
  O   O3        1.0  0.05500  0.41800  0.74400  1.0000
  O   O4        1.0  0.43500  0.06190  0.74800  1.0000
  O   O5        1.0  0.78600  0.76500  0.75100  1.0000
  Pt  Pt1       1.0  0.83000  0.15600  0.99500  1.0000
  Pt  Pt2       1.0  0.17100  0.84300  0.99800  1.0000
