data_image0
_chemical_formula_structural       Ge2O5
_chemical_formula_sum              "Ge2 O5"
_cell_length_a       4.97759
_cell_length_b       4.97759
_cell_length_c       4.80912
_cell_angle_alpha    107.052
_cell_angle_beta     107.052
_cell_angle_gamma    117.404

_space_group_name_H-M_alt    "P 1"
_space_group_IT_number       1

loop_
  _space_group_symop_operation_xyz
  'x, y, z'

loop_
  _atom_site_type_symbol
  _atom_site_label
  _atom_site_symmetry_multiplicity
  _atom_site_fract_x
  _atom_site_fract_y
  _atom_site_fract_z
  _atom_site_occupancy
  Ge  Ge1       1.0  0.77400  0.14600  0.96100  1.0000
  Ge  Ge2       1.0  0.14600  0.77400  0.96100  1.0000
  O   O1        1.0  0.58700  0.19800  0.24200  1.0000
  O   O2        1.0  0.19800  0.58700  0.24200  1.0000
  O   O3        1.0  0.91200  0.29800  0.68200  1.0000
  O   O4        1.0  0.29800  0.91200  0.68200  1.0000
  O   O5        1.0  0.81800  0.81800  0.96700  1.0000
