data_image0
_chemical_formula_structural       CK3O8V
_chemical_formula_sum              "C1 K3 O8 V1"
_cell_length_a       5.52041
_cell_length_b       6.35821
_cell_length_c       6.35821
_cell_angle_alpha    91.5829
_cell_angle_beta     112.32
_cell_angle_gamma    112.32

_space_group_name_H-M_alt    "P 1"
_space_group_IT_number       1

loop_
  _space_group_symop_operation_xyz
  'x, y, z'

loop_
  _atom_site_type_symbol
  _atom_site_label
  _atom_site_symmetry_multiplicity
  _atom_site_fract_x
  _atom_site_fract_y
  _atom_site_fract_z
  _atom_site_occupancy
  C   C1        1.0  0.64700  0.65700  0.65700  1.0000
  K   K1        1.0  0.36000  0.64800  0.08460  1.0000
  K   K2        1.0  0.91200  0.40400  0.40400  1.0000
  K   K3        1.0  0.36000  0.08460  0.64800  1.0000
  O   O1        1.0  0.35600  0.10900  0.10900  1.0000
  O   O2        1.0  0.94000  0.76500  0.19100  1.0000
  O   O3        1.0  0.90300  0.96900  0.25600  1.0000
  O   O4        1.0  0.49500  0.48700  0.48700  1.0000
  O   O5        1.0  0.93400  0.74800  0.74800  1.0000
  O   O6        1.0  0.54200  0.75700  0.75700  1.0000
  O   O7        1.0  0.94000  0.19100  0.76500  1.0000
  O   O8        1.0  0.90300  0.25600  0.96900  1.0000
  V   V1        1.0  0.99800  0.99900  0.99900  1.0000
