data_image0
_chemical_formula_structural       Cd6Na4O20Si6
_chemical_formula_sum              "Cd6 Na4 O20 Si6"
_cell_length_a       5.10417
_cell_length_b       8.57068
_cell_length_c       10.9333
_cell_angle_alpha    93.0852
_cell_angle_beta     90
_cell_angle_gamma    107.324

_space_group_name_H-M_alt    "P 1"
_space_group_IT_number       1

loop_
  _space_group_symop_operation_xyz
  'x, y, z'

loop_
  _atom_site_type_symbol
  _atom_site_label
  _atom_site_symmetry_multiplicity
  _atom_site_fract_x
  _atom_site_fract_y
  _atom_site_fract_z
  _atom_site_occupancy
  Cd  Cd1       1.0  0.00000  0.50000  0.00000  1.0000
  Cd  Cd2       1.0  0.37300  0.31100  0.20800  1.0000
  Cd  Cd3       1.0  0.06130  0.68900  0.29200  1.0000
  Cd  Cd4       1.0  0.50000  0.50000  0.50000  1.0000
  Cd  Cd5       1.0  0.93900  0.31100  0.70800  1.0000
  Cd  Cd6       1.0  0.62700  0.68900  0.79200  1.0000
  Na  Na1       1.0  0.19800  0.91400  0.03290  1.0000
  Na  Na2       1.0  0.28400  0.08610  0.46700  1.0000
  Na  Na3       1.0  0.71600  0.91400  0.53300  1.0000
  Na  Na4       1.0  0.80200  0.08610  0.96700  1.0000
  O   O1        1.0  0.59100  0.29000  0.03560  1.0000
  O   O2        1.0  0.85200  0.69100  0.10200  1.0000
  O   O3        1.0  0.02540  0.09250  0.15000  1.0000
  O   O4        1.0  0.31300  0.55500  0.17000  1.0000
  O   O5        1.0  0.53600  0.87600  0.17400  1.0000
  O   O6        1.0  0.66000  0.12400  0.32600  1.0000
  O   O7        1.0  0.75700  0.44500  0.33000  1.0000
  O   O8        1.0  0.93300  0.90800  0.35000  1.0000
  O   O9        1.0  0.16100  0.30900  0.39800  1.0000
  O   O10       1.0  0.30100  0.71000  0.46400  1.0000
  O   O11       1.0  0.69900  0.29000  0.53600  1.0000
  O   O12       1.0  0.83900  0.69100  0.60200  1.0000
  O   O13       1.0  0.06700  0.09250  0.65000  1.0000
  O   O14       1.0  0.24300  0.55500  0.67000  1.0000
  O   O15       1.0  0.34000  0.87600  0.67400  1.0000
  O   O16       1.0  0.46400  0.12400  0.82600  1.0000
  O   O17       1.0  0.68700  0.44500  0.83000  1.0000
  O   O18       1.0  0.97500  0.90800  0.85000  1.0000
  O   O19       1.0  0.14800  0.30900  0.89800  1.0000
  O   O20       1.0  0.40900  0.71000  0.96400  1.0000
  Si  Si1       1.0  0.53900  0.70000  0.09930  1.0000
  Si  Si2       1.0  0.80900  0.00000  0.25000  1.0000
  Si  Si3       1.0  0.83900  0.30000  0.40100  1.0000
  Si  Si4       1.0  0.16100  0.70000  0.59900  1.0000
  Si  Si5       1.0  0.19100  0.00000  0.75000  1.0000
  Si  Si6       1.0  0.46100  0.30000  0.90100  1.0000
