data_image0
_chemical_formula_structural       Co2Li8Mn2O11
_chemical_formula_sum              "Co2 Li8 Mn2 O11"
_cell_length_a       9.87521
_cell_length_b       4.97064
_cell_length_c       5.01915
_cell_angle_alpha    100.169
_cell_angle_beta     99.7427
_cell_angle_gamma    119.113

_space_group_name_H-M_alt    "P 1"
_space_group_IT_number       1

loop_
  _space_group_symop_operation_xyz
  'x, y, z'

loop_
  _atom_site_type_symbol
  _atom_site_label
  _atom_site_symmetry_multiplicity
  _atom_site_fract_x
  _atom_site_fract_y
  _atom_site_fract_z
  _atom_site_occupancy
  Co  Co1       1.0  0.58300  0.83700  0.00761  1.0000
  Co  Co2       1.0  0.08110  0.79800  0.97700  1.0000
  Li  Li1       1.0  0.75000  0.50200  0.00676  1.0000
  Li  Li2       1.0  0.66200  0.65100  0.49300  1.0000
  Li  Li3       1.0  0.82900  0.32500  0.49400  1.0000
  Li  Li4       1.0  0.49500  0.99500  0.49600  1.0000
  Li  Li5       1.0  0.18100  0.71800  0.50700  1.0000
  Li  Li6       1.0  0.99000  0.97000  0.51400  1.0000
  Li  Li7       1.0  0.35300  0.36300  0.51800  1.0000
  Li  Li8       1.0  0.26100  0.51600  0.96800  1.0000
  Mn  Mn1       1.0  0.90000  0.15500  0.98900  1.0000
  Mn  Mn2       1.0  0.41400  0.17400  0.99800  1.0000
  O   O1        1.0  0.28300  0.94300  0.22600  1.0000
  O   O2        1.0  0.60800  0.22400  0.23300  1.0000
  O   O3        1.0  0.45400  0.56500  0.23600  1.0000
  O   O4        1.0  0.80500  0.93800  0.23800  1.0000
  O   O5        1.0  0.96800  0.55500  0.24000  1.0000
  O   O6        1.0  0.37900  0.78300  0.75500  1.0000
  O   O7        1.0  0.71400  0.07370  0.75900  1.0000
  O   O8        1.0  0.21400  0.09110  0.76600  1.0000
  O   O9        1.0  0.03420  0.38700  0.77400  1.0000
  O   O10       1.0  0.53800  0.42700  0.78300  1.0000
  O   O11       1.0  0.89400  0.77900  0.79000  1.0000
