data_image0
_chemical_formula_structural       N8O24Sr4
_chemical_formula_sum              "N8 O24 Sr4"
_cell_length_a       7.59174
_cell_length_b       7.59174
_cell_length_c       7.59174
_cell_angle_alpha    90
_cell_angle_beta     90
_cell_angle_gamma    90

_space_group_name_H-M_alt    "P 1"
_space_group_IT_number       1

loop_
  _space_group_symop_operation_xyz
  'x, y, z'

loop_
  _atom_site_type_symbol
  _atom_site_label
  _atom_site_symmetry_multiplicity
  _atom_site_fract_x
  _atom_site_fract_y
  _atom_site_fract_z
  _atom_site_occupancy
  N   N1        1.0  0.84500  0.34500  0.15500  1.0000
  N   N2        1.0  0.65500  0.84500  0.15500  1.0000
  N   N3        1.0  0.34500  0.34500  0.34500  1.0000
  N   N4        1.0  0.15500  0.84500  0.34500  1.0000
  N   N5        1.0  0.84500  0.15500  0.65500  1.0000
  N   N6        1.0  0.65500  0.65500  0.65500  1.0000
  N   N7        1.0  0.34500  0.15500  0.84500  1.0000
  N   N8        1.0  0.15500  0.65500  0.84500  1.0000
  O   O1        1.0  0.77300  0.28100  0.01910  1.0000
  O   O2        1.0  0.72700  0.78100  0.01910  1.0000
  O   O3        1.0  0.98100  0.27300  0.21900  1.0000
  O   O4        1.0  0.51900  0.77300  0.21900  1.0000
  O   O5        1.0  0.78100  0.48100  0.22700  1.0000
  O   O6        1.0  0.71900  0.98100  0.22700  1.0000
  O   O7        1.0  0.28100  0.48100  0.27300  1.0000
  O   O8        1.0  0.21900  0.98100  0.27300  1.0000
  O   O9        1.0  0.48100  0.27300  0.28100  1.0000
  O   O10       1.0  0.01910  0.77300  0.28100  1.0000
  O   O11       1.0  0.27300  0.28100  0.48100  1.0000
  O   O12       1.0  0.22700  0.78100  0.48100  1.0000
  O   O13       1.0  0.77300  0.21900  0.51900  1.0000
  O   O14       1.0  0.72700  0.71900  0.51900  1.0000
  O   O15       1.0  0.98100  0.22700  0.71900  1.0000
  O   O16       1.0  0.51900  0.72700  0.71900  1.0000
  O   O17       1.0  0.78100  0.01910  0.72700  1.0000
  O   O18       1.0  0.71900  0.51900  0.72700  1.0000
  O   O19       1.0  0.28100  0.01910  0.77300  1.0000
  O   O20       1.0  0.21900  0.51900  0.77300  1.0000
  O   O21       1.0  0.48100  0.22700  0.78100  1.0000
  O   O22       1.0  0.01910  0.72700  0.78100  1.0000
  O   O23       1.0  0.27300  0.21900  0.98100  1.0000
  O   O24       1.0  0.22700  0.71900  0.98100  1.0000
  Sr  Sr1       1.0  0.00000  0.00000  0.00000  1.0000
  Sr  Sr2       1.0  0.50000  0.50000  0.00000  1.0000
  Sr  Sr3       1.0  0.50000  0.00000  0.50000  1.0000
  Sr  Sr4       1.0  0.00000  0.50000  0.50000  1.0000
