data_image0
_chemical_formula_structural       Cl8H16O8Sn4
_chemical_formula_sum              "Cl8 H16 O8 Sn4"
_cell_length_a       9.09009
_cell_length_b       7.0664
_cell_length_c       8.79423
_cell_angle_alpha    90
_cell_angle_beta     114.54
_cell_angle_gamma    90

_space_group_name_H-M_alt    "P 1"
_space_group_IT_number       1

loop_
  _space_group_symop_operation_xyz
  'x, y, z'

loop_
  _atom_site_type_symbol
  _atom_site_label
  _atom_site_symmetry_multiplicity
  _atom_site_fract_x
  _atom_site_fract_y
  _atom_site_fract_z
  _atom_site_occupancy
  Cl  Cl1       1.0  0.28400  0.00283  0.18700  1.0000
  Cl  Cl2       1.0  0.68800  0.00715  0.20000  1.0000
  Cl  Cl3       1.0  0.31200  0.50700  0.30000  1.0000
  Cl  Cl4       1.0  0.71600  0.50300  0.31300  1.0000
  Cl  Cl5       1.0  0.28400  0.49700  0.68700  1.0000
  Cl  Cl6       1.0  0.68800  0.49300  0.70000  1.0000
  Cl  Cl7       1.0  0.31200  0.99300  0.80000  1.0000
  Cl  Cl8       1.0  0.71600  0.99700  0.81300  1.0000
  H   H1        1.0  0.95400  0.70000  0.01570  1.0000
  H   H2        1.0  0.84400  0.20800  0.03500  1.0000
  H   H3        1.0  0.90200  0.52600  0.09660  1.0000
  H   H4        1.0  0.99300  0.24600  0.21000  1.0000
  H   H5        1.0  0.00684  0.74600  0.29000  1.0000
  H   H6        1.0  0.09810  0.02570  0.40300  1.0000
  H   H7        1.0  0.15600  0.70800  0.46500  1.0000
  H   H8        1.0  0.04570  0.20000  0.48400  1.0000
  H   H9        1.0  0.95400  0.80000  0.51600  1.0000
  H   H10       1.0  0.84400  0.29200  0.53500  1.0000
  H   H11       1.0  0.90200  0.97400  0.59700  1.0000
  H   H12       1.0  0.99300  0.25400  0.71000  1.0000
  H   H13       1.0  0.00684  0.75400  0.79000  1.0000
  H   H14       1.0  0.09810  0.47400  0.90300  1.0000
  H   H15       1.0  0.15600  0.79200  0.96500  1.0000
  H   H16       1.0  0.04570  0.30000  0.98400  1.0000
  O   O1        1.0  0.89600  0.66900  0.08910  1.0000
  O   O2        1.0  0.93400  0.29500  0.09370  1.0000
  O   O3        1.0  0.06580  0.79500  0.40600  1.0000
  O   O4        1.0  0.10400  0.16900  0.41100  1.0000
  O   O5        1.0  0.89600  0.83100  0.58900  1.0000
  O   O6        1.0  0.93400  0.20500  0.59400  1.0000
  O   O7        1.0  0.06580  0.70500  0.90600  1.0000
  O   O8        1.0  0.10400  0.33100  0.91100  1.0000
  Sn  Sn1       1.0  0.38300  0.25000  0.03720  1.0000
  Sn  Sn2       1.0  0.61700  0.75000  0.46300  1.0000
  Sn  Sn3       1.0  0.38300  0.25000  0.53700  1.0000
  Sn  Sn4       1.0  0.61700  0.75000  0.96300  1.0000
