data_image0
_chemical_formula_structural       Mn2O5
_chemical_formula_sum              "Mn2 O5"
_cell_length_a       4.95975
_cell_length_b       4.95975
_cell_length_c       4.63189
_cell_angle_alpha    101.809
_cell_angle_beta     101.809
_cell_angle_gamma    118.113

_space_group_name_H-M_alt    "P 1"
_space_group_IT_number       1

loop_
  _space_group_symop_operation_xyz
  'x, y, z'

loop_
  _atom_site_type_symbol
  _atom_site_label
  _atom_site_symmetry_multiplicity
  _atom_site_fract_x
  _atom_site_fract_y
  _atom_site_fract_z
  _atom_site_occupancy
  Mn  Mn1       1.0  0.77300  0.16600  0.96800  1.0000
  Mn  Mn2       1.0  0.16600  0.77300  0.96800  1.0000
  O   O1        1.0  0.97700  0.55600  0.23400  1.0000
  O   O2        1.0  0.55600  0.97700  0.23400  1.0000
  O   O3        1.0  0.38800  0.03790  0.74000  1.0000
  O   O4        1.0  0.03790  0.38800  0.74000  1.0000
  O   O5        1.0  0.85500  0.85500  0.87700  1.0000
