data_image0
_chemical_formula_structural       Ge8Se20Tl8
_chemical_formula_sum              "Ge8 Se20 Tl8"
_cell_length_a       9.21526
_cell_length_b       11.3162
_cell_length_c       11.3162
_cell_angle_alpha    90.285
_cell_angle_beta     101.518
_cell_angle_gamma    78.4825

_space_group_name_H-M_alt    "P 1"
_space_group_IT_number       1

loop_
  _space_group_symop_operation_xyz
  'x, y, z'

loop_
  _atom_site_type_symbol
  _atom_site_label
  _atom_site_symmetry_multiplicity
  _atom_site_fract_x
  _atom_site_fract_y
  _atom_site_fract_z
  _atom_site_occupancy
  Ge  Ge1       1.0  0.39200  0.26900  0.13600  1.0000
  Ge  Ge2       1.0  0.09160  0.47800  0.26700  1.0000
  Ge  Ge3       1.0  0.10800  0.13600  0.26900  1.0000
  Ge  Ge4       1.0  0.40800  0.26700  0.47800  1.0000
  Ge  Ge5       1.0  0.59200  0.73300  0.52200  1.0000
  Ge  Ge6       1.0  0.89200  0.86400  0.73100  1.0000
  Ge  Ge7       1.0  0.90800  0.52200  0.73300  1.0000
  Ge  Ge8       1.0  0.60800  0.73100  0.86400  1.0000
  Se  Se1       1.0  0.45100  0.75700  0.00318  1.0000
  Se  Se2       1.0  0.23400  0.46800  0.10700  1.0000
  Se  Se3       1.0  0.25000  0.10800  0.10800  1.0000
  Se  Se4       1.0  0.93500  0.32900  0.23900  1.0000
  Se  Se5       1.0  0.92800  0.66700  0.24100  1.0000
  Se  Se6       1.0  0.95100  0.99700  0.24300  1.0000
  Se  Se7       1.0  0.56500  0.23900  0.32900  1.0000
  Se  Se8       1.0  0.42800  0.75900  0.33300  1.0000
  Se  Se9       1.0  0.25000  0.46500  0.46500  1.0000
  Se  Se10      1.0  0.26600  0.10700  0.46800  1.0000
  Se  Se11      1.0  0.73400  0.89300  0.53200  1.0000
  Se  Se12      1.0  0.75000  0.53500  0.53500  1.0000
  Se  Se13      1.0  0.57200  0.24100  0.66700  1.0000
  Se  Se14      1.0  0.43500  0.76100  0.67100  1.0000
  Se  Se15      1.0  0.04890  0.00318  0.75700  1.0000
  Se  Se16      1.0  0.07170  0.33300  0.75900  1.0000
  Se  Se17      1.0  0.06470  0.67100  0.76100  1.0000
  Se  Se18      1.0  0.75000  0.89200  0.89200  1.0000
  Se  Se19      1.0  0.76600  0.53200  0.89300  1.0000
  Se  Se20      1.0  0.54900  0.24300  0.99700  1.0000
  Tl  Tl1       1.0  0.09540  0.79700  0.07720  1.0000
  Tl  Tl2       1.0  0.59800  0.54600  0.19900  1.0000
  Tl  Tl3       1.0  0.59500  0.92300  0.20300  1.0000
  Tl  Tl4       1.0  0.09780  0.80100  0.45400  1.0000
  Tl  Tl5       1.0  0.90200  0.19900  0.54600  1.0000
  Tl  Tl6       1.0  0.40500  0.07720  0.79700  1.0000
  Tl  Tl7       1.0  0.40200  0.45400  0.80100  1.0000
  Tl  Tl8       1.0  0.90500  0.20300  0.92300  1.0000
