data_image0
_chemical_formula_structural       K2La2O24P8
_chemical_formula_sum              "K2 La2 O24 P8"
_cell_length_a       8.04503
_cell_length_b       8.44143
_cell_length_c       7.24374
_cell_angle_alpha    90
_cell_angle_beta     92.3154
_cell_angle_gamma    90

_space_group_name_H-M_alt    "P 1"
_space_group_IT_number       1

loop_
  _space_group_symop_operation_xyz
  'x, y, z'

loop_
  _atom_site_type_symbol
  _atom_site_label
  _atom_site_symmetry_multiplicity
  _atom_site_fract_x
  _atom_site_fract_y
  _atom_site_fract_z
  _atom_site_occupancy
  K   K1        1.0  0.72300  0.55000  0.27700  1.0000
  K   K2        1.0  0.27700  0.05020  0.72300  1.0000
  La  La1       1.0  0.24400  0.24800  0.23200  1.0000
  La  La2       1.0  0.75600  0.74800  0.76800  1.0000
  O   O1        1.0  0.79300  0.19800  0.00899  1.0000
  O   O2        1.0  0.47800  0.21100  0.02910  1.0000
  O   O3        1.0  0.92500  0.79800  0.05130  1.0000
  O   O4        1.0  0.18000  0.98700  0.07540  1.0000
  O   O5        1.0  0.65200  0.98200  0.16100  1.0000
  O   O6        1.0  0.39200  0.50800  0.18200  1.0000
  O   O7        1.0  0.07370  0.48700  0.31400  1.0000
  O   O8        1.0  0.13700  0.78600  0.32000  1.0000
  O   O9        1.0  0.42500  0.04240  0.38600  1.0000
  O   O10       1.0  0.03090  0.15800  0.43000  1.0000
  O   O11       1.0  0.72000  0.12900  0.45100  1.0000
  O   O12       1.0  0.65300  0.83300  0.45500  1.0000
  O   O13       1.0  0.34700  0.33300  0.54500  1.0000
  O   O14       1.0  0.28000  0.62900  0.54900  1.0000
  O   O15       1.0  0.96900  0.65800  0.57000  1.0000
  O   O16       1.0  0.57500  0.54200  0.61400  1.0000
  O   O17       1.0  0.86300  0.28600  0.68000  1.0000
  O   O18       1.0  0.92600  0.98700  0.68600  1.0000
  O   O19       1.0  0.60800  0.00782  0.81800  1.0000
  O   O20       1.0  0.34800  0.48200  0.83900  1.0000
  O   O21       1.0  0.82000  0.48700  0.92500  1.0000
  O   O22       1.0  0.07490  0.29800  0.94900  1.0000
  O   O23       1.0  0.52200  0.71100  0.97100  1.0000
  O   O24       1.0  0.20700  0.69800  0.99100  1.0000
  P   P1        1.0  0.38000  0.60300  0.00704  1.0000
  P   P2        1.0  0.10400  0.82700  0.10500  1.0000
  P   P3        1.0  0.60100  0.98800  0.37200  1.0000
  P   P4        1.0  0.10400  0.62700  0.43800  1.0000
  P   P5        1.0  0.89600  0.12700  0.56200  1.0000
  P   P6        1.0  0.39900  0.48800  0.62800  1.0000
  P   P7        1.0  0.89600  0.32700  0.89500  1.0000
  P   P8        1.0  0.62000  0.10300  0.99300  1.0000
