data_image0
_chemical_formula_structural       GaNb4Se8
_chemical_formula_sum              "Ga1 Nb4 Se8"
_cell_length_a       7.44587
_cell_length_b       7.44587
_cell_length_c       7.44587
_cell_angle_alpha    120
_cell_angle_beta     90
_cell_angle_gamma    120

_space_group_name_H-M_alt    "P 1"
_space_group_IT_number       1

loop_
  _space_group_symop_operation_xyz
  'x, y, z'

loop_
  _atom_site_type_symbol
  _atom_site_label
  _atom_site_symmetry_multiplicity
  _atom_site_fract_x
  _atom_site_fract_y
  _atom_site_fract_z
  _atom_site_occupancy
  Ga  Ga1       1.0  0.00000  0.00000  0.00000  1.0000
  Nb  Nb1       1.0  0.19200  0.79400  0.39700  1.0000
  Nb  Nb2       1.0  0.60300  0.79400  0.39700  1.0000
  Nb  Nb3       1.0  0.60300  0.20600  0.39700  1.0000
  Nb  Nb4       1.0  0.60300  0.20600  0.80800  1.0000
  Se  Se1       1.0  0.36500  0.73000  0.09490  1.0000
  Se  Se2       1.0  0.40500  0.27000  0.13500  1.0000
  Se  Se3       1.0  0.86500  0.27000  0.13500  1.0000
  Se  Se4       1.0  0.86500  0.73000  0.13500  1.0000
  Se  Se5       1.0  0.86500  0.73000  0.59500  1.0000
  Se  Se6       1.0  0.36500  0.27000  0.63500  1.0000
  Se  Se7       1.0  0.36500  0.73000  0.63500  1.0000
  Se  Se8       1.0  0.90500  0.27000  0.63500  1.0000
