data_image0
_chemical_formula_structural       O24Ta8Zn4
_chemical_formula_sum              "O24 Ta8 Zn4"
_cell_length_a       4.70297
_cell_length_b       17.1252
_cell_length_c       5.07301
_cell_angle_alpha    90
_cell_angle_beta     90
_cell_angle_gamma    90

_space_group_name_H-M_alt    "P 1"
_space_group_IT_number       1

loop_
  _space_group_symop_operation_xyz
  'x, y, z'

loop_
  _atom_site_type_symbol
  _atom_site_label
  _atom_site_symmetry_multiplicity
  _atom_site_fract_x
  _atom_site_fract_y
  _atom_site_fract_z
  _atom_site_occupancy
  O   O1        1.0  0.27900  0.03500  0.07160  1.0000
  O   O2        1.0  0.22100  0.53500  0.07160  1.0000
  O   O3        1.0  0.23900  0.20900  0.07460  1.0000
  O   O4        1.0  0.26100  0.70900  0.07460  1.0000
  O   O5        1.0  0.26800  0.37100  0.09770  1.0000
  O   O6        1.0  0.23200  0.87100  0.09770  1.0000
  O   O7        1.0  0.73200  0.37100  0.40200  1.0000
  O   O8        1.0  0.76800  0.87100  0.40200  1.0000
  O   O9        1.0  0.76100  0.20900  0.42500  1.0000
  O   O10       1.0  0.73900  0.70900  0.42500  1.0000
  O   O11       1.0  0.72100  0.03500  0.42800  1.0000
  O   O12       1.0  0.77900  0.53500  0.42800  1.0000
  O   O13       1.0  0.22100  0.46500  0.57200  1.0000
  O   O14       1.0  0.27900  0.96500  0.57200  1.0000
  O   O15       1.0  0.26100  0.29100  0.57500  1.0000
  O   O16       1.0  0.23900  0.79100  0.57500  1.0000
  O   O17       1.0  0.23200  0.12900  0.59800  1.0000
  O   O18       1.0  0.26800  0.62900  0.59800  1.0000
  O   O19       1.0  0.76800  0.12900  0.90200  1.0000
  O   O20       1.0  0.73200  0.62900  0.90200  1.0000
  O   O21       1.0  0.73900  0.29100  0.92500  1.0000
  O   O22       1.0  0.76100  0.79100  0.92500  1.0000
  O   O23       1.0  0.77900  0.46500  0.92800  1.0000
  O   O24       1.0  0.72100  0.96500  0.92800  1.0000
  Ta  Ta1       1.0  0.50000  0.28000  0.25000  1.0000
  Ta  Ta2       1.0  0.00000  0.44400  0.25000  1.0000
  Ta  Ta3       1.0  0.00000  0.78000  0.25000  1.0000
  Ta  Ta4       1.0  0.50000  0.94400  0.25000  1.0000
  Ta  Ta5       1.0  0.50000  0.05590  0.75000  1.0000
  Ta  Ta6       1.0  0.00000  0.22000  0.75000  1.0000
  Ta  Ta7       1.0  0.00000  0.55600  0.75000  1.0000
  Ta  Ta8       1.0  0.50000  0.72000  0.75000  1.0000
  Zn  Zn1       1.0  0.00000  0.10300  0.25000  1.0000
  Zn  Zn2       1.0  0.50000  0.60300  0.25000  1.0000
  Zn  Zn3       1.0  0.50000  0.39700  0.75000  1.0000
  Zn  Zn4       1.0  0.00000  0.89700  0.75000  1.0000
