data_image0
_chemical_formula_structural       F28Sb8
_chemical_formula_sum              "F28 Sb8"
_cell_length_a       10.4146
_cell_length_b       10.4548
_cell_length_c       4.46074
_cell_angle_alpha    90
_cell_angle_beta     95.5476
_cell_angle_gamma    90

_space_group_name_H-M_alt    "P 1"
_space_group_IT_number       1

loop_
  _space_group_symop_operation_xyz
  'x, y, z'

loop_
  _atom_site_type_symbol
  _atom_site_label
  _atom_site_symmetry_multiplicity
  _atom_site_fract_x
  _atom_site_fract_y
  _atom_site_fract_z
  _atom_site_occupancy
  F   F1        1.0  0.07560  0.25000  0.12500  1.0000
  F   F2        1.0  0.37000  0.25000  0.14500  1.0000
  F   F3        1.0  0.85200  0.13100  0.15800  1.0000
  F   F4        1.0  0.85200  0.36900  0.15800  1.0000
  F   F5        1.0  0.59400  0.12000  0.17700  1.0000
  F   F6        1.0  0.59400  0.38000  0.17700  1.0000
  F   F7        1.0  0.96400  0.57800  0.27700  1.0000
  F   F8        1.0  0.96400  0.92200  0.27700  1.0000
  F   F9        1.0  0.32500  0.75000  0.30900  1.0000
  F   F10       1.0  0.54800  0.61800  0.35800  1.0000
  F   F11       1.0  0.54800  0.88200  0.35800  1.0000
  F   F12       1.0  0.78300  0.75000  0.37400  1.0000
  F   F13       1.0  0.22400  0.00397  0.38200  1.0000
  F   F14       1.0  0.22400  0.49600  0.38200  1.0000
  F   F15       1.0  0.77600  0.50400  0.61800  1.0000
  F   F16       1.0  0.77600  0.99600  0.61800  1.0000
  F   F17       1.0  0.21700  0.25000  0.62600  1.0000
  F   F18       1.0  0.45200  0.11800  0.64200  1.0000
  F   F19       1.0  0.45200  0.38200  0.64200  1.0000
  F   F20       1.0  0.67500  0.25000  0.69100  1.0000
  F   F21       1.0  0.03560  0.07850  0.72300  1.0000
  F   F22       1.0  0.03560  0.42200  0.72300  1.0000
  F   F23       1.0  0.40600  0.62000  0.82300  1.0000
  F   F24       1.0  0.40600  0.88000  0.82300  1.0000
  F   F25       1.0  0.14800  0.63100  0.84200  1.0000
  F   F26       1.0  0.14800  0.86900  0.84200  1.0000
  F   F27       1.0  0.63000  0.75000  0.85500  1.0000
  F   F28       1.0  0.92400  0.75000  0.87500  1.0000
  Sb  Sb1       1.0  0.07790  0.75000  0.16800  1.0000
  Sb  Sb2       1.0  0.77100  0.55800  0.19300  1.0000
  Sb  Sb3       1.0  0.77100  0.94200  0.19300  1.0000
  Sb  Sb4       1.0  0.52400  0.25000  0.41400  1.0000
  Sb  Sb5       1.0  0.47600  0.75000  0.58600  1.0000
  Sb  Sb6       1.0  0.22900  0.05800  0.80700  1.0000
  Sb  Sb7       1.0  0.22900  0.44200  0.80700  1.0000
  Sb  Sb8       1.0  0.92200  0.25000  0.83200  1.0000
