data_image0
_chemical_formula_structural       K4Pt2S30
_chemical_formula_sum              "K4 Pt2 S30"
_cell_length_a       9.07092
_cell_length_b       9.0709
_cell_length_c       12.7589
_cell_angle_alpha    88.3933
_cell_angle_beta     88.3932
_cell_angle_gamma    66.2478

_space_group_name_H-M_alt    "P 1"
_space_group_IT_number       1

loop_
  _space_group_symop_operation_xyz
  'x, y, z'

loop_
  _atom_site_type_symbol
  _atom_site_label
  _atom_site_symmetry_multiplicity
  _atom_site_fract_x
  _atom_site_fract_y
  _atom_site_fract_z
  _atom_site_occupancy
  K   K1        1.0  0.72100  0.05990  0.09010  1.0000
  K   K2        1.0  0.36900  0.18100  0.35400  1.0000
  K   K3        1.0  0.05990  0.72100  0.59000  1.0000
  K   K4        1.0  0.18100  0.36900  0.85400  1.0000
  Pt  Pt1       1.0  0.21800  0.80300  0.25200  1.0000
  Pt  Pt2       1.0  0.80300  0.21800  0.75200  1.0000
  S   S1        1.0  0.06030  0.64400  0.04610  1.0000
  S   S2        1.0  0.37300  0.99200  0.05130  1.0000
  S   S3        1.0  0.09830  0.84300  0.07990  1.0000
  S   S4        1.0  0.23600  0.22800  0.10200  1.0000
  S   S5        1.0  0.85700  0.65400  0.13200  1.0000
  S   S6        1.0  0.02110  0.21500  0.15800  1.0000
  S   S7        1.0  0.44700  0.85400  0.18400  1.0000
  S   S8        1.0  0.34500  0.51500  0.22200  1.0000
  S   S9        1.0  0.58900  0.43400  0.23000  1.0000
  S   S10       1.0  0.95100  0.59100  0.28100  1.0000
  S   S11       1.0  0.07700  0.08630  0.29400  1.0000
  S   S12       1.0  0.97700  0.79000  0.33100  1.0000
  S   S13       1.0  0.64000  0.42400  0.39000  1.0000
  S   S14       1.0  0.57100  0.66700  0.41700  1.0000
  S   S15       1.0  0.32600  0.77300  0.42700  1.0000
  S   S16       1.0  0.64400  0.06030  0.54600  1.0000
  S   S17       1.0  0.99200  0.37300  0.55100  1.0000
  S   S18       1.0  0.84300  0.09830  0.58000  1.0000
  S   S19       1.0  0.22800  0.23600  0.60200  1.0000
  S   S20       1.0  0.65400  0.85700  0.63200  1.0000
  S   S21       1.0  0.21500  0.02110  0.65800  1.0000
  S   S22       1.0  0.85400  0.44700  0.68400  1.0000
  S   S23       1.0  0.51500  0.34500  0.72200  1.0000
  S   S24       1.0  0.43400  0.58900  0.73000  1.0000
  S   S25       1.0  0.59100  0.95100  0.78100  1.0000
  S   S26       1.0  0.08630  0.07700  0.79400  1.0000
  S   S27       1.0  0.79000  0.97700  0.83100  1.0000
  S   S28       1.0  0.42400  0.64000  0.89000  1.0000
  S   S29       1.0  0.66700  0.57100  0.91700  1.0000
  S   S30       1.0  0.77300  0.32600  0.92700  1.0000
