data_image0
_chemical_formula_structural       Al4Ce3Si6
_chemical_formula_sum              "Al4 Ce3 Si6"
_cell_length_a       4.21468
_cell_length_b       4.21494
_cell_length_c       18.2393
_cell_angle_alpha    90
_cell_angle_beta     89.9947
_cell_angle_gamma    120.002

_space_group_name_H-M_alt    "P 1"
_space_group_IT_number       1

loop_
  _space_group_symop_operation_xyz
  'x, y, z'

loop_
  _atom_site_type_symbol
  _atom_site_label
  _atom_site_symmetry_multiplicity
  _atom_site_fract_x
  _atom_site_fract_y
  _atom_site_fract_z
  _atom_site_occupancy
  Al  Al1       1.0  0.66700  0.33300  0.25600  1.0000
  Al  Al2       1.0  0.33300  0.66700  0.36000  1.0000
  Al  Al3       1.0  0.66700  0.33300  0.64000  1.0000
  Al  Al4       1.0  0.33300  0.66700  0.74400  1.0000
  Ce  Ce1       1.0  0.00000  0.00000  0.11300  1.0000
  Ce  Ce2       1.0  0.00000  0.00000  0.50000  1.0000
  Ce  Ce3       1.0  0.00000  0.00000  0.88700  1.0000
  Si  Si1       1.0  0.33300  0.66700  0.99700  1.0000
  Si  Si2       1.0  0.66700  0.33300  0.00279  1.0000
  Si  Si3       1.0  0.33300  0.66700  0.22100  1.0000
  Si  Si4       1.0  0.66700  0.33300  0.39600  1.0000
  Si  Si5       1.0  0.33300  0.66700  0.60400  1.0000
  Si  Si6       1.0  0.66700  0.33300  0.77900  1.0000
