data_image0
_chemical_formula_structural       Ir2O5
_chemical_formula_sum              "Ir2 O5"
_cell_length_a       4.78108
_cell_length_b       4.78108
_cell_length_c       4.80773
_cell_angle_alpha    102.653
_cell_angle_beta     102.653
_cell_angle_gamma    109.383

_space_group_name_H-M_alt    "P 1"
_space_group_IT_number       1

loop_
  _space_group_symop_operation_xyz
  'x, y, z'

loop_
  _atom_site_type_symbol
  _atom_site_label
  _atom_site_symmetry_multiplicity
  _atom_site_fract_x
  _atom_site_fract_y
  _atom_site_fract_z
  _atom_site_occupancy
  Ir  Ir1       1.0  0.82100  0.16900  0.99000  1.0000
  Ir  Ir2       1.0  0.16900  0.82100  0.99000  1.0000
  O   O1        1.0  0.58000  0.01770  0.25400  1.0000
  O   O2        1.0  0.01770  0.58000  0.25400  1.0000
  O   O3        1.0  0.76500  0.76500  0.75000  1.0000
  O   O4        1.0  0.39400  0.05780  0.76500  1.0000
  O   O5        1.0  0.05780  0.39400  0.76500  1.0000
