data_image0
_chemical_formula_structural       Na4O16Pb4Rb12
_chemical_formula_sum              "Na4 O16 Pb4 Rb12"
_cell_length_a       10.9695
_cell_length_b       6.62466
_cell_length_c       11.0847
_cell_angle_alpha    90
_cell_angle_beta     111.684
_cell_angle_gamma    90

_space_group_name_H-M_alt    "P 1"
_space_group_IT_number       1

loop_
  _space_group_symop_operation_xyz
  'x, y, z'

loop_
  _atom_site_type_symbol
  _atom_site_label
  _atom_site_symmetry_multiplicity
  _atom_site_fract_x
  _atom_site_fract_y
  _atom_site_fract_z
  _atom_site_occupancy
  Na  Na1       1.0  0.12600  0.62100  0.10800  1.0000
  Na  Na2       1.0  0.87400  0.12100  0.39200  1.0000
  Na  Na3       1.0  0.12600  0.87900  0.60800  1.0000
  Na  Na4       1.0  0.87400  0.37900  0.89200  1.0000
  O   O1        1.0  0.89700  0.62200  0.04810  1.0000
  O   O2        1.0  0.43200  0.26500  0.05600  1.0000
  O   O3        1.0  0.23100  0.92200  0.12200  1.0000
  O   O4        1.0  0.79500  0.99400  0.18900  1.0000
  O   O5        1.0  0.20500  0.49400  0.31100  1.0000
  O   O6        1.0  0.76900  0.42200  0.37800  1.0000
  O   O7        1.0  0.56800  0.76500  0.44400  1.0000
  O   O8        1.0  0.10300  0.12200  0.45200  1.0000
  O   O9        1.0  0.89700  0.87800  0.54800  1.0000
  O   O10       1.0  0.43200  0.23500  0.55600  1.0000
  O   O11       1.0  0.23100  0.57800  0.62200  1.0000
  O   O12       1.0  0.79500  0.50600  0.68900  1.0000
  O   O13       1.0  0.20500  0.00621  0.81100  1.0000
  O   O14       1.0  0.76900  0.07780  0.87800  1.0000
  O   O15       1.0  0.56800  0.73500  0.94400  1.0000
  O   O16       1.0  0.10300  0.37800  0.95200  1.0000
  Pb  Pb1       1.0  0.75800  0.85600  0.00820  1.0000
  Pb  Pb2       1.0  0.24200  0.35600  0.49200  1.0000
  Pb  Pb3       1.0  0.75800  0.64400  0.50800  1.0000
  Pb  Pb4       1.0  0.24200  0.14400  0.99200  1.0000
  Rb  Rb1       1.0  0.68300  0.38000  0.10600  1.0000
  Rb  Rb2       1.0  0.03220  0.17600  0.17200  1.0000
  Rb  Rb3       1.0  0.54200  0.89100  0.18800  1.0000
  Rb  Rb4       1.0  0.45800  0.39100  0.31200  1.0000
  Rb  Rb5       1.0  0.96800  0.67600  0.32800  1.0000
  Rb  Rb6       1.0  0.31700  0.88000  0.39400  1.0000
  Rb  Rb7       1.0  0.68300  0.12000  0.60600  1.0000
  Rb  Rb8       1.0  0.03220  0.32400  0.67200  1.0000
  Rb  Rb9       1.0  0.54200  0.60900  0.68800  1.0000
  Rb  Rb10      1.0  0.45800  0.10900  0.81200  1.0000
  Rb  Rb11      1.0  0.96800  0.82400  0.82800  1.0000
  Rb  Rb12      1.0  0.31700  0.62000  0.89400  1.0000
