data_image0
_chemical_formula_structural       Ni4O24P8
_chemical_formula_sum              "Ni4 O24 P8"
_cell_length_a       7.05461
_cell_length_b       7.05461
_cell_length_c       9.58846
_cell_angle_alpha    98.7964
_cell_angle_beta     109.951
_cell_angle_gamma    109.17

_space_group_name_H-M_alt    "P 1"
_space_group_IT_number       1

loop_
  _space_group_symop_operation_xyz
  'x, y, z'

loop_
  _atom_site_type_symbol
  _atom_site_label
  _atom_site_symmetry_multiplicity
  _atom_site_fract_x
  _atom_site_fract_y
  _atom_site_fract_z
  _atom_site_occupancy
  Ni  Ni1       1.0  0.50000  0.00000  0.00000  1.0000
  Ni  Ni2       1.0  0.31000  0.06000  0.25000  1.0000
  Ni  Ni3       1.0  0.50000  0.50000  0.50000  1.0000
  Ni  Ni4       1.0  0.69000  0.94000  0.75000  1.0000
  O   O1        1.0  0.27300  0.50700  0.06830  1.0000
  O   O2        1.0  0.37900  0.19900  0.08470  1.0000
  O   O3        1.0  0.01660  0.84700  0.09310  1.0000
  O   O4        1.0  0.80800  0.18900  0.14300  1.0000
  O   O5        1.0  0.69300  0.68200  0.15600  1.0000
  O   O6        1.0  0.47000  0.89300  0.18100  1.0000
  O   O7        1.0  0.21200  0.29000  0.31900  1.0000
  O   O8        1.0  0.02550  0.53600  0.34400  1.0000
  O   O9        1.0  0.54600  0.66500  0.35700  1.0000
  O   O10       1.0  0.25400  0.92300  0.40700  1.0000
  O   O11       1.0  0.61400  0.29400  0.41500  1.0000
  O   O12       1.0  0.93900  0.20500  0.43200  1.0000
  O   O13       1.0  0.06130  0.79500  0.56800  1.0000
  O   O14       1.0  0.38600  0.70600  0.58500  1.0000
  O   O15       1.0  0.74600  0.07650  0.59300  1.0000
  O   O16       1.0  0.45400  0.33500  0.64300  1.0000
  O   O17       1.0  0.97400  0.46400  0.65600  1.0000
  O   O18       1.0  0.78800  0.71000  0.68100  1.0000
  O   O19       1.0  0.53000  0.10700  0.81900  1.0000
  O   O20       1.0  0.30700  0.31800  0.84400  1.0000
  O   O21       1.0  0.19200  0.81100  0.85700  1.0000
  O   O22       1.0  0.98300  0.15300  0.90700  1.0000
  O   O23       1.0  0.62100  0.80100  0.91500  1.0000
  O   O24       1.0  0.72700  0.49300  0.93200  1.0000
  P   P1        1.0  0.77600  0.72600  0.02290  1.0000
  P   P2        1.0  0.49700  0.69300  0.20100  1.0000
  P   P3        1.0  0.99200  0.29600  0.29900  1.0000
  P   P4        1.0  0.20300  0.75300  0.47700  1.0000
  P   P5        1.0  0.79700  0.24700  0.52300  1.0000
  P   P6        1.0  0.00834  0.70400  0.70100  1.0000
  P   P7        1.0  0.50300  0.30700  0.79900  1.0000
  P   P8        1.0  0.22400  0.27400  0.97700  1.0000
