data_image0
_chemical_formula_structural       InLiMo3O8
_chemical_formula_sum              "In1 Li1 Mo3 O8"
_cell_length_a       5.87026
_cell_length_b       5.88001
_cell_length_c       4.97362
_cell_angle_alpha    90
_cell_angle_beta     89.9861
_cell_angle_gamma    120.055

_space_group_name_H-M_alt    "P 1"
_space_group_IT_number       1

loop_
  _space_group_symop_operation_xyz
  'x, y, z'

loop_
  _atom_site_type_symbol
  _atom_site_label
  _atom_site_symmetry_multiplicity
  _atom_site_fract_x
  _atom_site_fract_y
  _atom_site_fract_z
  _atom_site_occupancy
  In  In1       1.0  0.33300  0.66700  0.73500  1.0000
  Li  Li1       1.0  0.66700  0.33300  0.68400  1.0000
  Mo  Mo1       1.0  0.84800  0.15200  0.24900  1.0000
  Mo  Mo2       1.0  0.84800  0.69600  0.24900  1.0000
  Mo  Mo3       1.0  0.30400  0.15200  0.24900  1.0000
  O   O1        1.0  0.66300  0.83100  0.02000  1.0000
  O   O2        1.0  0.16900  0.33700  0.02030  1.0000
  O   O3        1.0  0.16900  0.83100  0.02030  1.0000
  O   O4        1.0  0.66700  0.33300  0.05110  1.0000
  O   O5        1.0  0.98000  0.49000  0.48100  1.0000
  O   O6        1.0  0.51000  0.49000  0.48200  1.0000
  O   O7        1.0  0.51000  0.01960  0.48200  1.0000
  O   O8        1.0  0.00000  0.00000  0.52700  1.0000
