data_image0
_chemical_formula_structural       Cl4N12Pt4S16
_chemical_formula_sum              "Cl4 N12 Pt4 S16"
_cell_length_a       5.19281
_cell_length_b       10.7392
_cell_length_c       13.1986
_cell_angle_alpha    90
_cell_angle_beta     90
_cell_angle_gamma    90

_space_group_name_H-M_alt    "P 1"
_space_group_IT_number       1

loop_
  _space_group_symop_operation_xyz
  'x, y, z'

loop_
  _atom_site_type_symbol
  _atom_site_label
  _atom_site_symmetry_multiplicity
  _atom_site_fract_x
  _atom_site_fract_y
  _atom_site_fract_z
  _atom_site_occupancy
  Cl  Cl1       1.0  0.67700  0.32300  0.25000  1.0000
  Cl  Cl2       1.0  0.82300  0.82300  0.25000  1.0000
  Cl  Cl3       1.0  0.17700  0.17700  0.75000  1.0000
  Cl  Cl4       1.0  0.32300  0.67700  0.75000  1.0000
  N   N1        1.0  0.25800  0.07450  0.05570  1.0000
  N   N2        1.0  0.24200  0.57400  0.05570  1.0000
  N   N3        1.0  0.28900  0.05030  0.25000  1.0000
  N   N4        1.0  0.21100  0.55000  0.25000  1.0000
  N   N5        1.0  0.25800  0.07450  0.44400  1.0000
  N   N6        1.0  0.24200  0.57400  0.44400  1.0000
  N   N7        1.0  0.75800  0.42600  0.55600  1.0000
  N   N8        1.0  0.74200  0.92600  0.55600  1.0000
  N   N9        1.0  0.78900  0.45000  0.75000  1.0000
  N   N10       1.0  0.71100  0.95000  0.75000  1.0000
  N   N11       1.0  0.75800  0.42600  0.94400  1.0000
  N   N12       1.0  0.74200  0.92600  0.94400  1.0000
  Pt  Pt1       1.0  0.00511  0.17400  0.25000  1.0000
  Pt  Pt2       1.0  0.49500  0.67400  0.25000  1.0000
  Pt  Pt3       1.0  0.50500  0.32600  0.75000  1.0000
  Pt  Pt4       1.0  0.99500  0.82600  0.75000  1.0000
  S   S1        1.0  0.02220  0.17100  0.07940  1.0000
  S   S2        1.0  0.47800  0.67100  0.07940  1.0000
  S   S3        1.0  0.41700  0.00440  0.13900  1.0000
  S   S4        1.0  0.08260  0.50400  0.13900  1.0000
  S   S5        1.0  0.41700  0.00440  0.36100  1.0000
  S   S6        1.0  0.08260  0.50400  0.36100  1.0000
  S   S7        1.0  0.02220  0.17100  0.42100  1.0000
  S   S8        1.0  0.47800  0.67100  0.42100  1.0000
  S   S9        1.0  0.52200  0.32900  0.57900  1.0000
  S   S10       1.0  0.97800  0.82900  0.57900  1.0000
  S   S11       1.0  0.91700  0.49600  0.63900  1.0000
  S   S12       1.0  0.58300  0.99600  0.63900  1.0000
  S   S13       1.0  0.91700  0.49600  0.86100  1.0000
  S   S14       1.0  0.58300  0.99600  0.86100  1.0000
  S   S15       1.0  0.52200  0.32900  0.92100  1.0000
  S   S16       1.0  0.97800  0.82900  0.92100  1.0000
