data_image0
_chemical_formula_structural       Mn4O11
_chemical_formula_sum              "Mn4 O11"
_cell_length_a       10.0528
_cell_length_b       4.8103
_cell_length_c       4.55111
_cell_angle_alpha    101.643
_cell_angle_beta     103.576
_cell_angle_gamma    119.761

_space_group_name_H-M_alt    "P 1"
_space_group_IT_number       1

loop_
  _space_group_symop_operation_xyz
  'x, y, z'

loop_
  _atom_site_type_symbol
  _atom_site_label
  _atom_site_symmetry_multiplicity
  _atom_site_fract_x
  _atom_site_fract_y
  _atom_site_fract_z
  _atom_site_occupancy
  Mn  Mn1       1.0  0.09690  0.76300  0.96600  1.0000
  Mn  Mn2       1.0  0.88700  0.12400  0.97200  1.0000
  Mn  Mn3       1.0  0.57700  0.86800  0.99000  1.0000
  Mn  Mn4       1.0  0.41100  0.19000  0.99200  1.0000
  O   O1        1.0  0.45200  0.62100  0.21000  1.0000
  O   O2        1.0  0.77500  0.92900  0.22500  1.0000
  O   O3        1.0  0.62200  0.29200  0.23400  1.0000
  O   O4        1.0  0.30000  0.98100  0.25300  1.0000
  O   O5        1.0  0.01730  0.53600  0.25800  1.0000
  O   O6        1.0  0.01600  0.34500  0.73000  1.0000
  O   O7        1.0  0.70200  0.05720  0.74000  1.0000
  O   O8        1.0  0.36900  0.76600  0.75100  1.0000
  O   O9        1.0  0.19100  0.04040  0.75400  1.0000
  O   O10       1.0  0.52900  0.42800  0.76500  1.0000
  O   O11       1.0  0.93000  0.81000  0.92100  1.0000
