data_image0
_chemical_formula_structural       Co2O5
_chemical_formula_sum              "Co2 O5"
_cell_length_a       4.74485
_cell_length_b       4.74485
_cell_length_c       4.50708
_cell_angle_alpha    101.478
_cell_angle_beta     101.478
_cell_angle_gamma    118.259

_space_group_name_H-M_alt    "P 1"
_space_group_IT_number       1

loop_
  _space_group_symop_operation_xyz
  'x, y, z'

loop_
  _atom_site_type_symbol
  _atom_site_label
  _atom_site_symmetry_multiplicity
  _atom_site_fract_x
  _atom_site_fract_y
  _atom_site_fract_z
  _atom_site_occupancy
  Co  Co1       1.0  0.80100  0.16400  0.98700  1.0000
  Co  Co2       1.0  0.16400  0.80100  0.98700  1.0000
  O   O1        1.0  0.96500  0.58200  0.23700  1.0000
  O   O2        1.0  0.58200  0.96500  0.23700  1.0000
  O   O3        1.0  0.40000  0.05770  0.76400  1.0000
  O   O4        1.0  0.05770  0.40000  0.76400  1.0000
  O   O5        1.0  0.80500  0.80500  0.78900  1.0000
