data_image0
_chemical_formula_structural       Ni2O24P8Zn2
_chemical_formula_sum              "Ni2 O24 P8 Zn2"
_cell_length_a       7.09559
_cell_length_b       7.09559
_cell_length_c       9.61802
_cell_angle_alpha    98.8059
_cell_angle_beta     110.159
_cell_angle_gamma    108.987

_space_group_name_H-M_alt    "P 1"
_space_group_IT_number       1

loop_
  _space_group_symop_operation_xyz
  'x, y, z'

loop_
  _atom_site_type_symbol
  _atom_site_label
  _atom_site_symmetry_multiplicity
  _atom_site_fract_x
  _atom_site_fract_y
  _atom_site_fract_z
  _atom_site_occupancy
  Ni  Ni1       1.0  0.50000  0.00000  0.00000  1.0000
  Ni  Ni2       1.0  0.50000  0.50000  0.50000  1.0000
  O   O1        1.0  0.27600  0.50800  0.06980  1.0000
  O   O2        1.0  0.38300  0.20000  0.08350  1.0000
  O   O3        1.0  0.01060  0.84400  0.09110  1.0000
  O   O4        1.0  0.80800  0.19000  0.14300  1.0000
  O   O5        1.0  0.69200  0.67700  0.15600  1.0000
  O   O6        1.0  0.47400  0.89100  0.18000  1.0000
  O   O7        1.0  0.21100  0.29400  0.32000  1.0000
  O   O8        1.0  0.02090  0.53500  0.34400  1.0000
  O   O9        1.0  0.54800  0.66600  0.35700  1.0000
  O   O10       1.0  0.25300  0.91900  0.40900  1.0000
  O   O11       1.0  0.61700  0.29900  0.41700  1.0000
  O   O12       1.0  0.93800  0.20600  0.43000  1.0000
  O   O13       1.0  0.06210  0.79400  0.57000  1.0000
  O   O14       1.0  0.38300  0.70100  0.58300  1.0000
  O   O15       1.0  0.74700  0.08050  0.59100  1.0000
  O   O16       1.0  0.45200  0.33400  0.64300  1.0000
  O   O17       1.0  0.97900  0.46500  0.65600  1.0000
  O   O18       1.0  0.78900  0.70600  0.68000  1.0000
  O   O19       1.0  0.52600  0.10900  0.82000  1.0000
  O   O20       1.0  0.30800  0.32300  0.84400  1.0000
  O   O21       1.0  0.19200  0.81000  0.85700  1.0000
  O   O22       1.0  0.98900  0.15600  0.90900  1.0000
  O   O23       1.0  0.61700  0.80000  0.91700  1.0000
  O   O24       1.0  0.72400  0.49200  0.93000  1.0000
  P   P1        1.0  0.77100  0.72300  0.02230  1.0000
  P   P2        1.0  0.49900  0.69200  0.20200  1.0000
  P   P3        1.0  0.99100  0.29700  0.29800  1.0000
  P   P4        1.0  0.20000  0.74900  0.47800  1.0000
  P   P5        1.0  0.80000  0.25100  0.52200  1.0000
  P   P6        1.0  0.00941  0.70300  0.70200  1.0000
  P   P7        1.0  0.50100  0.30800  0.79800  1.0000
  P   P8        1.0  0.22900  0.27700  0.97800  1.0000
  Zn  Zn1       1.0  0.30500  0.05540  0.25000  1.0000
  Zn  Zn2       1.0  0.69500  0.94500  0.75000  1.0000
