data_image0
_chemical_formula_structural       Na16Sn4Te16
_chemical_formula_sum              "Na16 Sn4 Te16"
_cell_length_a       8.61626
_cell_length_b       8.7871
_cell_length_c       15.2376
_cell_angle_alpha    90
_cell_angle_beta     90
_cell_angle_gamma    90

_space_group_name_H-M_alt    "P 1"
_space_group_IT_number       1

loop_
  _space_group_symop_operation_xyz
  'x, y, z'

loop_
  _atom_site_type_symbol
  _atom_site_label
  _atom_site_symmetry_multiplicity
  _atom_site_fract_x
  _atom_site_fract_y
  _atom_site_fract_z
  _atom_site_occupancy
  Na  Na1       1.0  0.51600  0.03770  0.08260  1.0000
  Na  Na2       1.0  0.12300  0.85700  0.13000  1.0000
  Na  Na3       1.0  0.66800  0.62900  0.13200  1.0000
  Na  Na4       1.0  0.87200  0.23100  0.13400  1.0000
  Na  Na5       1.0  0.12800  0.73100  0.36600  1.0000
  Na  Na6       1.0  0.33200  0.12900  0.36800  1.0000
  Na  Na7       1.0  0.87700  0.35700  0.37000  1.0000
  Na  Na8       1.0  0.48400  0.53800  0.41700  1.0000
  Na  Na9       1.0  0.98400  0.96200  0.58300  1.0000
  Na  Na10      1.0  0.37700  0.14300  0.63000  1.0000
  Na  Na11      1.0  0.83200  0.37100  0.63200  1.0000
  Na  Na12      1.0  0.62800  0.76900  0.63400  1.0000
  Na  Na13      1.0  0.37200  0.26900  0.86600  1.0000
  Na  Na14      1.0  0.16800  0.87100  0.86800  1.0000
  Na  Na15      1.0  0.62300  0.64300  0.87000  1.0000
  Na  Na16      1.0  0.01650  0.46200  0.91700  1.0000
  Sn  Sn1       1.0  0.28000  0.42900  0.12700  1.0000
  Sn  Sn2       1.0  0.72000  0.92900  0.37300  1.0000
  Sn  Sn3       1.0  0.22000  0.57100  0.62700  1.0000
  Sn  Sn4       1.0  0.78000  0.07090  0.87300  1.0000
  Te  Te1       1.0  0.35600  0.66300  0.00979  1.0000
  Te  Te2       1.0  0.18500  0.17700  0.03030  1.0000
  Te  Te3       1.0  0.01350  0.54000  0.20900  1.0000
  Te  Te4       1.0  0.52000  0.34400  0.23900  1.0000
  Te  Te5       1.0  0.48000  0.84400  0.26100  1.0000
  Te  Te6       1.0  0.98700  0.03970  0.29100  1.0000
  Te  Te7       1.0  0.81500  0.67700  0.47000  1.0000
  Te  Te8       1.0  0.64400  0.16300  0.49000  1.0000
  Te  Te9       1.0  0.14400  0.33700  0.51000  1.0000
  Te  Te10      1.0  0.31500  0.82300  0.53000  1.0000
  Te  Te11      1.0  0.48700  0.46000  0.70900  1.0000
  Te  Te12      1.0  0.98000  0.65600  0.73900  1.0000
  Te  Te13      1.0  0.01980  0.15600  0.76100  1.0000
  Te  Te14      1.0  0.51300  0.96000  0.79100  1.0000
  Te  Te15      1.0  0.68500  0.32300  0.97000  1.0000
  Te  Te16      1.0  0.85600  0.83700  0.99000  1.0000
