data_image0
_chemical_formula_structural       Fe4O24P8
_chemical_formula_sum              "Fe4 O24 P8"
_cell_length_a       7.23498
_cell_length_b       7.23498
_cell_length_c       9.68606
_cell_angle_alpha    98.543
_cell_angle_beta     110.372
_cell_angle_gamma    109.577

_space_group_name_H-M_alt    "P 1"
_space_group_IT_number       1

loop_
  _space_group_symop_operation_xyz
  'x, y, z'

loop_
  _atom_site_type_symbol
  _atom_site_label
  _atom_site_symmetry_multiplicity
  _atom_site_fract_x
  _atom_site_fract_y
  _atom_site_fract_z
  _atom_site_occupancy
  Fe  Fe1       1.0  0.50000  0.00000  0.00000  1.0000
  Fe  Fe2       1.0  0.30400  0.05380  0.25000  1.0000
  Fe  Fe3       1.0  0.50000  0.50000  0.50000  1.0000
  Fe  Fe4       1.0  0.69600  0.94600  0.75000  1.0000
  O   O1        1.0  0.28700  0.51200  0.06200  1.0000
  O   O2        1.0  0.37400  0.20200  0.08420  1.0000
  O   O3        1.0  0.00960  0.83400  0.08900  1.0000
  O   O4        1.0  0.80300  0.19300  0.14900  1.0000
  O   O5        1.0  0.70000  0.69400  0.16200  1.0000
  O   O6        1.0  0.47100  0.88600  0.18500  1.0000
  O   O7        1.0  0.20100  0.28600  0.31500  1.0000
  O   O8        1.0  0.03220  0.53800  0.33800  1.0000
  O   O9        1.0  0.54400  0.65400  0.35100  1.0000
  O   O10       1.0  0.24500  0.92100  0.41100  1.0000
  O   O11       1.0  0.61700  0.29000  0.41600  1.0000
  O   O12       1.0  0.95000  0.22500  0.43800  1.0000
  O   O13       1.0  0.05040  0.77500  0.56200  1.0000
  O   O14       1.0  0.38300  0.71000  0.58400  1.0000
  O   O15       1.0  0.75500  0.07940  0.58900  1.0000
  O   O16       1.0  0.45600  0.34600  0.64900  1.0000
  O   O17       1.0  0.96800  0.46200  0.66200  1.0000
  O   O18       1.0  0.79900  0.71400  0.68500  1.0000
  O   O19       1.0  0.52900  0.11400  0.81500  1.0000
  O   O20       1.0  0.30000  0.30600  0.83800  1.0000
  O   O21       1.0  0.19700  0.80700  0.85100  1.0000
  O   O22       1.0  0.99000  0.16600  0.91100  1.0000
  O   O23       1.0  0.62600  0.79800  0.91600  1.0000
  O   O24       1.0  0.71300  0.48800  0.93800  1.0000
  P   P1        1.0  0.77200  0.72200  0.02320  1.0000
  P   P2        1.0  0.50100  0.69300  0.20000  1.0000
  P   P3        1.0  0.99300  0.30100  0.30000  1.0000
  P   P4        1.0  0.19900  0.74800  0.47700  1.0000
  P   P5        1.0  0.80100  0.25200  0.52300  1.0000
  P   P6        1.0  0.00679  0.69900  0.70000  1.0000
  P   P7        1.0  0.49900  0.30700  0.80000  1.0000
  P   P8        1.0  0.22800  0.27800  0.97700  1.0000
