data_image0
_chemical_formula_structural       S16Sn4Tl16
_chemical_formula_sum              "S16 Sn4 Tl16"
_cell_length_a       8.50834
_cell_length_b       8.39904
_cell_length_c       15.7484
_cell_angle_alpha    90
_cell_angle_beta     104.402
_cell_angle_gamma    90

_space_group_name_H-M_alt    "P 1"
_space_group_IT_number       1

loop_
  _space_group_symop_operation_xyz
  'x, y, z'

loop_
  _atom_site_type_symbol
  _atom_site_label
  _atom_site_symmetry_multiplicity
  _atom_site_fract_x
  _atom_site_fract_y
  _atom_site_fract_z
  _atom_site_occupancy
  S   S1        1.0  0.69400  0.84800  0.03310  1.0000
  S   S2        1.0  0.81800  0.38300  0.03490  1.0000
  S   S3        1.0  0.59800  0.55500  0.20900  1.0000
  S   S4        1.0  0.05260  0.68000  0.21500  1.0000
  S   S5        1.0  0.94700  0.18000  0.28500  1.0000
  S   S6        1.0  0.40200  0.05530  0.29100  1.0000
  S   S7        1.0  0.18200  0.88300  0.46500  1.0000
  S   S8        1.0  0.30600  0.34800  0.46700  1.0000
  S   S9        1.0  0.69400  0.65200  0.53300  1.0000
  S   S10       1.0  0.81800  0.11700  0.53500  1.0000
  S   S11       1.0  0.59800  0.94500  0.70900  1.0000
  S   S12       1.0  0.05260  0.82000  0.71500  1.0000
  S   S13       1.0  0.94700  0.32000  0.78500  1.0000
  S   S14       1.0  0.40200  0.44500  0.79100  1.0000
  S   S15       1.0  0.18200  0.61700  0.96500  1.0000
  S   S16       1.0  0.30600  0.15200  0.96700  1.0000
  Sn  Sn1       1.0  0.78700  0.61500  0.12100  1.0000
  Sn  Sn2       1.0  0.21300  0.11500  0.37900  1.0000
  Sn  Sn3       1.0  0.78700  0.88500  0.62100  1.0000
  Sn  Sn4       1.0  0.21300  0.38500  0.87900  1.0000
  Tl  Tl1       1.0  0.39600  0.82300  0.11100  1.0000
  Tl  Tl2       1.0  0.18900  0.40200  0.12800  1.0000
  Tl  Tl3       1.0  0.02530  0.00970  0.12800  1.0000
  Tl  Tl4       1.0  0.60300  0.21100  0.14000  1.0000
  Tl  Tl5       1.0  0.39700  0.71100  0.36000  1.0000
  Tl  Tl6       1.0  0.97500  0.51000  0.37200  1.0000
  Tl  Tl7       1.0  0.81100  0.90200  0.37200  1.0000
  Tl  Tl8       1.0  0.60400  0.32300  0.38900  1.0000
  Tl  Tl9       1.0  0.39600  0.67700  0.61100  1.0000
  Tl  Tl10      1.0  0.18900  0.09850  0.62800  1.0000
  Tl  Tl11      1.0  0.02530  0.49000  0.62800  1.0000
  Tl  Tl12      1.0  0.60300  0.28900  0.64000  1.0000
  Tl  Tl13      1.0  0.39700  0.78900  0.86000  1.0000
  Tl  Tl14      1.0  0.97500  0.99000  0.87200  1.0000
  Tl  Tl15      1.0  0.81100  0.59800  0.87200  1.0000
  Tl  Tl16      1.0  0.60400  0.17700  0.88900  1.0000
