data_image0
_chemical_formula_structural       Ge4K4Li12O16
_chemical_formula_sum              "Ge4 K4 Li12 O16"
_cell_length_a       10.2418
_cell_length_b       7.45905
_cell_length_c       5.81917
_cell_angle_alpha    100.434
_cell_angle_beta     109.95
_cell_angle_gamma    90.5922

_space_group_name_H-M_alt    "P 1"
_space_group_IT_number       1

loop_
  _space_group_symop_operation_xyz
  'x, y, z'

loop_
  _atom_site_type_symbol
  _atom_site_label
  _atom_site_symmetry_multiplicity
  _atom_site_fract_x
  _atom_site_fract_y
  _atom_site_fract_z
  _atom_site_occupancy
  Ge  Ge1       1.0  0.85100  0.20600  0.18500  1.0000
  Ge  Ge2       1.0  0.36600  0.29100  0.42400  1.0000
  Ge  Ge3       1.0  0.63400  0.70900  0.57600  1.0000
  Ge  Ge4       1.0  0.14900  0.79400  0.81500  1.0000
  K   K1        1.0  0.61500  0.88400  0.11400  1.0000
  K   K2        1.0  0.87200  0.64200  0.33000  1.0000
  K   K3        1.0  0.12800  0.35800  0.67000  1.0000
  K   K4        1.0  0.38500  0.11600  0.88600  1.0000
  Li  Li1       1.0  0.39500  0.55400  0.08010  1.0000
  Li  Li2       1.0  0.11400  0.17800  0.09140  1.0000
  Li  Li3       1.0  0.12400  0.54600  0.19300  1.0000
  Li  Li4       1.0  0.37200  0.92700  0.33700  1.0000
  Li  Li5       1.0  0.64700  0.32300  0.34100  1.0000
  Li  Li6       1.0  0.10200  0.94700  0.41400  1.0000
  Li  Li7       1.0  0.89800  0.05260  0.58600  1.0000
  Li  Li8       1.0  0.35300  0.67700  0.65900  1.0000
  Li  Li9       1.0  0.62800  0.07340  0.66300  1.0000
  Li  Li10      1.0  0.87600  0.45400  0.80700  1.0000
  Li  Li11      1.0  0.88600  0.82200  0.90900  1.0000
  Li  Li12      1.0  0.60500  0.44600  0.92000  1.0000
  O   O1        1.0  0.32600  0.78900  0.00411  1.0000
  O   O2        1.0  0.96700  0.33900  0.10200  1.0000
  O   O3        1.0  0.27700  0.39600  0.16900  1.0000
  O   O4        1.0  0.91000  0.98500  0.21600  1.0000
  O   O5        1.0  0.59300  0.56400  0.27900  1.0000
  O   O6        1.0  0.50900  0.17200  0.38900  1.0000
  O   O7        1.0  0.24200  0.10800  0.39700  1.0000
  O   O8        1.0  0.84900  0.29700  0.49100  1.0000
  O   O9        1.0  0.15100  0.70300  0.50900  1.0000
  O   O10       1.0  0.75800  0.89200  0.60300  1.0000
  O   O11       1.0  0.49100  0.82800  0.61100  1.0000
  O   O12       1.0  0.40700  0.43600  0.72100  1.0000
  O   O13       1.0  0.09020  0.01530  0.78400  1.0000
  O   O14       1.0  0.72300  0.60400  0.83100  1.0000
  O   O15       1.0  0.03350  0.66100  0.89800  1.0000
  O   O16       1.0  0.67400  0.21100  0.99600  1.0000
