data_image0
_chemical_formula_structural       Ga8S20Sn8
_chemical_formula_sum              "Ga8 S20 Sn8"
_cell_length_a       12.5785
_cell_length_b       6.31884
_cell_length_c       10.9567
_cell_angle_alpha    90
_cell_angle_beta     90
_cell_angle_gamma    90

_space_group_name_H-M_alt    "P 1"
_space_group_IT_number       1

loop_
  _space_group_symop_operation_xyz
  'x, y, z'

loop_
  _atom_site_type_symbol
  _atom_site_label
  _atom_site_symmetry_multiplicity
  _atom_site_fract_x
  _atom_site_fract_y
  _atom_site_fract_z
  _atom_site_occupancy
  Ga  Ga1       1.0  0.76800  0.64000  0.11400  1.0000
  Ga  Ga2       1.0  0.26800  0.86000  0.11400  1.0000
  Ga  Ga3       1.0  0.82000  0.14700  0.28200  1.0000
  Ga  Ga4       1.0  0.32000  0.35300  0.28200  1.0000
  Ga  Ga5       1.0  0.73200  0.14000  0.61400  1.0000
  Ga  Ga6       1.0  0.23200  0.36000  0.61400  1.0000
  Ga  Ga7       1.0  0.68000  0.64700  0.78200  1.0000
  Ga  Ga8       1.0  0.18000  0.85300  0.78200  1.0000
  S   S1        1.0  0.94000  0.63800  0.03550  1.0000
  S   S2        1.0  0.44000  0.86200  0.03550  1.0000
  S   S3        1.0  0.21400  0.51300  0.13700  1.0000
  S   S4        1.0  0.71400  0.98700  0.13700  1.0000
  S   S5        1.0  0.99600  0.13700  0.22300  1.0000
  S   S6        1.0  0.49600  0.36300  0.22300  1.0000
  S   S7        1.0  0.27500  0.00790  0.30400  1.0000
  S   S8        1.0  0.77500  0.49200  0.30400  1.0000
  S   S9        1.0  0.32900  0.53300  0.46600  1.0000
  S   S10       1.0  0.82900  0.96700  0.46600  1.0000
  S   S11       1.0  0.56000  0.13800  0.53500  1.0000
  S   S12       1.0  0.06030  0.36200  0.53500  1.0000
  S   S13       1.0  0.28600  0.01310  0.63700  1.0000
  S   S14       1.0  0.78600  0.48700  0.63700  1.0000
  S   S15       1.0  0.50400  0.63700  0.72300  1.0000
  S   S16       1.0  0.00373  0.86300  0.72300  1.0000
  S   S17       1.0  0.22500  0.50800  0.80400  1.0000
  S   S18       1.0  0.72500  0.99200  0.80400  1.0000
  S   S19       1.0  0.17100  0.03270  0.96600  1.0000
  S   S20       1.0  0.67100  0.46700  0.96600  1.0000
  Sn  Sn1       1.0  0.01990  0.55300  0.25700  1.0000
  Sn  Sn2       1.0  0.52000  0.94700  0.25700  1.0000
  Sn  Sn3       1.0  0.54300  0.54700  0.48100  1.0000
  Sn  Sn4       1.0  0.04280  0.95300  0.48100  1.0000
  Sn  Sn5       1.0  0.48000  0.05280  0.75700  1.0000
  Sn  Sn6       1.0  0.98000  0.44700  0.75700  1.0000
  Sn  Sn7       1.0  0.95700  0.04660  0.98100  1.0000
  Sn  Sn8       1.0  0.45700  0.45300  0.98100  1.0000
