data_image0
_chemical_formula_structural       F4H12O16S4
_chemical_formula_sum              "F4 H12 O16 S4"
_cell_length_a       7.56004
_cell_length_b       6.12624
_cell_length_c       6.97292
_cell_angle_alpha    90
_cell_angle_beta     90
_cell_angle_gamma    90

_space_group_name_H-M_alt    "P 1"
_space_group_IT_number       1

loop_
  _space_group_symop_operation_xyz
  'x, y, z'

loop_
  _atom_site_type_symbol
  _atom_site_label
  _atom_site_symmetry_multiplicity
  _atom_site_fract_x
  _atom_site_fract_y
  _atom_site_fract_z
  _atom_site_occupancy
  F   F1        1.0  0.23800  0.25000  0.07440  1.0000
  F   F2        1.0  0.73800  0.25000  0.42600  1.0000
  F   F3        1.0  0.26200  0.75000  0.57400  1.0000
  F   F4        1.0  0.76200  0.75000  0.92600  1.0000
  H   H1        1.0  0.25400  0.75000  0.08720  1.0000
  H   H2        1.0  0.42700  0.61600  0.18300  1.0000
  H   H3        1.0  0.42700  0.88400  0.18300  1.0000
  H   H4        1.0  0.92700  0.61600  0.31700  1.0000
  H   H5        1.0  0.92700  0.88400  0.31700  1.0000
  H   H6        1.0  0.75400  0.75000  0.41300  1.0000
  H   H7        1.0  0.24600  0.25000  0.58700  1.0000
  H   H8        1.0  0.07340  0.11600  0.68300  1.0000
  H   H9        1.0  0.07340  0.38400  0.68300  1.0000
  H   H10       1.0  0.57300  0.11600  0.81700  1.0000
  H   H11       1.0  0.57300  0.38400  0.81700  1.0000
  H   H12       1.0  0.74600  0.25000  0.91300  1.0000
  O   O1        1.0  0.92300  0.25000  0.04610  1.0000
  O   O2        1.0  0.34600  0.75000  0.18900  1.0000
  O   O3        1.0  0.57200  0.05200  0.19400  1.0000
  O   O4        1.0  0.57200  0.44800  0.19400  1.0000
  O   O5        1.0  0.07180  0.05200  0.30600  1.0000
  O   O6        1.0  0.07180  0.44800  0.30600  1.0000
  O   O7        1.0  0.84600  0.75000  0.31100  1.0000
  O   O8        1.0  0.42300  0.25000  0.45400  1.0000
  O   O9        1.0  0.57700  0.75000  0.54600  1.0000
  O   O10       1.0  0.15400  0.25000  0.68900  1.0000
  O   O11       1.0  0.92800  0.55200  0.69400  1.0000
  O   O12       1.0  0.92800  0.94800  0.69400  1.0000
  O   O13       1.0  0.42800  0.55200  0.80600  1.0000
  O   O14       1.0  0.42800  0.94800  0.80600  1.0000
  O   O15       1.0  0.65400  0.25000  0.81100  1.0000
  O   O16       1.0  0.07710  0.75000  0.95400  1.0000
  S   S1        1.0  0.05670  0.25000  0.19300  1.0000
  S   S2        1.0  0.55700  0.25000  0.30700  1.0000
  S   S3        1.0  0.44300  0.75000  0.69300  1.0000
  S   S4        1.0  0.94300  0.75000  0.80700  1.0000
