data_image0
_chemical_formula_structural       Na6O22P6Th2
_chemical_formula_sum              "Na6 O22 P6 Th2"
_cell_length_a       8.69113
_cell_length_b       8.89475
_cell_length_c       6.42985
_cell_angle_alpha    92.5711
_cell_angle_beta     106.338
_cell_angle_gamma    110.2

_space_group_name_H-M_alt    "P 1"
_space_group_IT_number       1

loop_
  _space_group_symop_operation_xyz
  'x, y, z'

loop_
  _atom_site_type_symbol
  _atom_site_label
  _atom_site_symmetry_multiplicity
  _atom_site_fract_x
  _atom_site_fract_y
  _atom_site_fract_z
  _atom_site_occupancy
  Na  Na1       1.0  0.58100  0.02970  0.29400  1.0000
  Na  Na2       1.0  0.98600  0.12900  0.36000  1.0000
  Na  Na3       1.0  0.18300  0.57200  0.41200  1.0000
  Na  Na4       1.0  0.81700  0.42800  0.58800  1.0000
  Na  Na5       1.0  0.01360  0.87100  0.64000  1.0000
  Na  Na6       1.0  0.41900  0.97000  0.70600  1.0000
  O   O1        1.0  0.03120  0.15800  0.00032  1.0000
  O   O2        1.0  0.80400  0.53700  0.07920  1.0000
  O   O3        1.0  0.28600  0.00000  0.08690  1.0000
  O   O4        1.0  0.59800  0.25100  0.09000  1.0000
  O   O5        1.0  0.18300  0.70200  0.11100  1.0000
  O   O6        1.0  0.53000  0.56000  0.22000  1.0000
  O   O7        1.0  0.73700  0.83900  0.30800  1.0000
  O   O8        1.0  0.91300  0.35100  0.31000  1.0000
  O   O9        1.0  0.16600  0.88700  0.39400  1.0000
  O   O10       1.0  0.25500  0.34200  0.39600  1.0000
  O   O11       1.0  0.49400  0.24200  0.49100  1.0000
  O   O12       1.0  0.50600  0.75800  0.50900  1.0000
  O   O13       1.0  0.74500  0.65800  0.60400  1.0000
  O   O14       1.0  0.83400  0.11300  0.60600  1.0000
  O   O15       1.0  0.08740  0.64900  0.69000  1.0000
  O   O16       1.0  0.26300  0.16100  0.69200  1.0000
  O   O17       1.0  0.47000  0.44000  0.78000  1.0000
  O   O18       1.0  0.81700  0.29800  0.88900  1.0000
  O   O19       1.0  0.40200  0.74900  0.91000  1.0000
  O   O20       1.0  0.71400  0.00027  0.91300  1.0000
  O   O21       1.0  0.19600  0.46300  0.92100  1.0000
  O   O22       1.0  0.96900  0.84200  0.00000  1.0000
  P   P1        1.0  0.78300  0.36300  0.10600  1.0000
  P   P2        1.0  0.14800  0.86800  0.15500  1.0000
  P   P3        1.0  0.62600  0.70500  0.41200  1.0000
  P   P4        1.0  0.37400  0.29500  0.58800  1.0000
  P   P5        1.0  0.85200  0.13200  0.84500  1.0000
  P   P6        1.0  0.21700  0.63700  0.89400  1.0000
  Th  Th1       1.0  0.33400  0.28800  0.07270  1.0000
  Th  Th2       1.0  0.66600  0.71200  0.92700  1.0000
