data_image0
_chemical_formula_structural       Nb8O24Zn4
_chemical_formula_sum              "Nb8 O24 Zn4"
_cell_length_a       14.2421
_cell_length_b       5.74775
_cell_length_c       5.04258
_cell_angle_alpha    90
_cell_angle_beta     90
_cell_angle_gamma    90

_space_group_name_H-M_alt    "P 1"
_space_group_IT_number       1

loop_
  _space_group_symop_operation_xyz
  'x, y, z'

loop_
  _atom_site_type_symbol
  _atom_site_label
  _atom_site_symmetry_multiplicity
  _atom_site_fract_x
  _atom_site_fract_y
  _atom_site_fract_z
  _atom_site_occupancy
  Nb  Nb1       1.0  0.66000  0.31500  0.25000  1.0000
  Nb  Nb2       1.0  0.84000  0.81500  0.25000  1.0000
  Nb  Nb3       1.0  0.34000  0.31500  0.25000  1.0000
  Nb  Nb4       1.0  0.16000  0.81500  0.25000  1.0000
  Nb  Nb5       1.0  0.84000  0.18500  0.75000  1.0000
  Nb  Nb6       1.0  0.66000  0.68500  0.75000  1.0000
  Nb  Nb7       1.0  0.16000  0.18500  0.75000  1.0000
  Nb  Nb8       1.0  0.34000  0.68500  0.75000  1.0000
  O   O1        1.0  0.09440  0.10400  0.07510  1.0000
  O   O2        1.0  0.40600  0.60400  0.07510  1.0000
  O   O3        1.0  0.75500  0.12100  0.07740  1.0000
  O   O4        1.0  0.74500  0.62100  0.07740  1.0000
  O   O5        1.0  0.42100  0.11300  0.08530  1.0000
  O   O6        1.0  0.07940  0.61300  0.08530  1.0000
  O   O7        1.0  0.57900  0.11300  0.41500  1.0000
  O   O8        1.0  0.92100  0.61300  0.41500  1.0000
  O   O9        1.0  0.24500  0.12100  0.42300  1.0000
  O   O10       1.0  0.25500  0.62100  0.42300  1.0000
  O   O11       1.0  0.90600  0.10400  0.42500  1.0000
  O   O12       1.0  0.59400  0.60400  0.42500  1.0000
  O   O13       1.0  0.40600  0.39600  0.57500  1.0000
  O   O14       1.0  0.09440  0.89600  0.57500  1.0000
  O   O15       1.0  0.74500  0.37900  0.57700  1.0000
  O   O16       1.0  0.75500  0.87900  0.57700  1.0000
  O   O17       1.0  0.07940  0.38700  0.58500  1.0000
  O   O18       1.0  0.42100  0.88700  0.58500  1.0000
  O   O19       1.0  0.92100  0.38700  0.91500  1.0000
  O   O20       1.0  0.57900  0.88700  0.91500  1.0000
  O   O21       1.0  0.25500  0.37900  0.92300  1.0000
  O   O22       1.0  0.24500  0.87900  0.92300  1.0000
  O   O23       1.0  0.59400  0.39600  0.92500  1.0000
  O   O24       1.0  0.90600  0.89600  0.92500  1.0000
  Zn  Zn1       1.0  0.00000  0.32900  0.25000  1.0000
  Zn  Zn2       1.0  0.50000  0.82900  0.25000  1.0000
  Zn  Zn3       1.0  0.50000  0.17100  0.75000  1.0000
  Zn  Zn4       1.0  0.00000  0.67100  0.75000  1.0000
