data_image0
_chemical_formula_structural       Co4O11
_chemical_formula_sum              "Co4 O11"
_cell_length_a       9.52563
_cell_length_b       4.75328
_cell_length_c       4.53438
_cell_angle_alpha    101.018
_cell_angle_beta     101.795
_cell_angle_gamma    119.744

_space_group_name_H-M_alt    "P 1"
_space_group_IT_number       1

loop_
  _space_group_symop_operation_xyz
  'x, y, z'

loop_
  _atom_site_type_symbol
  _atom_site_label
  _atom_site_symmetry_multiplicity
  _atom_site_fract_x
  _atom_site_fract_y
  _atom_site_fract_z
  _atom_site_occupancy
  Co  Co1       1.0  0.58000  0.83300  0.00435  1.0000
  Co  Co2       1.0  0.89200  0.16100  0.97200  1.0000
  Co  Co3       1.0  0.08630  0.80800  0.98200  1.0000
  Co  Co4       1.0  0.41700  0.16600  0.99900  1.0000
  O   O1        1.0  0.79600  0.94800  0.22700  1.0000
  O   O2        1.0  0.46700  0.58400  0.22800  1.0000
  O   O3        1.0  0.98300  0.58100  0.23800  1.0000
  O   O4        1.0  0.61300  0.22600  0.24100  1.0000
  O   O5        1.0  0.29100  0.96800  0.24500  1.0000
  O   O6        1.0  0.69500  0.05170  0.74400  1.0000
  O   O7        1.0  0.38300  0.77100  0.76500  1.0000
  O   O8        1.0  0.20900  0.06000  0.76600  1.0000
  O   O9        1.0  0.53200  0.42000  0.77400  1.0000
  O   O10       1.0  0.03630  0.39500  0.78300  1.0000
  O   O11       1.0  0.90600  0.80200  0.79700  1.0000
