data_image0
_chemical_formula_structural       Ge4O11
_chemical_formula_sum              "Ge4 O11"
_cell_length_a       10.5194
_cell_length_b       5.02481
_cell_length_c       4.72176
_cell_angle_alpha    112.412
_cell_angle_beta     102.85
_cell_angle_gamma    121.662

_space_group_name_H-M_alt    "P 1"
_space_group_IT_number       1

loop_
  _space_group_symop_operation_xyz
  'x, y, z'

loop_
  _atom_site_type_symbol
  _atom_site_label
  _atom_site_symmetry_multiplicity
  _atom_site_fract_x
  _atom_site_fract_y
  _atom_site_fract_z
  _atom_site_occupancy
  Ge  Ge1       1.0  0.41200  0.21200  0.03790  1.0000
  Ge  Ge2       1.0  0.58500  0.94400  0.04150  1.0000
  Ge  Ge3       1.0  0.85400  0.94000  0.79500  1.0000
  Ge  Ge4       1.0  0.07890  0.71500  0.96100  1.0000
  O   O1        1.0  0.06720  0.44300  0.12200  1.0000
  O   O2        1.0  0.79400  0.03020  0.17900  1.0000
  O   O3        1.0  0.65900  0.44200  0.33900  1.0000
  O   O4        1.0  0.52700  0.77600  0.34300  1.0000
  O   O5        1.0  0.34600  0.18300  0.38200  1.0000
  O   O6        1.0  0.91800  0.16500  0.52000  1.0000
  O   O7        1.0  0.66900  0.00613  0.71300  1.0000
  O   O8        1.0  0.48100  0.38600  0.75100  1.0000
  O   O9        1.0  0.18300  0.98000  0.80200  1.0000
  O   O10       1.0  0.37400  0.77600  0.80300  1.0000
  O   O11       1.0  0.91800  0.73400  0.94900  1.0000
