data_image0
_chemical_formula_structural       Cu4La3O2P4
_chemical_formula_sum              "Cu4 La3 O2 P4"
_cell_length_a       4.04125
_cell_length_b       4.04125
_cell_length_c       13.6799
_cell_angle_alpha    98.4941
_cell_angle_beta     98.4941
_cell_angle_gamma    90

_space_group_name_H-M_alt    "P 1"
_space_group_IT_number       1

loop_
  _space_group_symop_operation_xyz
  'x, y, z'

loop_
  _atom_site_type_symbol
  _atom_site_label
  _atom_site_symmetry_multiplicity
  _atom_site_fract_x
  _atom_site_fract_y
  _atom_site_fract_z
  _atom_site_occupancy
  Cu  Cu1       1.0  0.59400  0.09440  0.18900  1.0000
  Cu  Cu2       1.0  0.09440  0.59400  0.18900  1.0000
  Cu  Cu3       1.0  0.90600  0.40600  0.81100  1.0000
  Cu  Cu4       1.0  0.40600  0.90600  0.81100  1.0000
  La  La1       1.0  0.00000  0.00000  0.00000  1.0000
  La  La2       1.0  0.70400  0.70400  0.40800  1.0000
  La  La3       1.0  0.29600  0.29600  0.59200  1.0000
  O   O1        1.0  0.75000  0.25000  0.50000  1.0000
  O   O2        1.0  0.25000  0.75000  0.50000  1.0000
  P   P1        1.0  0.54200  0.54200  0.08380  1.0000
  P   P2        1.0  0.13800  0.13800  0.27700  1.0000
  P   P3        1.0  0.86200  0.86200  0.72300  1.0000
  P   P4        1.0  0.45800  0.45800  0.91600  1.0000
