data_image0
_chemical_formula_structural       Cl12Cs8O12Re4
_chemical_formula_sum              "Cl12 Cs8 O12 Re4"
_cell_length_a       10.5935
_cell_length_b       12.4622
_cell_length_c       6.89735
_cell_angle_alpha    90
_cell_angle_beta     90
_cell_angle_gamma    90

_space_group_name_H-M_alt    "P 1"
_space_group_IT_number       1

loop_
  _space_group_symop_operation_xyz
  'x, y, z'

loop_
  _atom_site_type_symbol
  _atom_site_label
  _atom_site_symmetry_multiplicity
  _atom_site_fract_x
  _atom_site_fract_y
  _atom_site_fract_z
  _atom_site_occupancy
  Cl  Cl1       1.0  0.32400  0.16900  0.01840  1.0000
  Cl  Cl2       1.0  0.82400  0.33100  0.01840  1.0000
  Cl  Cl3       1.0  0.88000  0.55500  0.25000  1.0000
  Cl  Cl4       1.0  0.38000  0.94500  0.25000  1.0000
  Cl  Cl5       1.0  0.32400  0.16900  0.48200  1.0000
  Cl  Cl6       1.0  0.82400  0.33100  0.48200  1.0000
  Cl  Cl7       1.0  0.17600  0.66900  0.51800  1.0000
  Cl  Cl8       1.0  0.67600  0.83100  0.51800  1.0000
  Cl  Cl9       1.0  0.62000  0.05500  0.75000  1.0000
  Cl  Cl10      1.0  0.12000  0.44500  0.75000  1.0000
  Cl  Cl11      1.0  0.17600  0.66900  0.98200  1.0000
  Cl  Cl12      1.0  0.67600  0.83100  0.98200  1.0000
  Cs  Cs1       1.0  0.65600  0.08880  0.25000  1.0000
  Cs  Cs2       1.0  0.15600  0.41100  0.25000  1.0000
  Cs  Cs3       1.0  0.46600  0.68100  0.25000  1.0000
  Cs  Cs4       1.0  0.96600  0.81900  0.25000  1.0000
  Cs  Cs5       1.0  0.03390  0.18100  0.75000  1.0000
  Cs  Cs6       1.0  0.53400  0.31900  0.75000  1.0000
  Cs  Cs7       1.0  0.84400  0.58900  0.75000  1.0000
  Cs  Cs8       1.0  0.34400  0.91100  0.75000  1.0000
  O   O1        1.0  0.63300  0.50800  0.05060  1.0000
  O   O2        1.0  0.13300  0.99200  0.05060  1.0000
  O   O3        1.0  0.08370  0.17500  0.25000  1.0000
  O   O4        1.0  0.58400  0.32500  0.25000  1.0000
  O   O5        1.0  0.63300  0.50800  0.44900  1.0000
  O   O6        1.0  0.13300  0.99200  0.44900  1.0000
  O   O7        1.0  0.86700  0.00811  0.55100  1.0000
  O   O8        1.0  0.36700  0.49200  0.55100  1.0000
  O   O9        1.0  0.41600  0.67500  0.75000  1.0000
  O   O10       1.0  0.91600  0.82500  0.75000  1.0000
  O   O11       1.0  0.86700  0.00811  0.94900  1.0000
  O   O12       1.0  0.36700  0.49200  0.94900  1.0000
  Re  Re1       1.0  0.18800  0.06580  0.25000  1.0000
  Re  Re2       1.0  0.68800  0.43400  0.25000  1.0000
  Re  Re3       1.0  0.31200  0.56600  0.75000  1.0000
  Re  Re4       1.0  0.81200  0.93400  0.75000  1.0000
