data_image0
_chemical_formula_structural       O11Pd4
_chemical_formula_sum              "O11 Pd4"
_cell_length_a       10.8791
_cell_length_b       5.34645
_cell_length_c       4.8837
_cell_angle_alpha    110.701
_cell_angle_beta     109.635
_cell_angle_gamma    121.547

_space_group_name_H-M_alt    "P 1"
_space_group_IT_number       1

loop_
  _space_group_symop_operation_xyz
  'x, y, z'

loop_
  _atom_site_type_symbol
  _atom_site_label
  _atom_site_symmetry_multiplicity
  _atom_site_fract_x
  _atom_site_fract_y
  _atom_site_fract_z
  _atom_site_occupancy
  O   O1        1.0  0.68800  0.38400  0.29700  1.0000
  O   O2        1.0  0.51000  0.69400  0.30600  1.0000
  O   O3        1.0  0.85200  0.03530  0.30900  1.0000
  O   O4        1.0  0.20400  0.40600  0.31600  1.0000
  O   O5        1.0  0.02570  0.70200  0.31600  1.0000
  O   O6        1.0  0.42700  0.26100  0.60200  1.0000
  O   O7        1.0  0.79500  0.58900  0.68800  1.0000
  O   O8        1.0  0.65600  0.97000  0.70000  1.0000
  O   O9        1.0  0.30400  0.61500  0.70400  1.0000
  O   O10       1.0  0.99800  0.31400  0.70600  1.0000
  O   O11       1.0  0.16400  0.99000  0.71600  1.0000
  Pd  Pd1       1.0  0.92500  0.15300  0.00011  1.0000
  Pd  Pd2       1.0  0.42200  0.17200  0.00951  1.0000
  Pd  Pd3       1.0  0.10600  0.86500  0.03140  1.0000
  Pd  Pd4       1.0  0.57500  0.82500  0.98700  1.0000
