data_image0
_chemical_formula_structural       Cr4O8Rb
_chemical_formula_sum              "Cr4 O8 Rb1"
_cell_length_a       2.98252
_cell_length_b       7.10677
_cell_length_c       7.1373
_cell_angle_alpha    92.6774
_cell_angle_beta     77.9398
_cell_angle_gamma    102.113

_space_group_name_H-M_alt    "P 1"
_space_group_IT_number       1

loop_
  _space_group_symop_operation_xyz
  'x, y, z'

loop_
  _atom_site_type_symbol
  _atom_site_label
  _atom_site_symmetry_multiplicity
  _atom_site_fract_x
  _atom_site_fract_y
  _atom_site_fract_z
  _atom_site_occupancy
  Cr  Cr1       1.0  0.65300  0.49000  0.18300  1.0000
  Cr  Cr2       1.0  0.16300  0.81600  0.49000  1.0000
  Cr  Cr3       1.0  0.83700  0.18400  0.51000  1.0000
  Cr  Cr4       1.0  0.34700  0.51000  0.81700  1.0000
  O   O1        1.0  0.15400  0.35600  0.04870  1.0000
  O   O2        1.0  0.16300  0.62500  0.29800  1.0000
  O   O3        1.0  0.79700  0.95100  0.35800  1.0000
  O   O4        1.0  0.46100  0.29800  0.37600  1.0000
  O   O5        1.0  0.53900  0.70200  0.62400  1.0000
  O   O6        1.0  0.20300  0.04900  0.64200  1.0000
  O   O7        1.0  0.83700  0.37500  0.70200  1.0000
  O   O8        1.0  0.84600  0.64400  0.95100  1.0000
  Rb  Rb1       1.0  0.50000  0.00000  0.00000  1.0000
