data_image0
_chemical_formula_structural       O5Sn2
_chemical_formula_sum              "O5 Sn2"
_cell_length_a       5.50212
_cell_length_b       5.50212
_cell_length_c       5.33827
_cell_angle_alpha    109.786
_cell_angle_beta     109.786
_cell_angle_gamma    116.801

_space_group_name_H-M_alt    "P 1"
_space_group_IT_number       1

loop_
  _space_group_symop_operation_xyz
  'x, y, z'

loop_
  _atom_site_type_symbol
  _atom_site_label
  _atom_site_symmetry_multiplicity
  _atom_site_fract_x
  _atom_site_fract_y
  _atom_site_fract_z
  _atom_site_occupancy
  O   O1        1.0  0.62200  0.20300  0.26500  1.0000
  O   O2        1.0  0.20300  0.62200  0.26500  1.0000
  O   O3        1.0  0.92300  0.27600  0.68300  1.0000
  O   O4        1.0  0.27600  0.92300  0.68300  1.0000
  O   O5        1.0  0.78700  0.78700  0.93500  1.0000
  Sn  Sn1       1.0  0.76900  0.13900  0.95100  1.0000
  Sn  Sn2       1.0  0.13900  0.76900  0.95100  1.0000
