data_image0
_chemical_formula_structural       Cd8Cl4H12O12
_chemical_formula_sum              "Cd8 Cl4 H12 O12"
_cell_length_a       6.75695
_cell_length_b       7.39526
_cell_length_c       9.87431
_cell_angle_alpha    90
_cell_angle_beta     90
_cell_angle_gamma    90

_space_group_name_H-M_alt    "P 1"
_space_group_IT_number       1

loop_
  _space_group_symop_operation_xyz
  'x, y, z'

loop_
  _atom_site_type_symbol
  _atom_site_label
  _atom_site_symmetry_multiplicity
  _atom_site_fract_x
  _atom_site_fract_y
  _atom_site_fract_z
  _atom_site_occupancy
  Cd  Cd1       1.0  0.00000  0.00000  0.00000  1.0000
  Cd  Cd2       1.0  0.00000  0.50000  0.00000  1.0000
  Cd  Cd3       1.0  0.68500  0.25000  0.23200  1.0000
  Cd  Cd4       1.0  0.18500  0.25000  0.26800  1.0000
  Cd  Cd5       1.0  0.50000  0.00000  0.50000  1.0000
  Cd  Cd6       1.0  0.50000  0.50000  0.50000  1.0000
  Cd  Cd7       1.0  0.81500  0.75000  0.73200  1.0000
  Cd  Cd8       1.0  0.31500  0.75000  0.76800  1.0000
  Cl  Cl1       1.0  0.31600  0.75000  0.04440  1.0000
  Cl  Cl2       1.0  0.81600  0.75000  0.45600  1.0000
  Cl  Cl3       1.0  0.18400  0.25000  0.54400  1.0000
  Cl  Cl4       1.0  0.68400  0.25000  0.95600  1.0000
  H   H1        1.0  0.68000  0.75000  0.00989  1.0000
  H   H2        1.0  0.41800  0.55500  0.21800  1.0000
  H   H3        1.0  0.41800  0.94500  0.21800  1.0000
  H   H4        1.0  0.91800  0.55500  0.28200  1.0000
  H   H5        1.0  0.91800  0.94500  0.28200  1.0000
  H   H6        1.0  0.18000  0.75000  0.49000  1.0000
  H   H7        1.0  0.82000  0.25000  0.51000  1.0000
  H   H8        1.0  0.08160  0.05500  0.71800  1.0000
  H   H9        1.0  0.08160  0.44500  0.71800  1.0000
  H   H10       1.0  0.58200  0.05500  0.78200  1.0000
  H   H11       1.0  0.58200  0.44500  0.78200  1.0000
  H   H12       1.0  0.32000  0.25000  0.99000  1.0000
  O   O1        1.0  0.18600  0.25000  0.02870  1.0000
  O   O2        1.0  0.94000  0.04760  0.22100  1.0000
  O   O3        1.0  0.94000  0.45200  0.22100  1.0000
  O   O4        1.0  0.44000  0.04760  0.27900  1.0000
  O   O5        1.0  0.44000  0.45200  0.27900  1.0000
  O   O6        1.0  0.68600  0.25000  0.47100  1.0000
  O   O7        1.0  0.31400  0.75000  0.52900  1.0000
  O   O8        1.0  0.56000  0.54800  0.72100  1.0000
  O   O9        1.0  0.56000  0.95200  0.72100  1.0000
  O   O10       1.0  0.06010  0.54800  0.77900  1.0000
  O   O11       1.0  0.06010  0.95200  0.77900  1.0000
  O   O12       1.0  0.81400  0.75000  0.97100  1.0000
