data_image0
_chemical_formula_structural       F18I15Sb3
_chemical_formula_sum              "F18 I15 Sb3"
_cell_length_a       7.86879
_cell_length_b       15.0681
_cell_length_c       8.05091
_cell_angle_alpha    82.3663
_cell_angle_beta     109.35
_cell_angle_gamma    83.7016

_space_group_name_H-M_alt    "P 1"
_space_group_IT_number       1

loop_
  _space_group_symop_operation_xyz
  'x, y, z'

loop_
  _atom_site_type_symbol
  _atom_site_label
  _atom_site_symmetry_multiplicity
  _atom_site_fract_x
  _atom_site_fract_y
  _atom_site_fract_z
  _atom_site_occupancy
  F   F1        1.0  0.58400  0.74500  0.02280  1.0000
  F   F2        1.0  0.24200  0.72800  0.03040  1.0000
  F   F3        1.0  0.57200  0.40600  0.05970  1.0000
  F   F4        1.0  0.88900  0.91300  0.11200  1.0000
  F   F5        1.0  0.23500  0.93200  0.14000  1.0000
  F   F6        1.0  0.01410  0.07170  0.18300  1.0000
  F   F7        1.0  0.72300  0.58600  0.24300  1.0000
  F   F8        1.0  0.39700  0.56300  0.26700  1.0000
  F   F9        1.0  0.52300  0.71700  0.33700  1.0000
  F   F10       1.0  0.47700  0.28300  0.66300  1.0000
  F   F11       1.0  0.60300  0.43700  0.73300  1.0000
  F   F12       1.0  0.27700  0.41400  0.75700  1.0000
  F   F13       1.0  0.98600  0.92800  0.81700  1.0000
  F   F14       1.0  0.76500  0.06800  0.86000  1.0000
  F   F15       1.0  0.11100  0.08660  0.88800  1.0000
  F   F16       1.0  0.42800  0.59400  0.94000  1.0000
  F   F17       1.0  0.75800  0.27200  0.97000  1.0000
  F   F18       1.0  0.41600  0.25500  0.97700  1.0000
  I   I1        1.0  0.00000  0.50000  0.00000  1.0000
  I   I2        1.0  0.54000  0.06810  0.16900  1.0000
  I   I3        1.0  0.14700  0.23700  0.25900  1.0000
  I   I4        1.0  0.30700  0.38900  0.28600  1.0000
  I   I5        1.0  0.02530  0.73800  0.31900  1.0000
  I   I6        1.0  0.66300  0.90800  0.42100  1.0000
  I   I7        1.0  0.75700  0.16300  0.42200  1.0000
  I   I8        1.0  0.83600  0.42100  0.45600  1.0000
  I   I9        1.0  0.16400  0.57900  0.54400  1.0000
  I   I10       1.0  0.24300  0.83700  0.57800  1.0000
  I   I11       1.0  0.33700  0.09170  0.57900  1.0000
  I   I12       1.0  0.97500  0.26200  0.68100  1.0000
  I   I13       1.0  0.69300  0.61100  0.71400  1.0000
  I   I14       1.0  0.85300  0.76300  0.74100  1.0000
  I   I15       1.0  0.46000  0.93200  0.83100  1.0000
  Sb  Sb1       1.0  0.00000  0.00000  0.00000  1.0000
  Sb  Sb2       1.0  0.48000  0.65700  0.13700  1.0000
  Sb  Sb3       1.0  0.52000  0.34300  0.86300  1.0000
