data_image0
_chemical_formula_structural       Ba4O20Y8Zn4
_chemical_formula_sum              "Ba4 O20 Y8 Zn4"
_cell_length_a       7.08279
_cell_length_b       12.3407
_cell_length_c       5.71917
_cell_angle_alpha    90
_cell_angle_beta     90
_cell_angle_gamma    90

_space_group_name_H-M_alt    "P 1"
_space_group_IT_number       1

loop_
  _space_group_symop_operation_xyz
  'x, y, z'

loop_
  _atom_site_type_symbol
  _atom_site_label
  _atom_site_symmetry_multiplicity
  _atom_site_fract_x
  _atom_site_fract_y
  _atom_site_fract_z
  _atom_site_occupancy
  Ba  Ba1       1.0  0.57800  0.39900  0.25000  1.0000
  Ba  Ba2       1.0  0.92200  0.89900  0.25000  1.0000
  Ba  Ba3       1.0  0.07820  0.10100  0.75000  1.0000
  Ba  Ba4       1.0  0.42200  0.60100  0.75000  1.0000
  O   O1        1.0  0.85900  0.27500  0.00096  1.0000
  O   O2        1.0  0.64100  0.77500  0.00096  1.0000
  O   O3        1.0  0.66600  0.06510  0.00234  1.0000
  O   O4        1.0  0.83400  0.56500  0.00234  1.0000
  O   O5        1.0  0.07570  0.10000  0.25000  1.0000
  O   O6        1.0  0.42400  0.60000  0.25000  1.0000
  O   O7        1.0  0.66600  0.06510  0.49800  1.0000
  O   O8        1.0  0.83400  0.56500  0.49800  1.0000
  O   O9        1.0  0.85900  0.27500  0.49900  1.0000
  O   O10       1.0  0.64100  0.77500  0.49900  1.0000
  O   O11       1.0  0.35900  0.22500  0.50100  1.0000
  O   O12       1.0  0.14100  0.72500  0.50100  1.0000
  O   O13       1.0  0.16600  0.43500  0.50200  1.0000
  O   O14       1.0  0.33400  0.93500  0.50200  1.0000
  O   O15       1.0  0.57600  0.40000  0.75000  1.0000
  O   O16       1.0  0.92400  0.90000  0.75000  1.0000
  O   O17       1.0  0.16600  0.43500  0.99800  1.0000
  O   O18       1.0  0.33400  0.93500  0.99800  1.0000
  O   O19       1.0  0.35900  0.22500  0.99900  1.0000
  O   O20       1.0  0.14100  0.72500  0.99900  1.0000
  Y   Y1        1.0  0.40000  0.07450  0.25000  1.0000
  Y   Y2        1.0  0.12100  0.29200  0.25000  1.0000
  Y   Y3        1.0  0.09980  0.57500  0.25000  1.0000
  Y   Y4        1.0  0.37900  0.79200  0.25000  1.0000
  Y   Y5        1.0  0.62100  0.20800  0.75000  1.0000
  Y   Y6        1.0  0.90000  0.42500  0.75000  1.0000
  Y   Y7        1.0  0.87900  0.70800  0.75000  1.0000
  Y   Y8        1.0  0.60000  0.92500  0.75000  1.0000
  Zn  Zn1       1.0  0.80900  0.15000  0.25000  1.0000
  Zn  Zn2       1.0  0.69100  0.65000  0.25000  1.0000
  Zn  Zn3       1.0  0.30900  0.35000  0.75000  1.0000
  Zn  Zn4       1.0  0.19100  0.85000  0.75000  1.0000
