data_image0
_chemical_formula_structural       Pb8S20Sb8
_chemical_formula_sum              "Pb8 S20 Sb8"
_cell_length_a       20.5549
_cell_length_b       4.02022
_cell_length_c       11.3713
_cell_angle_alpha    90
_cell_angle_beta     90
_cell_angle_gamma    90

_space_group_name_H-M_alt    "P 1"
_space_group_IT_number       1

loop_
  _space_group_symop_operation_xyz
  'x, y, z'

loop_
  _atom_site_type_symbol
  _atom_site_label
  _atom_site_symmetry_multiplicity
  _atom_site_fract_x
  _atom_site_fract_y
  _atom_site_fract_z
  _atom_site_occupancy
  Pb  Pb1       1.0  0.40800  0.75000  0.00490  1.0000
  Pb  Pb2       1.0  0.20600  0.25000  0.16900  1.0000
  Pb  Pb3       1.0  0.70600  0.25000  0.33100  1.0000
  Pb  Pb4       1.0  0.90800  0.75000  0.49500  1.0000
  Pb  Pb5       1.0  0.09250  0.25000  0.50500  1.0000
  Pb  Pb6       1.0  0.29400  0.75000  0.66900  1.0000
  Pb  Pb7       1.0  0.79400  0.75000  0.83100  1.0000
  Pb  Pb8       1.0  0.59200  0.25000  0.99500  1.0000
  S   S1        1.0  0.76600  0.25000  0.00553  1.0000
  S   S2        1.0  0.07800  0.25000  0.06740  1.0000
  S   S3        1.0  0.48100  0.25000  0.14000  1.0000
  S   S4        1.0  0.63100  0.75000  0.18000  1.0000
  S   S5        1.0  0.83000  0.75000  0.24900  1.0000
  S   S6        1.0  0.33000  0.75000  0.25100  1.0000
  S   S7        1.0  0.13100  0.75000  0.32000  1.0000
  S   S8        1.0  0.98100  0.25000  0.36000  1.0000
  S   S9        1.0  0.57800  0.25000  0.43300  1.0000
  S   S10       1.0  0.26600  0.25000  0.49400  1.0000
  S   S11       1.0  0.73400  0.75000  0.50600  1.0000
  S   S12       1.0  0.42200  0.75000  0.56700  1.0000
  S   S13       1.0  0.01940  0.75000  0.64000  1.0000
  S   S14       1.0  0.86900  0.25000  0.68000  1.0000
  S   S15       1.0  0.67000  0.25000  0.74900  1.0000
  S   S16       1.0  0.17000  0.25000  0.75100  1.0000
  S   S17       1.0  0.36900  0.25000  0.82000  1.0000
  S   S18       1.0  0.51900  0.75000  0.86000  1.0000
  S   S19       1.0  0.92200  0.75000  0.93300  1.0000
  S   S20       1.0  0.23400  0.75000  0.99400  1.0000
  Sb  Sb1       1.0  0.86700  0.25000  0.12000  1.0000
  Sb  Sb2       1.0  0.03030  0.75000  0.20400  1.0000
  Sb  Sb3       1.0  0.53000  0.75000  0.29600  1.0000
  Sb  Sb4       1.0  0.36700  0.25000  0.38000  1.0000
  Sb  Sb5       1.0  0.63300  0.75000  0.62000  1.0000
  Sb  Sb6       1.0  0.47000  0.25000  0.70400  1.0000
  Sb  Sb7       1.0  0.97000  0.25000  0.79600  1.0000
  Sb  Sb8       1.0  0.13300  0.75000  0.88000  1.0000
