data_image0
_chemical_formula_structural       Ba8Ga8S20
_chemical_formula_sum              "Ba8 Ga8 S20"
_cell_length_a       8.64616
_cell_length_b       10.7598
_cell_length_c       10.7598
_cell_angle_alpha    92.139
_cell_angle_beta     101.331
_cell_angle_gamma    78.6686

_space_group_name_H-M_alt    "P 1"
_space_group_IT_number       1

loop_
  _space_group_symop_operation_xyz
  'x, y, z'

loop_
  _atom_site_type_symbol
  _atom_site_label
  _atom_site_symmetry_multiplicity
  _atom_site_fract_x
  _atom_site_fract_y
  _atom_site_fract_z
  _atom_site_occupancy
  Ba  Ba1       1.0  0.88900  0.71900  0.01720  1.0000
  Ba  Ba2       1.0  0.39200  0.56900  0.27300  1.0000
  Ba  Ba3       1.0  0.38900  0.98300  0.28100  1.0000
  Ba  Ba4       1.0  0.89200  0.72700  0.43100  1.0000
  Ba  Ba5       1.0  0.10800  0.27300  0.56900  1.0000
  Ba  Ba6       1.0  0.61100  0.01720  0.71900  1.0000
  Ba  Ba7       1.0  0.60800  0.43100  0.72700  1.0000
  Ba  Ba8       1.0  0.11100  0.28100  0.98300  1.0000
  Ga  Ga1       1.0  0.58600  0.22800  0.01940  1.0000
  Ga  Ga2       1.0  0.91400  0.01940  0.22800  1.0000
  Ga  Ga3       1.0  0.88100  0.37600  0.23100  1.0000
  Ga  Ga4       1.0  0.61900  0.23100  0.37600  1.0000
  Ga  Ga5       1.0  0.38100  0.76900  0.62400  1.0000
  Ga  Ga6       1.0  0.11900  0.62400  0.76900  1.0000
  Ga  Ga7       1.0  0.08590  0.98100  0.77200  1.0000
  Ga  Ga8       1.0  0.41400  0.77200  0.98100  1.0000
  S   S1        1.0  0.75000  0.03020  0.03020  1.0000
  S   S2        1.0  0.73200  0.38800  0.03070  1.0000
  S   S3        1.0  0.59200  0.74500  0.16700  1.0000
  S   S4        1.0  0.44300  0.26200  0.18200  1.0000
  S   S5        1.0  0.04010  0.51700  0.24100  1.0000
  S   S6        1.0  0.09150  0.83300  0.25500  1.0000
  S   S7        1.0  0.05670  0.18200  0.26200  1.0000
  S   S8        1.0  0.76800  0.03070  0.38800  1.0000
  S   S9        1.0  0.75000  0.40100  0.40100  1.0000
  S   S10       1.0  0.54000  0.75900  0.48300  1.0000
  S   S11       1.0  0.46000  0.24100  0.51700  1.0000
  S   S12       1.0  0.25000  0.59900  0.59900  1.0000
  S   S13       1.0  0.23200  0.96900  0.61200  1.0000
  S   S14       1.0  0.94300  0.81800  0.73800  1.0000
  S   S15       1.0  0.90800  0.16700  0.74500  1.0000
  S   S16       1.0  0.96000  0.48300  0.75900  1.0000
  S   S17       1.0  0.55700  0.73800  0.81800  1.0000
  S   S18       1.0  0.40800  0.25500  0.83300  1.0000
  S   S19       1.0  0.26800  0.61200  0.96900  1.0000
  S   S20       1.0  0.25000  0.97000  0.97000  1.0000
