data_image0
_chemical_formula_structural       Mo2O5
_chemical_formula_sum              "Mo2 O5"
_cell_length_a       5.21382
_cell_length_b       5.21382
_cell_length_c       4.68138
_cell_angle_alpha    101.111
_cell_angle_beta     101.111
_cell_angle_gamma    117.458

_space_group_name_H-M_alt    "P 1"
_space_group_IT_number       1

loop_
  _space_group_symop_operation_xyz
  'x, y, z'

loop_
  _atom_site_type_symbol
  _atom_site_label
  _atom_site_symmetry_multiplicity
  _atom_site_fract_x
  _atom_site_fract_y
  _atom_site_fract_z
  _atom_site_occupancy
  Mo  Mo1       1.0  0.77100  0.17800  0.95300  1.0000
  Mo  Mo2       1.0  0.17800  0.77100  0.95300  1.0000
  O   O1        1.0  0.98300  0.56500  0.24300  1.0000
  O   O2        1.0  0.56500  0.98300  0.24300  1.0000
  O   O3        1.0  0.39200  0.07660  0.73400  1.0000
  O   O4        1.0  0.07660  0.39200  0.73400  1.0000
  O   O5        1.0  0.88100  0.88100  0.87500  1.0000
