data_image0
_chemical_formula_structural       Ba4Dy8Mn4O20
_chemical_formula_sum              "Ba4 Dy8 Mn4 O20"
_cell_length_a       12.4065
_cell_length_b       5.75517
_cell_length_c       7.12894
_cell_angle_alpha    90
_cell_angle_beta     90
_cell_angle_gamma    90

_space_group_name_H-M_alt    "P 1"
_space_group_IT_number       1

loop_
  _space_group_symop_operation_xyz
  'x, y, z'

loop_
  _atom_site_type_symbol
  _atom_site_label
  _atom_site_symmetry_multiplicity
  _atom_site_fract_x
  _atom_site_fract_y
  _atom_site_fract_z
  _atom_site_occupancy
  Ba  Ba1       1.0  0.10100  0.75000  0.08080  1.0000
  Ba  Ba2       1.0  0.60100  0.75000  0.41900  1.0000
  Ba  Ba3       1.0  0.39900  0.25000  0.58100  1.0000
  Ba  Ba4       1.0  0.89900  0.25000  0.91900  1.0000
  Dy  Dy1       1.0  0.57400  0.25000  0.09930  1.0000
  Dy  Dy2       1.0  0.29300  0.25000  0.12400  1.0000
  Dy  Dy3       1.0  0.79300  0.25000  0.37600  1.0000
  Dy  Dy4       1.0  0.07400  0.25000  0.40100  1.0000
  Dy  Dy5       1.0  0.92600  0.75000  0.59900  1.0000
  Dy  Dy6       1.0  0.20700  0.75000  0.62400  1.0000
  Dy  Dy7       1.0  0.70700  0.75000  0.87600  1.0000
  Dy  Dy8       1.0  0.42600  0.75000  0.90100  1.0000
  Mn  Mn1       1.0  0.84800  0.75000  0.19200  1.0000
  Mn  Mn2       1.0  0.34800  0.75000  0.30800  1.0000
  Mn  Mn3       1.0  0.65200  0.25000  0.69200  1.0000
  Mn  Mn4       1.0  0.15200  0.25000  0.80800  1.0000
  O   O1        1.0  0.10000  0.25000  0.07890  1.0000
  O   O2        1.0  0.72400  0.00130  0.13800  1.0000
  O   O3        1.0  0.72400  0.49900  0.13800  1.0000
  O   O4        1.0  0.43500  0.00137  0.16400  1.0000
  O   O5        1.0  0.43500  0.49900  0.16400  1.0000
  O   O6        1.0  0.93500  0.00137  0.33600  1.0000
  O   O7        1.0  0.93500  0.49900  0.33600  1.0000
  O   O8        1.0  0.22400  0.00130  0.36200  1.0000
  O   O9        1.0  0.22400  0.49900  0.36200  1.0000
  O   O10       1.0  0.60000  0.25000  0.42100  1.0000
  O   O11       1.0  0.40000  0.75000  0.57900  1.0000
  O   O12       1.0  0.77600  0.50100  0.63800  1.0000
  O   O13       1.0  0.77600  0.99900  0.63800  1.0000
  O   O14       1.0  0.06460  0.50100  0.66400  1.0000
  O   O15       1.0  0.06460  0.99900  0.66400  1.0000
  O   O16       1.0  0.56500  0.50100  0.83600  1.0000
  O   O17       1.0  0.56500  0.99900  0.83600  1.0000
  O   O18       1.0  0.27600  0.50100  0.86200  1.0000
  O   O19       1.0  0.27600  0.99900  0.86200  1.0000
  O   O20       1.0  0.90000  0.75000  0.92100  1.0000
