data_image0
_chemical_formula_structural       C6Ce6F6O18
_chemical_formula_sum              "C6 Ce6 F6 O18"
_cell_length_a       7.08664
_cell_length_b       7.08664
_cell_length_c       9.74715
_cell_angle_alpha    90
_cell_angle_beta     90
_cell_angle_gamma    120.001

_space_group_name_H-M_alt    "P 1"
_space_group_IT_number       1

loop_
  _space_group_symop_operation_xyz
  'x, y, z'

loop_
  _atom_site_type_symbol
  _atom_site_label
  _atom_site_symmetry_multiplicity
  _atom_site_fract_x
  _atom_site_fract_y
  _atom_site_fract_z
  _atom_site_occupancy
  C   C1        1.0  0.29400  0.31800  0.25000  1.0000
  C   C2        1.0  0.02460  0.70600  0.25000  1.0000
  C   C3        1.0  0.68200  0.97500  0.25000  1.0000
  C   C4        1.0  0.70600  0.02460  0.75000  1.0000
  C   C5        1.0  0.31800  0.29400  0.75000  1.0000
  C   C6        1.0  0.97500  0.68200  0.75000  1.0000
  Ce  Ce1       1.0  0.34000  0.00000  0.00000  1.0000
  Ce  Ce2       1.0  0.00000  0.34000  0.00000  1.0000
  Ce  Ce3       1.0  0.66000  0.66000  0.00000  1.0000
  Ce  Ce4       1.0  0.34000  0.00000  0.50000  1.0000
  Ce  Ce5       1.0  0.00000  0.34000  0.50000  1.0000
  Ce  Ce6       1.0  0.66000  0.66000  0.50000  1.0000
  F   F1        1.0  0.00000  0.00000  0.00000  1.0000
  F   F2        1.0  0.33300  0.66700  0.06050  1.0000
  F   F3        1.0  0.33300  0.66700  0.43900  1.0000
  F   F4        1.0  0.00000  0.00000  0.50000  1.0000
  F   F5        1.0  0.66700  0.33300  0.56100  1.0000
  F   F6        1.0  0.66700  0.33300  0.94000  1.0000
  O   O1        1.0  0.67600  0.06320  0.13500  1.0000
  O   O2        1.0  0.93700  0.61300  0.13500  1.0000
  O   O3        1.0  0.38700  0.32400  0.13500  1.0000
  O   O4        1.0  0.10700  0.30800  0.25000  1.0000
  O   O5        1.0  0.69200  0.79900  0.25000  1.0000
  O   O6        1.0  0.20100  0.89300  0.25000  1.0000
  O   O7        1.0  0.38700  0.32400  0.36500  1.0000
  O   O8        1.0  0.93700  0.61300  0.36500  1.0000
  O   O9        1.0  0.67600  0.06320  0.36500  1.0000
  O   O10       1.0  0.06320  0.67600  0.63500  1.0000
  O   O11       1.0  0.61300  0.93700  0.63500  1.0000
  O   O12       1.0  0.32400  0.38700  0.63500  1.0000
  O   O13       1.0  0.30800  0.10700  0.75000  1.0000
  O   O14       1.0  0.89300  0.20100  0.75000  1.0000
  O   O15       1.0  0.79900  0.69200  0.75000  1.0000
  O   O16       1.0  0.32400  0.38700  0.86500  1.0000
  O   O17       1.0  0.61300  0.93700  0.86500  1.0000
  O   O18       1.0  0.06320  0.67600  0.86500  1.0000
