data_image0
_chemical_formula_structural       Cl4N12O8S12
_chemical_formula_sum              "Cl4 N12 O8 S12"
_cell_length_a       6.6452
_cell_length_b       9.07883
_cell_length_c       11.8016
_cell_angle_alpha    112.028
_cell_angle_beta     90
_cell_angle_gamma    111.467

_space_group_name_H-M_alt    "P 1"
_space_group_IT_number       1

loop_
  _space_group_symop_operation_xyz
  'x, y, z'

loop_
  _atom_site_type_symbol
  _atom_site_label
  _atom_site_symmetry_multiplicity
  _atom_site_fract_x
  _atom_site_fract_y
  _atom_site_fract_z
  _atom_site_occupancy
  Cl  Cl1       1.0  0.56200  0.86400  0.12200  1.0000
  Cl  Cl2       1.0  0.69700  0.13600  0.37800  1.0000
  Cl  Cl3       1.0  0.30300  0.86400  0.62200  1.0000
  Cl  Cl4       1.0  0.43800  0.13600  0.87800  1.0000
  N   N1        1.0  0.33800  0.42400  0.07480  1.0000
  N   N2        1.0  0.47900  0.22100  0.13600  1.0000
  N   N3        1.0  0.09340  0.23800  0.18700  1.0000
  N   N4        1.0  0.85600  0.76200  0.31300  1.0000
  N   N5        1.0  0.25800  0.77900  0.36400  1.0000
  N   N6        1.0  0.91400  0.57600  0.42500  1.0000
  N   N7        1.0  0.08630  0.42400  0.57500  1.0000
  N   N8        1.0  0.74200  0.22100  0.63600  1.0000
  N   N9        1.0  0.14400  0.23800  0.68700  1.0000
  N   N10       1.0  0.90700  0.76200  0.81300  1.0000
  N   N11       1.0  0.52100  0.77900  0.86400  1.0000
  N   N12       1.0  0.66200  0.57600  0.92500  1.0000
  O   O1        1.0  0.02380  0.82700  0.03390  1.0000
  O   O2        1.0  0.99000  0.44400  0.13300  1.0000
  O   O3        1.0  0.54600  0.55600  0.36700  1.0000
  O   O4        1.0  0.19700  0.17300  0.46600  1.0000
  O   O5        1.0  0.80300  0.82700  0.53400  1.0000
  O   O6        1.0  0.45400  0.44400  0.63300  1.0000
  O   O7        1.0  0.01020  0.55600  0.86700  1.0000
  O   O8        1.0  0.97600  0.17300  0.96600  1.0000
  S   S1        1.0  0.51500  0.34400  0.05640  1.0000
  S   S2        1.0  0.08440  0.31800  0.08210  1.0000
  S   S3        1.0  0.28500  0.18800  0.21000  1.0000
  S   S4        1.0  0.09730  0.81200  0.29000  1.0000
  S   S5        1.0  0.76600  0.68200  0.41800  1.0000
  S   S6        1.0  0.17100  0.65600  0.44400  1.0000
  S   S7        1.0  0.82900  0.34400  0.55600  1.0000
  S   S8        1.0  0.23400  0.31800  0.58200  1.0000
  S   S9        1.0  0.90300  0.18800  0.71000  1.0000
  S   S10       1.0  0.71500  0.81200  0.79000  1.0000
  S   S11       1.0  0.91600  0.68200  0.91800  1.0000
  S   S12       1.0  0.48500  0.65600  0.94400  1.0000
