data_image0
_chemical_formula_structural       Al6F24Na2Rb4
_chemical_formula_sum              "Al6 F24 Na2 Rb4"
_cell_length_a       11.8623
_cell_length_b       6.871
_cell_length_c       6.79284
_cell_angle_alpha    90
_cell_angle_beta     126.009
_cell_angle_gamma    90

_space_group_name_H-M_alt    "P 1"
_space_group_IT_number       1

loop_
  _space_group_symop_operation_xyz
  'x, y, z'

loop_
  _atom_site_type_symbol
  _atom_site_label
  _atom_site_symmetry_multiplicity
  _atom_site_fract_x
  _atom_site_fract_y
  _atom_site_fract_z
  _atom_site_occupancy
  Al  Al1       1.0  0.72100  0.75000  0.41500  1.0000
  Al  Al2       1.0  0.00000  0.00000  0.50000  1.0000
  Al  Al3       1.0  0.00000  0.50000  0.50000  1.0000
  Al  Al4       1.0  0.50000  0.00000  0.50000  1.0000
  Al  Al5       1.0  0.50000  0.50000  0.50000  1.0000
  Al  Al6       1.0  0.27900  0.25000  0.58500  1.0000
  F   F1        1.0  0.62700  0.75000  0.09530  1.0000
  F   F2        1.0  0.94100  0.54800  0.19900  1.0000
  F   F3        1.0  0.94100  0.95200  0.19900  1.0000
  F   F4        1.0  0.34500  0.54300  0.20900  1.0000
  F   F5        1.0  0.34500  0.95700  0.20900  1.0000
  F   F6        1.0  0.17500  0.25000  0.26900  1.0000
  F   F7        1.0  0.60300  0.56100  0.38600  1.0000
  F   F8        1.0  0.60300  0.93900  0.38600  1.0000
  F   F9        1.0  0.94100  0.25000  0.40900  1.0000
  F   F10       1.0  0.49700  0.25000  0.40900  1.0000
  F   F11       1.0  0.82700  0.55400  0.42000  1.0000
  F   F12       1.0  0.82700  0.94600  0.42000  1.0000
  F   F13       1.0  0.17300  0.05390  0.58000  1.0000
  F   F14       1.0  0.17300  0.44600  0.58000  1.0000
  F   F15       1.0  0.50300  0.75000  0.59100  1.0000
  F   F16       1.0  0.05890  0.75000  0.59100  1.0000
  F   F17       1.0  0.39700  0.06080  0.61400  1.0000
  F   F18       1.0  0.39700  0.43900  0.61400  1.0000
  F   F19       1.0  0.82500  0.75000  0.73100  1.0000
  F   F20       1.0  0.65500  0.04320  0.79100  1.0000
  F   F21       1.0  0.65500  0.45700  0.79100  1.0000
  F   F22       1.0  0.05940  0.04760  0.80100  1.0000
  F   F23       1.0  0.05940  0.45200  0.80100  1.0000
  F   F24       1.0  0.37300  0.25000  0.90500  1.0000
  Na  Na1       1.0  0.24200  0.25000  0.03260  1.0000
  Na  Na2       1.0  0.75800  0.75000  0.96700  1.0000
  Rb  Rb1       1.0  0.64200  0.25000  0.12300  1.0000
  Rb  Rb2       1.0  0.11700  0.75000  0.12500  1.0000
  Rb  Rb3       1.0  0.88300  0.25000  0.87500  1.0000
  Rb  Rb4       1.0  0.35800  0.75000  0.87700  1.0000
