data_image0
_chemical_formula_structural       Ni4O11
_chemical_formula_sum              "Ni4 O11"
_cell_length_a       9.37492
_cell_length_b       4.661
_cell_length_c       4.34022
_cell_angle_alpha    101.267
_cell_angle_beta     102.063
_cell_angle_gamma    119.008

_space_group_name_H-M_alt    "P 1"
_space_group_IT_number       1

loop_
  _space_group_symop_operation_xyz
  'x, y, z'

loop_
  _atom_site_type_symbol
  _atom_site_label
  _atom_site_symmetry_multiplicity
  _atom_site_fract_x
  _atom_site_fract_y
  _atom_site_fract_z
  _atom_site_occupancy
  Ni  Ni1       1.0  0.41700  0.16900  0.00209  1.0000
  Ni  Ni2       1.0  0.90800  0.16800  0.99100  1.0000
  Ni  Ni3       1.0  0.09090  0.82600  0.99300  1.0000
  Ni  Ni4       1.0  0.58000  0.82800  0.00000  1.0000
  O   O1        1.0  0.62500  0.24800  0.23900  1.0000
  O   O2        1.0  0.46100  0.58900  0.23900  1.0000
  O   O3        1.0  0.97100  0.60000  0.24200  1.0000
  O   O4        1.0  0.79500  0.93300  0.24200  1.0000
  O   O5        1.0  0.30100  0.93500  0.24700  1.0000
  O   O6        1.0  0.69000  0.06390  0.74900  1.0000
  O   O7        1.0  0.53400  0.40500  0.75700  1.0000
  O   O8        1.0  0.37100  0.74500  0.75700  1.0000
  O   O9        1.0  0.03880  0.39000  0.76300  1.0000
  O   O10       1.0  0.20700  0.08680  0.76700  1.0000
  O   O11       1.0  0.88500  0.76600  0.77900  1.0000
