data_image0
_chemical_formula_structural       I24In6Rb6
_chemical_formula_sum              "I24 In6 Rb6"
_cell_length_a       10.0417
_cell_length_b       14.8888
_cell_length_c       14.8888
_cell_angle_alpha    115.099
_cell_angle_beta     102.992
_cell_angle_gamma    102.992

_space_group_name_H-M_alt    "P 1"
_space_group_IT_number       1

loop_
  _space_group_symop_operation_xyz
  'x, y, z'

loop_
  _atom_site_type_symbol
  _atom_site_label
  _atom_site_symmetry_multiplicity
  _atom_site_fract_x
  _atom_site_fract_y
  _atom_site_fract_z
  _atom_site_occupancy
  I   I1        1.0  0.70900  0.68200  0.05190  1.0000
  I   I2        1.0  0.58700  0.20200  0.05250  1.0000
  I   I3        1.0  0.95100  0.45700  0.06380  1.0000
  I   I4        1.0  0.53500  0.94800  0.14900  1.0000
  I   I5        1.0  0.08720  0.05250  0.20200  1.0000
  I   I6        1.0  0.42500  0.70800  0.25700  1.0000
  I   I7        1.0  0.71700  0.54900  0.29200  1.0000
  I   I8        1.0  0.02660  0.37000  0.31800  1.0000
  I   I9        1.0  0.52700  0.31800  0.37000  1.0000
  I   I10       1.0  0.88700  0.93600  0.39400  1.0000
  I   I11       1.0  0.16800  0.74300  0.45100  1.0000
  I   I12       1.0  0.45100  0.06380  0.45700  1.0000
  I   I13       1.0  0.49300  0.60600  0.54300  1.0000
  I   I14       1.0  0.21700  0.29200  0.54900  1.0000
  I   I15       1.0  0.99300  0.54300  0.60600  1.0000
  I   I16       1.0  0.65700  0.94800  0.63000  1.0000
  I   I17       1.0  0.20900  0.05190  0.68200  1.0000
  I   I18       1.0  0.92500  0.25700  0.70800  1.0000
  I   I19       1.0  0.66800  0.45100  0.74300  1.0000
  I   I20       1.0  0.38500  0.85100  0.79800  1.0000
  I   I21       1.0  0.88500  0.79800  0.85100  1.0000
  I   I22       1.0  0.38700  0.39400  0.93600  1.0000
  I   I23       1.0  0.03470  0.14900  0.94800  1.0000
  I   I24       1.0  0.15700  0.63000  0.94800  1.0000
  In  In1       1.0  0.81800  0.39400  0.18200  1.0000
  In  In2       1.0  0.63600  0.81800  0.21200  1.0000
  In  In3       1.0  0.31800  0.18200  0.39400  1.0000
  In  In4       1.0  0.42400  0.78800  0.60600  1.0000
  In  In5       1.0  0.92400  0.60600  0.78800  1.0000
  In  In6       1.0  0.13600  0.21200  0.81800  1.0000
  Rb  Rb1       1.0  0.31100  0.40500  0.18800  1.0000
  Rb  Rb2       1.0  0.12300  0.81200  0.21700  1.0000
  Rb  Rb3       1.0  0.81100  0.18800  0.40500  1.0000
  Rb  Rb4       1.0  0.90600  0.78300  0.59500  1.0000
  Rb  Rb5       1.0  0.40600  0.59500  0.78300  1.0000
  Rb  Rb6       1.0  0.62300  0.21700  0.81200  1.0000
