data_image0
_chemical_formula_structural       O24Sr4Ta8
_chemical_formula_sum              "O24 Sr4 Ta8"
_cell_length_a       11.029
_cell_length_b       7.6318
_cell_length_c       5.60548
_cell_angle_alpha    90
_cell_angle_beta     90
_cell_angle_gamma    90

_space_group_name_H-M_alt    "P 1"
_space_group_IT_number       1

loop_
  _space_group_symop_operation_xyz
  'x, y, z'

loop_
  _atom_site_type_symbol
  _atom_site_label
  _atom_site_symmetry_multiplicity
  _atom_site_fract_x
  _atom_site_fract_y
  _atom_site_fract_z
  _atom_site_occupancy
  O   O1        1.0  0.85200  0.25000  0.03470  1.0000
  O   O2        1.0  0.71200  0.55200  0.13700  1.0000
  O   O3        1.0  0.71200  0.94800  0.13700  1.0000
  O   O4        1.0  0.12900  0.25000  0.14500  1.0000
  O   O5        1.0  0.97500  0.53600  0.22000  1.0000
  O   O6        1.0  0.97500  0.96400  0.22000  1.0000
  O   O7        1.0  0.47500  0.53600  0.28000  1.0000
  O   O8        1.0  0.47500  0.96400  0.28000  1.0000
  O   O9        1.0  0.62900  0.25000  0.35500  1.0000
  O   O10       1.0  0.21200  0.55200  0.36300  1.0000
  O   O11       1.0  0.21200  0.94800  0.36300  1.0000
  O   O12       1.0  0.35200  0.25000  0.46500  1.0000
  O   O13       1.0  0.64800  0.75000  0.53500  1.0000
  O   O14       1.0  0.78800  0.05200  0.63700  1.0000
  O   O15       1.0  0.78800  0.44800  0.63700  1.0000
  O   O16       1.0  0.37100  0.75000  0.64500  1.0000
  O   O17       1.0  0.52500  0.03600  0.72000  1.0000
  O   O18       1.0  0.52500  0.46400  0.72000  1.0000
  O   O19       1.0  0.02480  0.03600  0.78000  1.0000
  O   O20       1.0  0.02480  0.46400  0.78000  1.0000
  O   O21       1.0  0.87100  0.75000  0.85500  1.0000
  O   O22       1.0  0.28800  0.05200  0.86300  1.0000
  O   O23       1.0  0.28800  0.44800  0.86300  1.0000
  O   O24       1.0  0.14800  0.75000  0.96500  1.0000
  Sr  Sr1       1.0  0.46000  0.25000  0.03910  1.0000
  Sr  Sr2       1.0  0.96000  0.25000  0.46100  1.0000
  Sr  Sr3       1.0  0.03970  0.75000  0.53900  1.0000
  Sr  Sr4       1.0  0.54000  0.75000  0.96100  1.0000
  Ta  Ta1       1.0  0.14300  0.00413  0.03770  1.0000
  Ta  Ta2       1.0  0.14300  0.49600  0.03770  1.0000
  Ta  Ta3       1.0  0.64300  0.00413  0.46200  1.0000
  Ta  Ta4       1.0  0.64300  0.49600  0.46200  1.0000
  Ta  Ta5       1.0  0.35700  0.50400  0.53800  1.0000
  Ta  Ta6       1.0  0.35700  0.99600  0.53800  1.0000
  Ta  Ta7       1.0  0.85700  0.50400  0.96200  1.0000
  Ta  Ta8       1.0  0.85700  0.99600  0.96200  1.0000
