data_image0
_chemical_formula_structural       Al4Cu4F24K4
_chemical_formula_sum              "Al4 Cu4 F24 K4"
_cell_length_a       6.52922
_cell_length_b       6.89471
_cell_length_c       9.48389
_cell_angle_alpha    90
_cell_angle_beta     90
_cell_angle_gamma    90

_space_group_name_H-M_alt    "P 1"
_space_group_IT_number       1

loop_
  _space_group_symop_operation_xyz
  'x, y, z'

loop_
  _atom_site_type_symbol
  _atom_site_label
  _atom_site_symmetry_multiplicity
  _atom_site_fract_x
  _atom_site_fract_y
  _atom_site_fract_z
  _atom_site_occupancy
  Al  Al1       1.0  0.00000  0.00000  0.00000  1.0000
  Al  Al2       1.0  0.00000  0.50000  0.00000  1.0000
  Al  Al3       1.0  0.50000  0.00000  0.50000  1.0000
  Al  Al4       1.0  0.50000  0.50000  0.50000  1.0000
  Cu  Cu1       1.0  0.67900  0.75000  0.23700  1.0000
  Cu  Cu2       1.0  0.17900  0.75000  0.26300  1.0000
  Cu  Cu3       1.0  0.82100  0.25000  0.73700  1.0000
  Cu  Cu4       1.0  0.32100  0.25000  0.76300  1.0000
  F   F1        1.0  0.92400  0.25000  0.00759  1.0000
  F   F2        1.0  0.75400  0.55500  0.07290  1.0000
  F   F3        1.0  0.75400  0.94500  0.07290  1.0000
  F   F4        1.0  0.41900  0.75000  0.15700  1.0000
  F   F5        1.0  0.11100  0.02120  0.17400  1.0000
  F   F6        1.0  0.11100  0.47900  0.17400  1.0000
  F   F7        1.0  0.61100  0.02120  0.32600  1.0000
  F   F8        1.0  0.61100  0.47900  0.32600  1.0000
  F   F9        1.0  0.91900  0.75000  0.34300  1.0000
  F   F10       1.0  0.25400  0.55500  0.42700  1.0000
  F   F11       1.0  0.25400  0.94500  0.42700  1.0000
  F   F12       1.0  0.42400  0.25000  0.49200  1.0000
  F   F13       1.0  0.57600  0.75000  0.50800  1.0000
  F   F14       1.0  0.74600  0.05540  0.57300  1.0000
  F   F15       1.0  0.74600  0.44500  0.57300  1.0000
  F   F16       1.0  0.08100  0.25000  0.65700  1.0000
  F   F17       1.0  0.38900  0.52100  0.67400  1.0000
  F   F18       1.0  0.38900  0.97900  0.67400  1.0000
  F   F19       1.0  0.88900  0.52100  0.82600  1.0000
  F   F20       1.0  0.88900  0.97900  0.82600  1.0000
  F   F21       1.0  0.58100  0.25000  0.84300  1.0000
  F   F22       1.0  0.24600  0.05540  0.92700  1.0000
  F   F23       1.0  0.24600  0.44500  0.92700  1.0000
  F   F24       1.0  0.07620  0.75000  0.99200  1.0000
  K   K1        1.0  0.48000  0.25000  0.12100  1.0000
  K   K2        1.0  0.98000  0.25000  0.37900  1.0000
  K   K3        1.0  0.02020  0.75000  0.62100  1.0000
  K   K4        1.0  0.52000  0.75000  0.87900  1.0000
