data_image0
_chemical_formula_structural       O11Zr4
_chemical_formula_sum              "O11 Zr4"
_cell_length_a       13.1799
_cell_length_b       6.69368
_cell_length_c       3.59383
_cell_angle_alpha    105.246
_cell_angle_beta     105.26
_cell_angle_gamma    128.347

_space_group_name_H-M_alt    "P 1"
_space_group_IT_number       1

loop_
  _space_group_symop_operation_xyz
  'x, y, z'

loop_
  _atom_site_type_symbol
  _atom_site_label
  _atom_site_symmetry_multiplicity
  _atom_site_fract_x
  _atom_site_fract_y
  _atom_site_fract_z
  _atom_site_occupancy
  O   O1        1.0  0.40500  0.47900  0.14200  1.0000
  O   O2        1.0  0.74400  0.78900  0.14800  1.0000
  O   O3        1.0  0.56400  0.13000  0.22900  1.0000
  O   O4        1.0  0.97800  0.59700  0.27800  1.0000
  O   O5        1.0  0.29600  0.97300  0.27900  1.0000
  O   O6        1.0  0.00697  0.36700  0.69200  1.0000
  O   O7        1.0  0.68800  0.99500  0.69400  1.0000
  O   O8        1.0  0.42100  0.84300  0.73900  1.0000
  O   O9        1.0  0.23800  0.17800  0.82200  1.0000
  O   O10       1.0  0.57800  0.48800  0.82800  1.0000
  O   O11       1.0  0.98900  0.97700  0.98000  1.0000
  Zr  Zr1       1.0  0.07180  0.81400  0.97500  1.0000
  Zr  Zr2       1.0  0.41000  0.15100  0.98200  1.0000
  Zr  Zr3       1.0  0.57300  0.81700  0.99200  1.0000
  Zr  Zr4       1.0  0.91100  0.15000  0.99300  1.0000
