data_image0
_chemical_formula_structural       Fe20Gd4P12
_chemical_formula_sum              "Fe20 Gd4 P12"
_cell_length_a       11.8114
_cell_length_b       3.65449
_cell_length_c       10.2685
_cell_angle_alpha    90
_cell_angle_beta     90
_cell_angle_gamma    90

_space_group_name_H-M_alt    "P 1"
_space_group_IT_number       1

loop_
  _space_group_symop_operation_xyz
  'x, y, z'

loop_
  _atom_site_type_symbol
  _atom_site_label
  _atom_site_symmetry_multiplicity
  _atom_site_fract_x
  _atom_site_fract_y
  _atom_site_fract_z
  _atom_site_occupancy
  Fe  Fe1       1.0  0.43300  0.25000  0.03570  1.0000
  Fe  Fe2       1.0  0.99000  0.25000  0.09600  1.0000
  Fe  Fe3       1.0  0.29900  0.75000  0.12400  1.0000
  Fe  Fe4       1.0  0.51200  0.75000  0.20500  1.0000
  Fe  Fe5       1.0  0.17500  0.25000  0.21900  1.0000
  Fe  Fe6       1.0  0.67500  0.25000  0.28100  1.0000
  Fe  Fe7       1.0  0.01180  0.75000  0.29500  1.0000
  Fe  Fe8       1.0  0.79900  0.75000  0.37600  1.0000
  Fe  Fe9       1.0  0.49000  0.25000  0.40400  1.0000
  Fe  Fe10      1.0  0.93300  0.25000  0.46400  1.0000
  Fe  Fe11      1.0  0.06670  0.75000  0.53600  1.0000
  Fe  Fe12      1.0  0.51000  0.75000  0.59600  1.0000
  Fe  Fe13      1.0  0.20100  0.25000  0.62400  1.0000
  Fe  Fe14      1.0  0.98800  0.25000  0.70500  1.0000
  Fe  Fe15      1.0  0.32500  0.75000  0.71900  1.0000
  Fe  Fe16      1.0  0.82500  0.75000  0.78100  1.0000
  Fe  Fe17      1.0  0.48800  0.25000  0.79500  1.0000
  Fe  Fe18      1.0  0.70100  0.25000  0.87600  1.0000
  Fe  Fe19      1.0  0.00999  0.75000  0.90400  1.0000
  Fe  Fe20      1.0  0.56700  0.75000  0.96400  1.0000
  Gd  Gd1       1.0  0.79700  0.75000  0.08080  1.0000
  Gd  Gd2       1.0  0.29700  0.75000  0.41900  1.0000
  Gd  Gd3       1.0  0.70300  0.25000  0.58100  1.0000
  Gd  Gd4       1.0  0.20300  0.25000  0.91900  1.0000
  P   P1        1.0  0.61200  0.25000  0.07900  1.0000
  P   P2        1.0  0.10300  0.75000  0.10300  1.0000
  P   P3        1.0  0.37100  0.25000  0.23200  1.0000
  P   P4        1.0  0.87100  0.25000  0.26800  1.0000
  P   P5        1.0  0.60300  0.75000  0.39700  1.0000
  P   P6        1.0  0.11200  0.25000  0.42100  1.0000
  P   P7        1.0  0.88800  0.75000  0.57900  1.0000
  P   P8        1.0  0.39700  0.25000  0.60300  1.0000
  P   P9        1.0  0.12900  0.75000  0.73200  1.0000
  P   P10       1.0  0.62900  0.75000  0.76800  1.0000
  P   P11       1.0  0.89700  0.25000  0.89700  1.0000
  P   P12       1.0  0.38800  0.75000  0.92100  1.0000
