data_image0
_chemical_formula_structural       Cu2Nd4O7
_chemical_formula_sum              "Cu2 Nd4 O7"
_cell_length_a       3.77549
_cell_length_b       6.5952
_cell_length_c       8.44497
_cell_angle_alpha    108.79
_cell_angle_beta     90
_cell_angle_gamma    106.632

_space_group_name_H-M_alt    "P 1"
_space_group_IT_number       1

loop_
  _space_group_symop_operation_xyz
  'x, y, z'

loop_
  _atom_site_type_symbol
  _atom_site_label
  _atom_site_symmetry_multiplicity
  _atom_site_fract_x
  _atom_site_fract_y
  _atom_site_fract_z
  _atom_site_occupancy
  Cu  Cu1       1.0  0.00000  0.00000  0.00000  1.0000
  Cu  Cu2       1.0  0.00000  0.00000  0.50000  1.0000
  Nd  Nd1       1.0  0.35900  0.71800  0.16600  1.0000
  Nd  Nd2       1.0  0.65800  0.31700  0.31800  1.0000
  Nd  Nd3       1.0  0.34200  0.68300  0.68200  1.0000
  Nd  Nd4       1.0  0.64100  0.28200  0.83400  1.0000
  O   O1        1.0  0.50000  0.00000  0.00000  1.0000
  O   O2        1.0  0.74800  0.49600  0.12000  1.0000
  O   O3        1.0  0.01010  0.02030  0.29000  1.0000
  O   O4        1.0  0.27600  0.55300  0.38500  1.0000
  O   O5        1.0  0.72400  0.44700  0.61500  1.0000
  O   O6        1.0  0.99000  0.98000  0.71000  1.0000
  O   O7        1.0  0.25200  0.50400  0.88000  1.0000
