data_image0
_chemical_formula_structural       H24Th4Ti8
_chemical_formula_sum              "H24 Th4 Ti8"
_cell_length_a       6.14633
_cell_length_b       6.14639
_cell_length_c       9.99147
_cell_angle_alpha    90
_cell_angle_beta     90
_cell_angle_gamma    120

_space_group_name_H-M_alt    "P 1"
_space_group_IT_number       1

loop_
  _space_group_symop_operation_xyz
  'x, y, z'

loop_
  _atom_site_type_symbol
  _atom_site_label
  _atom_site_symmetry_multiplicity
  _atom_site_fract_x
  _atom_site_fract_y
  _atom_site_fract_z
  _atom_site_occupancy
  H   H1        1.0  0.31100  0.15600  0.06720  1.0000
  H   H2        1.0  0.84500  0.15600  0.06720  1.0000
  H   H3        1.0  0.84500  0.68900  0.06730  1.0000
  H   H4        1.0  0.54100  0.08300  0.14800  1.0000
  H   H5        1.0  0.54200  0.45900  0.14800  1.0000
  H   H6        1.0  0.91700  0.45900  0.14800  1.0000
  H   H7        1.0  0.54200  0.45900  0.35200  1.0000
  H   H8        1.0  0.91700  0.45900  0.35200  1.0000
  H   H9        1.0  0.54100  0.08300  0.35200  1.0000
  H   H10       1.0  0.84500  0.68900  0.43300  1.0000
  H   H11       1.0  0.31100  0.15600  0.43300  1.0000
  H   H12       1.0  0.84500  0.15600  0.43300  1.0000
  H   H13       1.0  0.15500  0.84400  0.56700  1.0000
  H   H14       1.0  0.68900  0.84400  0.56700  1.0000
  H   H15       1.0  0.15500  0.31100  0.56700  1.0000
  H   H16       1.0  0.45900  0.91700  0.64800  1.0000
  H   H17       1.0  0.08300  0.54100  0.64800  1.0000
  H   H18       1.0  0.45800  0.54100  0.64800  1.0000
  H   H19       1.0  0.08300  0.54100  0.85200  1.0000
  H   H20       1.0  0.45800  0.54100  0.85200  1.0000
  H   H21       1.0  0.45900  0.91700  0.85200  1.0000
  H   H22       1.0  0.15500  0.31100  0.93300  1.0000
  H   H23       1.0  0.15500  0.84400  0.93300  1.0000
  H   H24       1.0  0.68900  0.84400  0.93300  1.0000
  Th  Th1       1.0  0.33300  0.66700  0.06140  1.0000
  Th  Th2       1.0  0.33300  0.66700  0.43900  1.0000
  Th  Th3       1.0  0.66700  0.33300  0.56100  1.0000
  Th  Th4       1.0  0.66700  0.33300  0.93900  1.0000
  Ti  Ti1       1.0  0.00000  0.00000  0.00000  1.0000
  Ti  Ti2       1.0  0.32900  0.16400  0.25000  1.0000
  Ti  Ti3       1.0  0.83600  0.16400  0.25000  1.0000
  Ti  Ti4       1.0  0.83600  0.67100  0.25000  1.0000
  Ti  Ti5       1.0  0.00000  0.00000  0.50000  1.0000
  Ti  Ti6       1.0  0.16400  0.32900  0.75000  1.0000
  Ti  Ti7       1.0  0.16400  0.83600  0.75000  1.0000
  Ti  Ti8       1.0  0.67100  0.83600  0.75000  1.0000
