data_image0
_chemical_formula_structural       Li8O11U4
_chemical_formula_sum              "Li8 O11 U4"
_cell_length_a       12.0855
_cell_length_b       5.54718
_cell_length_c       5.33144
_cell_angle_alpha    106.849
_cell_angle_beta     100.227
_cell_angle_gamma    116.083

_space_group_name_H-M_alt    "P 1"
_space_group_IT_number       1

loop_
  _space_group_symop_operation_xyz
  'x, y, z'

loop_
  _atom_site_type_symbol
  _atom_site_label
  _atom_site_symmetry_multiplicity
  _atom_site_fract_x
  _atom_site_fract_y
  _atom_site_fract_z
  _atom_site_occupancy
  Li  Li1       1.0  0.42800  0.93600  0.47200  1.0000
  Li  Li2       1.0  0.20900  0.75400  0.47200  1.0000
  Li  Li3       1.0  0.74100  0.72800  0.48100  1.0000
  Li  Li4       1.0  0.75400  0.26200  0.51500  1.0000
  Li  Li5       1.0  0.07050  0.04690  0.52400  1.0000
  Li  Li6       1.0  0.30900  0.29200  0.53900  1.0000
  Li  Li7       1.0  0.26400  0.53400  0.96900  1.0000
  Li  Li8       1.0  0.73100  0.49400  0.97900  1.0000
  O   O1        1.0  0.63200  0.29800  0.21500  1.0000
  O   O2        1.0  0.27500  0.91400  0.22100  1.0000
  O   O3        1.0  0.76300  0.91900  0.22500  1.0000
  O   O4        1.0  0.47300  0.68400  0.23400  1.0000
  O   O5        1.0  0.01560  0.62700  0.36600  1.0000
  O   O6        1.0  0.49900  0.35700  0.71400  1.0000
  O   O7        1.0  0.36700  0.76100  0.73100  1.0000
  O   O8        1.0  0.73600  0.07920  0.77500  1.0000
  O   O9        1.0  0.23400  0.12300  0.78800  1.0000
  O   O10       1.0  0.03700  0.29800  0.78900  1.0000
  O   O11       1.0  0.85700  0.68900  0.79400  1.0000
  U   U1        1.0  0.92000  0.16100  0.06660  1.0000
  U   U2        1.0  0.42100  0.21800  0.07150  1.0000
  U   U3        1.0  0.06510  0.74500  0.87400  1.0000
  U   U4        1.0  0.57600  0.83600  0.92900  1.0000
