data_image0
_chemical_formula_structural       Se16Si4Tl16
_chemical_formula_sum              "Se16 Si4 Tl16"
_cell_length_a       6.99673
_cell_length_b       6.99673
_cell_length_c       25.0392
_cell_angle_alpha    91.3082
_cell_angle_beta     97.6302
_cell_angle_gamma    116.303

_space_group_name_H-M_alt    "P 1"
_space_group_IT_number       1

loop_
  _space_group_symop_operation_xyz
  'x, y, z'

loop_
  _atom_site_type_symbol
  _atom_site_label
  _atom_site_symmetry_multiplicity
  _atom_site_fract_x
  _atom_site_fract_y
  _atom_site_fract_z
  _atom_site_occupancy
  Se  Se1       1.0  0.41500  0.36900  0.07730  1.0000
  Se  Se2       1.0  0.66900  0.97100  0.08340  1.0000
  Se  Se3       1.0  0.01540  0.70300  0.11900  1.0000
  Se  Se4       1.0  0.60400  0.69400  0.21000  1.0000
  Se  Se5       1.0  0.98400  0.39400  0.29000  1.0000
  Se  Se6       1.0  0.08390  0.89700  0.38100  1.0000
  Se  Se7       1.0  0.38800  0.58500  0.41700  1.0000
  Se  Se8       1.0  0.79200  0.33800  0.42300  1.0000
  Se  Se9       1.0  0.20800  0.66200  0.57700  1.0000
  Se  Se10      1.0  0.61200  0.41500  0.58300  1.0000
  Se  Se11      1.0  0.91600  0.10300  0.61900  1.0000
  Se  Se12      1.0  0.01600  0.60600  0.71000  1.0000
  Se  Se13      1.0  0.39600  0.30600  0.79000  1.0000
  Se  Se14      1.0  0.98500  0.29700  0.88100  1.0000
  Se  Se15      1.0  0.33100  0.02890  0.91700  1.0000
  Se  Se16      1.0  0.58500  0.63100  0.92300  1.0000
  Si  Si1       1.0  0.68300  0.68500  0.12400  1.0000
  Si  Si2       1.0  0.06060  0.55900  0.37600  1.0000
  Si  Si3       1.0  0.93900  0.44100  0.62400  1.0000
  Si  Si4       1.0  0.31700  0.31500  0.87600  1.0000
  Tl  Tl1       1.0  0.00000  0.00000  0.00000  1.0000
  Tl  Tl2       1.0  0.27500  0.65200  0.00068  1.0000
  Tl  Tl3       1.0  0.10800  0.32800  0.16400  1.0000
  Tl  Tl4       1.0  0.50800  0.10700  0.17800  1.0000
  Tl  Tl5       1.0  0.07790  0.82800  0.25000  1.0000
  Tl  Tl6       1.0  0.42800  0.33000  0.32200  1.0000
  Tl  Tl7       1.0  0.66300  0.94400  0.33600  1.0000
  Tl  Tl8       1.0  0.15100  0.27400  0.49900  1.0000
  Tl  Tl9       1.0  0.50000  0.00000  0.50000  1.0000
  Tl  Tl10      1.0  0.84900  0.72600  0.50100  1.0000
  Tl  Tl11      1.0  0.33700  0.05640  0.66400  1.0000
  Tl  Tl12      1.0  0.57200  0.67000  0.67800  1.0000
  Tl  Tl13      1.0  0.92200  0.17200  0.75000  1.0000
  Tl  Tl14      1.0  0.49200  0.89300  0.82200  1.0000
  Tl  Tl15      1.0  0.89200  0.67200  0.83600  1.0000
  Tl  Tl16      1.0  0.72500  0.34800  0.99900  1.0000
