data_image0
_chemical_formula_structural       Ge8P16Sr12
_chemical_formula_sum              "Ge8 P16 Sr12"
_cell_length_a       7.48946
_cell_length_b       18.2335
_cell_length_c       7.30318
_cell_angle_alpha    90
_cell_angle_beta     112.011
_cell_angle_gamma    90

_space_group_name_H-M_alt    "P 1"
_space_group_IT_number       1

loop_
  _space_group_symop_operation_xyz
  'x, y, z'

loop_
  _atom_site_type_symbol
  _atom_site_label
  _atom_site_symmetry_multiplicity
  _atom_site_fract_x
  _atom_site_fract_y
  _atom_site_fract_z
  _atom_site_occupancy
  Ge  Ge1       1.0  0.21200  0.87300  0.02650  1.0000
  Ge  Ge2       1.0  0.68600  0.24200  0.09190  1.0000
  Ge  Ge3       1.0  0.31400  0.74200  0.40800  1.0000
  Ge  Ge4       1.0  0.78800  0.37300  0.47400  1.0000
  Ge  Ge5       1.0  0.21200  0.62700  0.52600  1.0000
  Ge  Ge6       1.0  0.68600  0.25800  0.59200  1.0000
  Ge  Ge7       1.0  0.31400  0.75800  0.90800  1.0000
  Ge  Ge8       1.0  0.78800  0.12700  0.97400  1.0000
  P   P1        1.0  0.49800  0.70000  0.21800  1.0000
  P   P2        1.0  0.04640  0.81500  0.21800  1.0000
  P   P3        1.0  0.49200  0.93200  0.23800  1.0000
  P   P4        1.0  0.99000  0.06020  0.24300  1.0000
  P   P5        1.0  0.00967  0.56000  0.25700  1.0000
  P   P6        1.0  0.50800  0.43200  0.26200  1.0000
  P   P7        1.0  0.95400  0.31500  0.28200  1.0000
  P   P8        1.0  0.50200  0.20000  0.28200  1.0000
  P   P9        1.0  0.49800  0.80000  0.71800  1.0000
  P   P10       1.0  0.04640  0.68500  0.71800  1.0000
  P   P11       1.0  0.49200  0.56800  0.73800  1.0000
  P   P12       1.0  0.99000  0.44000  0.74300  1.0000
  P   P13       1.0  0.00967  0.94000  0.75700  1.0000
  P   P14       1.0  0.50800  0.06840  0.76200  1.0000
  P   P15       1.0  0.95400  0.18500  0.78200  1.0000
  P   P16       1.0  0.50200  0.30000  0.78200  1.0000
  Sr  Sr1       1.0  0.26100  0.55800  0.00488  1.0000
  Sr  Sr2       1.0  0.21600  0.31500  0.01090  1.0000
  Sr  Sr3       1.0  0.25700  0.06370  0.01210  1.0000
  Sr  Sr4       1.0  0.74300  0.56400  0.48800  1.0000
  Sr  Sr5       1.0  0.78400  0.81500  0.48900  1.0000
  Sr  Sr6       1.0  0.73900  0.05820  0.49500  1.0000
  Sr  Sr7       1.0  0.26100  0.94200  0.50500  1.0000
  Sr  Sr8       1.0  0.21600  0.18500  0.51100  1.0000
  Sr  Sr9       1.0  0.25700  0.43600  0.51200  1.0000
  Sr  Sr10      1.0  0.74300  0.93600  0.98800  1.0000
  Sr  Sr11      1.0  0.78400  0.68500  0.98900  1.0000
  Sr  Sr12      1.0  0.73900  0.44200  0.99500  1.0000
