data_image0
_chemical_formula_structural       Ce8Sc12Si16
_chemical_formula_sum              "Ce8 Sc12 Si16"
_cell_length_a       7.28298
_cell_length_b       14.2923
_cell_length_c       7.58129
_cell_angle_alpha    90
_cell_angle_beta     90
_cell_angle_gamma    90

_space_group_name_H-M_alt    "P 1"
_space_group_IT_number       1

loop_
  _space_group_symop_operation_xyz
  'x, y, z'

loop_
  _atom_site_type_symbol
  _atom_site_label
  _atom_site_symmetry_multiplicity
  _atom_site_fract_x
  _atom_site_fract_y
  _atom_site_fract_z
  _atom_site_occupancy
  Ce  Ce1       1.0  0.98800  0.59800  0.17200  1.0000
  Ce  Ce2       1.0  0.98800  0.90200  0.17200  1.0000
  Ce  Ce3       1.0  0.48800  0.59800  0.32800  1.0000
  Ce  Ce4       1.0  0.48800  0.90200  0.32800  1.0000
  Ce  Ce5       1.0  0.51200  0.09760  0.67200  1.0000
  Ce  Ce6       1.0  0.51200  0.40200  0.67200  1.0000
  Ce  Ce7       1.0  0.01160  0.09760  0.82800  1.0000
  Ce  Ce8       1.0  0.01160  0.40200  0.82800  1.0000
  Sc  Sc1       1.0  0.33900  0.25000  0.00140  1.0000
  Sc  Sc2       1.0  0.67100  0.12500  0.17600  1.0000
  Sc  Sc3       1.0  0.67100  0.37500  0.17600  1.0000
  Sc  Sc4       1.0  0.17100  0.12500  0.32400  1.0000
  Sc  Sc5       1.0  0.17100  0.37500  0.32400  1.0000
  Sc  Sc6       1.0  0.83900  0.25000  0.49900  1.0000
  Sc  Sc7       1.0  0.16100  0.75000  0.50100  1.0000
  Sc  Sc8       1.0  0.82900  0.62500  0.67600  1.0000
  Sc  Sc9       1.0  0.82900  0.87500  0.67600  1.0000
  Sc  Sc10      1.0  0.32900  0.62500  0.82400  1.0000
  Sc  Sc11      1.0  0.32900  0.87500  0.82400  1.0000
  Sc  Sc12      1.0  0.66100  0.75000  0.99900  1.0000
  Si  Si1       1.0  0.35000  0.03980  0.03750  1.0000
  Si  Si2       1.0  0.35000  0.46000  0.03750  1.0000
  Si  Si3       1.0  0.28900  0.75000  0.11500  1.0000
  Si  Si4       1.0  0.96600  0.25000  0.12700  1.0000
  Si  Si5       1.0  0.46600  0.25000  0.37300  1.0000
  Si  Si6       1.0  0.78900  0.75000  0.38500  1.0000
  Si  Si7       1.0  0.85000  0.03980  0.46200  1.0000
  Si  Si8       1.0  0.85000  0.46000  0.46200  1.0000
  Si  Si9       1.0  0.15000  0.54000  0.53800  1.0000
  Si  Si10      1.0  0.15000  0.96000  0.53800  1.0000
  Si  Si11      1.0  0.21100  0.25000  0.61500  1.0000
  Si  Si12      1.0  0.53400  0.75000  0.62700  1.0000
  Si  Si13      1.0  0.03440  0.75000  0.87300  1.0000
  Si  Si14      1.0  0.71100  0.25000  0.88500  1.0000
  Si  Si15      1.0  0.65000  0.54000  0.96200  1.0000
  Si  Si16      1.0  0.65000  0.96000  0.96200  1.0000
