data_image0
_chemical_formula_structural       F24N4Re4
_chemical_formula_sum              "F24 N4 Re4"
_cell_length_a       4.7196
_cell_length_b       8.29647
_cell_length_c       8.6916
_cell_angle_alpha    89.9934
_cell_angle_beta     106.5
_cell_angle_gamma    90.001

_space_group_name_H-M_alt    "P 1"
_space_group_IT_number       1

loop_
  _space_group_symop_operation_xyz
  'x, y, z'

loop_
  _atom_site_type_symbol
  _atom_site_label
  _atom_site_symmetry_multiplicity
  _atom_site_fract_x
  _atom_site_fract_y
  _atom_site_fract_z
  _atom_site_occupancy
  F   F1        1.0  0.10300  0.65700  0.00571  1.0000
  F   F2        1.0  0.31800  0.95200  0.05920  1.0000
  F   F3        1.0  0.68300  0.73100  0.10800  1.0000
  F   F4        1.0  0.45100  0.46600  0.13600  1.0000
  F   F5        1.0  0.64100  0.19800  0.19700  1.0000
  F   F6        1.0  0.99400  0.97400  0.24600  1.0000
  F   F7        1.0  0.00623  0.47400  0.25400  1.0000
  F   F8        1.0  0.35900  0.69800  0.30200  1.0000
  F   F9        1.0  0.54900  0.96600  0.36400  1.0000
  F   F10       1.0  0.31800  0.23100  0.39200  1.0000
  F   F11       1.0  0.68200  0.45300  0.44100  1.0000
  F   F12       1.0  0.89700  0.15800  0.49400  1.0000
  F   F13       1.0  0.10300  0.84300  0.50600  1.0000
  F   F14       1.0  0.31800  0.54800  0.55900  1.0000
  F   F15       1.0  0.68300  0.76900  0.60800  1.0000
  F   F16       1.0  0.45100  0.03380  0.63600  1.0000
  F   F17       1.0  0.64100  0.30200  0.69700  1.0000
  F   F18       1.0  0.99400  0.52600  0.74600  1.0000
  F   F19       1.0  0.00628  0.02640  0.75400  1.0000
  F   F20       1.0  0.35800  0.80200  0.80200  1.0000
  F   F21       1.0  0.54900  0.53400  0.86400  1.0000
  F   F22       1.0  0.31800  0.26900  0.89200  1.0000
  F   F23       1.0  0.68200  0.04680  0.94100  1.0000
  F   F24       1.0  0.89700  0.34200  0.99400  1.0000
  N   N1        1.0  0.06180  0.23600  0.08340  1.0000
  N   N2        1.0  0.93800  0.73700  0.41600  1.0000
  N   N3        1.0  0.06180  0.26400  0.58300  1.0000
  N   N4        1.0  0.93800  0.76300  0.91600  1.0000
  Re  Re1       1.0  0.29300  0.10400  0.21300  1.0000
  Re  Re2       1.0  0.70700  0.60400  0.28700  1.0000
  Re  Re3       1.0  0.29300  0.39600  0.71300  1.0000
  Re  Re4       1.0  0.70700  0.89600  0.78700  1.0000
