data_image0
_chemical_formula_structural       Al6F24K4Na2
_chemical_formula_sum              "Al6 F24 K4 Na2"
_cell_length_a       11.6583
_cell_length_b       6.86245
_cell_length_c       6.62607
_cell_angle_alpha    90
_cell_angle_beta     126.381
_cell_angle_gamma    90

_space_group_name_H-M_alt    "P 1"
_space_group_IT_number       1

loop_
  _space_group_symop_operation_xyz
  'x, y, z'

loop_
  _atom_site_type_symbol
  _atom_site_label
  _atom_site_symmetry_multiplicity
  _atom_site_fract_x
  _atom_site_fract_y
  _atom_site_fract_z
  _atom_site_occupancy
  Al  Al1       1.0  0.71200  0.75000  0.38900  1.0000
  Al  Al2       1.0  0.00000  0.00000  0.50000  1.0000
  Al  Al3       1.0  0.00000  0.50000  0.50000  1.0000
  Al  Al4       1.0  0.50000  0.00000  0.50000  1.0000
  Al  Al5       1.0  0.50000  0.50000  0.50000  1.0000
  Al  Al6       1.0  0.28800  0.25000  0.61100  1.0000
  F   F1        1.0  0.60700  0.75000  0.06020  1.0000
  F   F2        1.0  0.33700  0.54700  0.20400  1.0000
  F   F3        1.0  0.33700  0.95300  0.20400  1.0000
  F   F4        1.0  0.96100  0.55100  0.20500  1.0000
  F   F5        1.0  0.96100  0.94900  0.20500  1.0000
  F   F6        1.0  0.17500  0.25000  0.28600  1.0000
  F   F7        1.0  0.59800  0.55600  0.36900  1.0000
  F   F8        1.0  0.59800  0.94400  0.36900  1.0000
  F   F9        1.0  0.81700  0.55800  0.37600  1.0000
  F   F10       1.0  0.81700  0.94200  0.37600  1.0000
  F   F11       1.0  0.94000  0.25000  0.39200  1.0000
  F   F12       1.0  0.48900  0.25000  0.40800  1.0000
  F   F13       1.0  0.51100  0.75000  0.59200  1.0000
  F   F14       1.0  0.06050  0.75000  0.60800  1.0000
  F   F15       1.0  0.18300  0.05760  0.62400  1.0000
  F   F16       1.0  0.18300  0.44200  0.62400  1.0000
  F   F17       1.0  0.40200  0.05580  0.63100  1.0000
  F   F18       1.0  0.40200  0.44400  0.63100  1.0000
  F   F19       1.0  0.82500  0.75000  0.71400  1.0000
  F   F20       1.0  0.03950  0.05140  0.79500  1.0000
  F   F21       1.0  0.03950  0.44900  0.79500  1.0000
  F   F22       1.0  0.66300  0.04720  0.79600  1.0000
  F   F23       1.0  0.66300  0.45300  0.79600  1.0000
  F   F24       1.0  0.39300  0.25000  0.94000  1.0000
  K   K1        1.0  0.11100  0.75000  0.09960  1.0000
  K   K2        1.0  0.64800  0.25000  0.12000  1.0000
  K   K3        1.0  0.35200  0.75000  0.88000  1.0000
  K   K4        1.0  0.88900  0.25000  0.90000  1.0000
  Na  Na1       1.0  0.23400  0.25000  0.02810  1.0000
  Na  Na2       1.0  0.76600  0.75000  0.97200  1.0000
