data_image0
_chemical_formula_structural       Al4C6Zr3
_chemical_formula_sum              "Al4 C6 Zr3"
_cell_length_a       3.34644
_cell_length_b       3.34644
_cell_length_c       16.546
_cell_angle_alpha    90
_cell_angle_beta     95.804
_cell_angle_gamma    120

_space_group_name_H-M_alt    "P 1"
_space_group_IT_number       1

loop_
  _space_group_symop_operation_xyz
  'x, y, z'

loop_
  _atom_site_type_symbol
  _atom_site_label
  _atom_site_symmetry_multiplicity
  _atom_site_fract_x
  _atom_site_fract_y
  _atom_site_fract_z
  _atom_site_occupancy
  Al  Al1       1.0  0.14500  0.07230  0.21700  1.0000
  Al  Al2       1.0  0.90300  0.45200  0.35500  1.0000
  Al  Al3       1.0  0.31200  0.15600  0.46800  1.0000
  Al  Al4       1.0  0.07100  0.53600  0.60700  1.0000
  C   C1        1.0  0.99700  0.99800  0.99500  1.0000
  C   C2        1.0  0.77500  0.38800  0.16300  1.0000
  C   C3        1.0  0.22400  0.11200  0.33500  1.0000
  C   C4        1.0  0.99200  0.49600  0.48800  1.0000
  C   C5        1.0  0.44000  0.22000  0.66000  1.0000
  C   C6        1.0  0.21900  0.61000  0.82900  1.0000
  Zr  Zr1       1.0  0.38500  0.69200  0.07700  1.0000
  Zr  Zr2       1.0  0.83100  0.91600  0.74700  1.0000
  Zr  Zr3       1.0  0.60800  0.30400  0.91200  1.0000
