data_image0
_chemical_formula_structural       Si16Ti20
_chemical_formula_sum              "Si16 Ti20"
_cell_length_a       6.70023
_cell_length_b       6.70023
_cell_length_c       12.171
_cell_angle_alpha    90
_cell_angle_beta     90
_cell_angle_gamma    90

_space_group_name_H-M_alt    "P 1"
_space_group_IT_number       1

loop_
  _space_group_symop_operation_xyz
  'x, y, z'

loop_
  _atom_site_type_symbol
  _atom_site_label
  _atom_site_symmetry_multiplicity
  _atom_site_fract_x
  _atom_site_fract_y
  _atom_site_fract_z
  _atom_site_occupancy
  Si  Si1       1.0  0.19800  0.54400  0.06340  1.0000
  Si  Si2       1.0  0.79400  0.14200  0.07800  1.0000
  Si  Si3       1.0  0.70600  0.64200  0.17200  1.0000
  Si  Si4       1.0  0.30200  0.04380  0.18700  1.0000
  Si  Si5       1.0  0.95600  0.69800  0.31300  1.0000
  Si  Si6       1.0  0.35800  0.29400  0.32800  1.0000
  Si  Si7       1.0  0.85800  0.20600  0.42200  1.0000
  Si  Si8       1.0  0.45600  0.80200  0.43700  1.0000
  Si  Si9       1.0  0.80200  0.45600  0.56300  1.0000
  Si  Si10      1.0  0.20600  0.85800  0.57800  1.0000
  Si  Si11      1.0  0.29400  0.35800  0.67200  1.0000
  Si  Si12      1.0  0.69800  0.95600  0.68700  1.0000
  Si  Si13      1.0  0.04380  0.30200  0.81300  1.0000
  Si  Si14      1.0  0.64200  0.70600  0.82800  1.0000
  Si  Si15      1.0  0.14200  0.79400  0.92200  1.0000
  Si  Si16      1.0  0.54400  0.19800  0.93700  1.0000
  Ti  Ti1       1.0  0.17000  0.17000  0.00000  1.0000
  Ti  Ti2       1.0  0.49700  0.84500  0.03160  1.0000
  Ti  Ti3       1.0  0.00456  0.85100  0.12200  1.0000
  Ti  Ti4       1.0  0.49500  0.35100  0.12800  1.0000
  Ti  Ti5       1.0  0.00289  0.34500  0.21800  1.0000
  Ti  Ti6       1.0  0.33000  0.67000  0.25000  1.0000
  Ti  Ti7       1.0  0.65500  0.99700  0.28200  1.0000
  Ti  Ti8       1.0  0.64900  0.50500  0.37200  1.0000
  Ti  Ti9       1.0  0.14900  0.99500  0.37800  1.0000
  Ti  Ti10      1.0  0.15500  0.50300  0.46800  1.0000
  Ti  Ti11      1.0  0.83000  0.83000  0.50000  1.0000
  Ti  Ti12      1.0  0.50300  0.15500  0.53200  1.0000
  Ti  Ti13      1.0  0.99500  0.14900  0.62200  1.0000
  Ti  Ti14      1.0  0.50500  0.64900  0.62800  1.0000
  Ti  Ti15      1.0  0.99700  0.65500  0.71800  1.0000
  Ti  Ti16      1.0  0.67000  0.33000  0.75000  1.0000
  Ti  Ti17      1.0  0.34500  0.00289  0.78200  1.0000
  Ti  Ti18      1.0  0.35100  0.49500  0.87200  1.0000
  Ti  Ti19      1.0  0.85100  0.00456  0.87800  1.0000
  Ti  Ti20      1.0  0.84500  0.49700  0.96800  1.0000
