data_image0
_chemical_formula_structural       B16Ru16Y4
_chemical_formula_sum              "B16 Ru16 Y4"
_cell_length_a       7.48848
_cell_length_b       7.48848
_cell_length_c       9.20264
_cell_angle_alpha    114.008
_cell_angle_beta     114.008
_cell_angle_gamma    90

_space_group_name_H-M_alt    "P 1"
_space_group_IT_number       1

loop_
  _space_group_symop_operation_xyz
  'x, y, z'

loop_
  _atom_site_type_symbol
  _atom_site_label
  _atom_site_symmetry_multiplicity
  _atom_site_fract_x
  _atom_site_fract_y
  _atom_site_fract_z
  _atom_site_occupancy
  B   B1        1.0  0.25000  0.22200  0.16300  1.0000
  B   B2        1.0  0.75000  0.44100  0.16300  1.0000
  B   B3        1.0  0.41300  0.72200  0.16300  1.0000
  B   B4        1.0  0.91300  0.94100  0.16300  1.0000
  B   B5        1.0  0.83700  0.02790  0.33700  1.0000
  B   B6        1.0  0.50000  0.30900  0.33700  1.0000
  B   B7        1.0  0.00015  0.52800  0.33700  1.0000
  B   B8        1.0  0.33700  0.80900  0.33700  1.0000
  B   B9        1.0  0.69100  0.16300  0.66300  1.0000
  B   B10       1.0  0.97200  0.50000  0.66300  1.0000
  B   B11       1.0  0.47200  0.66300  0.66300  1.0000
  B   B12       1.0  0.19100  0.00000  0.66300  1.0000
  B   B13       1.0  0.77800  0.08660  0.83700  1.0000
  B   B14       1.0  0.27800  0.25000  0.83700  1.0000
  B   B15       1.0  0.55900  0.58700  0.83700  1.0000
  B   B16       1.0  0.05890  0.75000  0.83700  1.0000
  Ru  Ru1       1.0  0.94600  0.21000  0.12400  1.0000
  Ru  Ru2       1.0  0.44600  0.41400  0.12400  1.0000
  Ru  Ru3       1.0  0.67700  0.71000  0.12400  1.0000
  Ru  Ru4       1.0  0.17700  0.91400  0.12400  1.0000
  Ru  Ru5       1.0  0.57300  0.04020  0.37600  1.0000
  Ru  Ru6       1.0  0.80400  0.33600  0.37600  1.0000
  Ru  Ru7       1.0  0.30400  0.54000  0.37600  1.0000
  Ru  Ru8       1.0  0.07280  0.83600  0.37600  1.0000
  Ru  Ru9       1.0  0.96000  0.19600  0.62400  1.0000
  Ru  Ru10      1.0  0.66400  0.42700  0.62400  1.0000
  Ru  Ru11      1.0  0.16400  0.69600  0.62400  1.0000
  Ru  Ru12      1.0  0.46000  0.92700  0.62400  1.0000
  Ru  Ru13      1.0  0.08620  0.05360  0.87600  1.0000
  Ru  Ru14      1.0  0.58600  0.32300  0.87600  1.0000
  Ru  Ru15      1.0  0.29000  0.55400  0.87600  1.0000
  Ru  Ru16      1.0  0.79000  0.82300  0.87600  1.0000
  Y   Y1        1.0  0.50000  0.00000  0.00000  1.0000
  Y   Y2        1.0  0.00000  0.50000  0.00000  1.0000
  Y   Y3        1.0  0.25000  0.25000  0.50000  1.0000
  Y   Y4        1.0  0.75000  0.75000  0.50000  1.0000
