data_image0
_chemical_formula_structural       K4Mo6O24Th2
_chemical_formula_sum              "K4 Mo6 O24 Th2"
_cell_length_a       5.34977
_cell_length_b       10.6391
_cell_length_c       10.6391
_cell_angle_alpha    68.6602
_cell_angle_beta     103.11
_cell_angle_gamma    103.11

_space_group_name_H-M_alt    "P 1"
_space_group_IT_number       1

loop_
  _space_group_symop_operation_xyz
  'x, y, z'

loop_
  _atom_site_type_symbol
  _atom_site_label
  _atom_site_symmetry_multiplicity
  _atom_site_fract_x
  _atom_site_fract_y
  _atom_site_fract_z
  _atom_site_occupancy
  K   K1        1.0  0.92400  0.29000  0.04640  1.0000
  K   K2        1.0  0.42400  0.04640  0.29000  1.0000
  K   K3        1.0  0.57600  0.95400  0.71000  1.0000
  K   K4        1.0  0.07590  0.71000  0.95400  1.0000
  Mo  Mo1       1.0  0.75000  0.86300  0.13700  1.0000
  Mo  Mo2       1.0  0.59800  0.45400  0.22900  1.0000
  Mo  Mo3       1.0  0.09850  0.22900  0.45400  1.0000
  Mo  Mo4       1.0  0.90200  0.77100  0.54600  1.0000
  Mo  Mo5       1.0  0.40200  0.54600  0.77100  1.0000
  Mo  Mo6       1.0  0.25000  0.13700  0.86300  1.0000
  O   O1        1.0  0.44600  0.12800  0.02070  1.0000
  O   O2        1.0  0.74900  0.49200  0.08760  1.0000
  O   O3        1.0  0.94600  0.02070  0.12800  1.0000
  O   O4        1.0  0.95500  0.73100  0.17900  1.0000
  O   O5        1.0  0.39800  0.58300  0.19700  1.0000
  O   O6        1.0  0.37600  0.30100  0.24600  1.0000
  O   O7        1.0  0.54500  0.82100  0.26900  1.0000
  O   O8        1.0  0.87600  0.24600  0.30100  1.0000
  O   O9        1.0  0.84500  0.46500  0.38600  1.0000
  O   O10       1.0  0.10200  0.80300  0.41700  1.0000
  O   O11       1.0  0.34500  0.38600  0.46500  1.0000
  O   O12       1.0  0.24900  0.08760  0.49200  1.0000
  O   O13       1.0  0.75100  0.91200  0.50800  1.0000
  O   O14       1.0  0.65500  0.61400  0.53500  1.0000
  O   O15       1.0  0.89800  0.19700  0.58300  1.0000
  O   O16       1.0  0.15500  0.53500  0.61400  1.0000
  O   O17       1.0  0.12400  0.75400  0.69900  1.0000
  O   O18       1.0  0.45500  0.17900  0.73100  1.0000
  O   O19       1.0  0.62400  0.69900  0.75400  1.0000
  O   O20       1.0  0.60200  0.41700  0.80300  1.0000
  O   O21       1.0  0.04520  0.26900  0.82100  1.0000
  O   O22       1.0  0.05370  0.97900  0.87200  1.0000
  O   O23       1.0  0.25100  0.50800  0.91200  1.0000
  O   O24       1.0  0.55400  0.87200  0.97900  1.0000
  Th  Th1       1.0  0.25000  0.62900  0.37100  1.0000
  Th  Th2       1.0  0.75000  0.37100  0.62900  1.0000
