data_image0
_chemical_formula_structural       O5Pb2
_chemical_formula_sum              "O5 Pb2"
_cell_length_a       6.11942
_cell_length_b       6.11942
_cell_length_c       3.98829
_cell_angle_alpha    105.768
_cell_angle_beta     105.768
_cell_angle_gamma    121.725

_space_group_name_H-M_alt    "P 1"
_space_group_IT_number       1

loop_
  _space_group_symop_operation_xyz
  'x, y, z'

loop_
  _atom_site_type_symbol
  _atom_site_label
  _atom_site_symmetry_multiplicity
  _atom_site_fract_x
  _atom_site_fract_y
  _atom_site_fract_z
  _atom_site_occupancy
  O   O1        1.0  0.93600  0.58600  0.27400  1.0000
  O   O2        1.0  0.58600  0.93600  0.27400  1.0000
  O   O3        1.0  0.39200  0.08640  0.73400  1.0000
  O   O4        1.0  0.08640  0.39200  0.73400  1.0000
  O   O5        1.0  0.78700  0.78700  0.79000  1.0000
  Pb  Pb1       1.0  0.81000  0.15600  0.97200  1.0000
  Pb  Pb2       1.0  0.15600  0.81000  0.97200  1.0000
