data_image0
_chemical_formula_structural       Ba8Ge8Te20
_chemical_formula_sum              "Ba8 Ge8 Te20"
_cell_length_a       13.5924
_cell_length_b       9.3416
_cell_length_c       10.0909
_cell_angle_alpha    90
_cell_angle_beta     90
_cell_angle_gamma    90

_space_group_name_H-M_alt    "P 1"
_space_group_IT_number       1

loop_
  _space_group_symop_operation_xyz
  'x, y, z'

loop_
  _atom_site_type_symbol
  _atom_site_label
  _atom_site_symmetry_multiplicity
  _atom_site_fract_x
  _atom_site_fract_y
  _atom_site_fract_z
  _atom_site_occupancy
  Ba  Ba1       1.0  0.16600  0.10300  0.42000  1.0000
  Ba  Ba2       1.0  0.66600  0.39700  0.42000  1.0000
  Ba  Ba3       1.0  0.31800  0.56000  0.43700  1.0000
  Ba  Ba4       1.0  0.81800  0.94000  0.43700  1.0000
  Ba  Ba5       1.0  0.33400  0.60300  0.92000  1.0000
  Ba  Ba6       1.0  0.83400  0.89700  0.92000  1.0000
  Ba  Ba7       1.0  0.18200  0.05960  0.93700  1.0000
  Ba  Ba8       1.0  0.68200  0.44000  0.93700  1.0000
  Ge  Ge1       1.0  0.06410  0.52300  0.06300  1.0000
  Ge  Ge2       1.0  0.56400  0.97700  0.06300  1.0000
  Ge  Ge3       1.0  0.97800  0.67800  0.23000  1.0000
  Ge  Ge4       1.0  0.47800  0.82200  0.23000  1.0000
  Ge  Ge5       1.0  0.43600  0.02310  0.56300  1.0000
  Ge  Ge6       1.0  0.93600  0.47700  0.56300  1.0000
  Ge  Ge7       1.0  0.52200  0.17800  0.73000  1.0000
  Ge  Ge8       1.0  0.02250  0.32200  0.73000  1.0000
  Te  Te1       1.0  0.71300  0.12500  0.15700  1.0000
  Te  Te2       1.0  0.21300  0.37500  0.15700  1.0000
  Te  Te3       1.0  0.50400  0.54600  0.18200  1.0000
  Te  Te4       1.0  0.00430  0.95400  0.18200  1.0000
  Te  Te5       1.0  0.78500  0.65700  0.20300  1.0000
  Te  Te6       1.0  0.28500  0.84300  0.20300  1.0000
  Te  Te7       1.0  0.41800  0.20000  0.36400  1.0000
  Te  Te8       1.0  0.91800  0.30000  0.36400  1.0000
  Te  Te9       1.0  0.05520  0.67900  0.47300  1.0000
  Te  Te10      1.0  0.55500  0.82100  0.47300  1.0000
  Te  Te11      1.0  0.78700  0.62500  0.65700  1.0000
  Te  Te12      1.0  0.28700  0.87500  0.65700  1.0000
  Te  Te13      1.0  0.99600  0.04590  0.68200  1.0000
  Te  Te14      1.0  0.49600  0.45400  0.68200  1.0000
  Te  Te15      1.0  0.71500  0.15700  0.70300  1.0000
  Te  Te16      1.0  0.21500  0.34300  0.70300  1.0000
  Te  Te17      1.0  0.08200  0.70000  0.86400  1.0000
  Te  Te18      1.0  0.58200  0.80000  0.86400  1.0000
  Te  Te19      1.0  0.44500  0.17900  0.97300  1.0000
  Te  Te20      1.0  0.94500  0.32100  0.97300  1.0000
