data_image0
_chemical_formula_structural       As12Na20Sn4
_chemical_formula_sum              "As12 Na20 Sn4"
_cell_length_a       13.6252
_cell_length_b       7.57432
_cell_length_c       8.53567
_cell_angle_alpha    90
_cell_angle_beta     90.4157
_cell_angle_gamma    90

_space_group_name_H-M_alt    "P 1"
_space_group_IT_number       1

loop_
  _space_group_symop_operation_xyz
  'x, y, z'

loop_
  _atom_site_type_symbol
  _atom_site_label
  _atom_site_symmetry_multiplicity
  _atom_site_fract_x
  _atom_site_fract_y
  _atom_site_fract_z
  _atom_site_occupancy
  As  As1       1.0  0.42800  0.29000  0.09820  1.0000
  As  As2       1.0  0.74000  0.25200  0.10200  1.0000
  As  As3       1.0  0.08270  0.26800  0.14000  1.0000
  As  As4       1.0  0.41700  0.76800  0.36000  1.0000
  As  As5       1.0  0.76000  0.75200  0.39800  1.0000
  As  As6       1.0  0.07190  0.79000  0.40200  1.0000
  As  As7       1.0  0.92800  0.21000  0.59800  1.0000
  As  As8       1.0  0.24000  0.24800  0.60200  1.0000
  As  As9       1.0  0.58300  0.23200  0.64000  1.0000
  As  As10      1.0  0.91700  0.73200  0.86000  1.0000
  As  As11      1.0  0.26000  0.74800  0.89800  1.0000
  As  As12      1.0  0.57200  0.71000  0.90200  1.0000
  Na  Na1       1.0  0.75700  0.64300  0.07120  1.0000
  Na  Na2       1.0  0.08230  0.66100  0.07520  1.0000
  Na  Na3       1.0  0.91300  0.97600  0.16600  1.0000
  Na  Na4       1.0  0.25900  0.99500  0.16900  1.0000
  Na  Na5       1.0  0.58800  0.96200  0.18000  1.0000
  Na  Na6       1.0  0.91200  0.46200  0.32000  1.0000
  Na  Na7       1.0  0.24100  0.49500  0.33100  1.0000
  Na  Na8       1.0  0.58700  0.47600  0.33400  1.0000
  Na  Na9       1.0  0.41800  0.16100  0.42500  1.0000
  Na  Na10      1.0  0.74300  0.14300  0.42900  1.0000
  Na  Na11      1.0  0.25700  0.85700  0.57100  1.0000
  Na  Na12      1.0  0.58200  0.83900  0.57500  1.0000
  Na  Na13      1.0  0.41300  0.52400  0.66600  1.0000
  Na  Na14      1.0  0.75900  0.50500  0.66900  1.0000
  Na  Na15      1.0  0.08850  0.53800  0.68000  1.0000
  Na  Na16      1.0  0.41200  0.03770  0.82000  1.0000
  Na  Na17      1.0  0.74100  0.00481  0.83100  1.0000
  Na  Na18      1.0  0.08730  0.02360  0.83400  1.0000
  Na  Na19      1.0  0.91800  0.33900  0.92500  1.0000
  Na  Na20      1.0  0.24300  0.35700  0.92900  1.0000
  Sn  Sn1       1.0  0.41000  0.64800  0.07100  1.0000
  Sn  Sn2       1.0  0.09010  0.14800  0.42900  1.0000
  Sn  Sn3       1.0  0.91000  0.85200  0.57100  1.0000
  Sn  Sn4       1.0  0.59000  0.35200  0.92900  1.0000
