data_image0
_chemical_formula_structural       Au6C12Cs4N12Na2
_chemical_formula_sum              "Au6 C12 Cs4 N12 Na2"
_cell_length_a       6.94119
_cell_length_b       6.9412
_cell_length_c       18.4554
_cell_angle_alpha    90
_cell_angle_beta     90
_cell_angle_gamma    120

_space_group_name_H-M_alt    "P 1"
_space_group_IT_number       1

loop_
  _space_group_symop_operation_xyz
  'x, y, z'

loop_
  _atom_site_type_symbol
  _atom_site_label
  _atom_site_symmetry_multiplicity
  _atom_site_fract_x
  _atom_site_fract_y
  _atom_site_fract_z
  _atom_site_occupancy
  Au  Au1       1.0  0.17100  0.34200  0.25000  1.0000
  Au  Au2       1.0  0.17100  0.82900  0.25000  1.0000
  Au  Au3       1.0  0.65800  0.82900  0.25000  1.0000
  Au  Au4       1.0  0.34200  0.17100  0.75000  1.0000
  Au  Au5       1.0  0.82900  0.17100  0.75000  1.0000
  Au  Au6       1.0  0.82900  0.65800  0.75000  1.0000
  C   C1        1.0  0.16800  0.83200  0.14200  1.0000
  C   C2        1.0  0.66300  0.83200  0.14200  1.0000
  C   C3        1.0  0.16800  0.33700  0.14200  1.0000
  C   C4        1.0  0.16800  0.33700  0.35800  1.0000
  C   C5        1.0  0.16800  0.83200  0.35800  1.0000
  C   C6        1.0  0.66300  0.83200  0.35800  1.0000
  C   C7        1.0  0.33700  0.16800  0.64200  1.0000
  C   C8        1.0  0.83200  0.16800  0.64200  1.0000
  C   C9        1.0  0.83200  0.66300  0.64200  1.0000
  C   C10       1.0  0.83200  0.66300  0.85800  1.0000
  C   C11       1.0  0.33700  0.16800  0.85800  1.0000
  C   C12       1.0  0.83200  0.16800  0.85800  1.0000
  Cs  Cs1       1.0  0.66700  0.33300  0.05990  1.0000
  Cs  Cs2       1.0  0.66700  0.33300  0.44000  1.0000
  Cs  Cs3       1.0  0.33300  0.66700  0.56000  1.0000
  Cs  Cs4       1.0  0.33300  0.66700  0.94000  1.0000
  N   N1        1.0  0.16500  0.32900  0.07890  1.0000
  N   N2        1.0  0.16500  0.83500  0.07890  1.0000
  N   N3        1.0  0.67100  0.83500  0.07890  1.0000
  N   N4        1.0  0.16500  0.32900  0.42100  1.0000
  N   N5        1.0  0.16500  0.83500  0.42100  1.0000
  N   N6        1.0  0.67100  0.83500  0.42100  1.0000
  N   N7        1.0  0.32900  0.16500  0.57900  1.0000
  N   N8        1.0  0.83500  0.16500  0.57900  1.0000
  N   N9        1.0  0.83500  0.67100  0.57900  1.0000
  N   N10       1.0  0.32900  0.16500  0.92100  1.0000
  N   N11       1.0  0.83500  0.16500  0.92100  1.0000
  N   N12       1.0  0.83500  0.67100  0.92100  1.0000
  Na  Na1       1.0  0.00000  0.00000  0.00000  1.0000
  Na  Na2       1.0  0.00000  0.00000  0.50000  1.0000
