data_image0
_chemical_formula_structural       Al4Cl28Te4
_chemical_formula_sum              "Al4 Cl28 Te4"
_cell_length_a       6.60835
_cell_length_b       12.6544
_cell_length_c       13.6729
_cell_angle_alpha    90
_cell_angle_beta     105.827
_cell_angle_gamma    90

_space_group_name_H-M_alt    "P 1"
_space_group_IT_number       1

loop_
  _space_group_symop_operation_xyz
  'x, y, z'

loop_
  _atom_site_type_symbol
  _atom_site_label
  _atom_site_symmetry_multiplicity
  _atom_site_fract_x
  _atom_site_fract_y
  _atom_site_fract_z
  _atom_site_occupancy
  Al  Al1       1.0  0.62500  0.45800  0.22100  1.0000
  Al  Al2       1.0  0.37500  0.95800  0.27900  1.0000
  Al  Al3       1.0  0.62500  0.04150  0.72100  1.0000
  Al  Al4       1.0  0.37500  0.54200  0.77900  1.0000
  Cl  Cl1       1.0  0.20800  0.13100  0.00934  1.0000
  Cl  Cl2       1.0  0.11500  0.65500  0.03060  1.0000
  Cl  Cl3       1.0  0.42600  0.39600  0.07810  1.0000
  Cl  Cl4       1.0  0.81100  0.14600  0.12800  1.0000
  Cl  Cl5       1.0  0.48500  0.90300  0.15700  1.0000
  Cl  Cl6       1.0  0.62000  0.63000  0.21100  1.0000
  Cl  Cl7       1.0  0.94900  0.41000  0.23800  1.0000
  Cl  Cl8       1.0  0.05090  0.91000  0.26200  1.0000
  Cl  Cl9       1.0  0.38000  0.13000  0.28900  1.0000
  Cl  Cl10      1.0  0.51500  0.40300  0.34300  1.0000
  Cl  Cl11      1.0  0.18900  0.64600  0.37200  1.0000
  Cl  Cl12      1.0  0.57400  0.89600  0.42200  1.0000
  Cl  Cl13      1.0  0.88500  0.15500  0.46900  1.0000
  Cl  Cl14      1.0  0.79200  0.63100  0.49100  1.0000
  Cl  Cl15      1.0  0.20800  0.36900  0.50900  1.0000
  Cl  Cl16      1.0  0.11500  0.84500  0.53100  1.0000
  Cl  Cl17      1.0  0.42600  0.10400  0.57800  1.0000
  Cl  Cl18      1.0  0.81100  0.35400  0.62800  1.0000
  Cl  Cl19      1.0  0.48500  0.59700  0.65700  1.0000
  Cl  Cl20      1.0  0.62000  0.87000  0.71100  1.0000
  Cl  Cl21      1.0  0.94900  0.08990  0.73800  1.0000
  Cl  Cl22      1.0  0.05090  0.59000  0.76200  1.0000
  Cl  Cl23      1.0  0.38000  0.37000  0.78900  1.0000
  Cl  Cl24      1.0  0.51500  0.09710  0.84300  1.0000
  Cl  Cl25      1.0  0.18900  0.85400  0.87200  1.0000
  Cl  Cl26      1.0  0.57400  0.60400  0.92200  1.0000
  Cl  Cl27      1.0  0.88500  0.34500  0.96900  1.0000
  Cl  Cl28      1.0  0.79200  0.86900  0.99100  1.0000
  Te  Te1       1.0  0.08770  0.25200  0.10900  1.0000
  Te  Te2       1.0  0.91200  0.75200  0.39100  1.0000
  Te  Te3       1.0  0.08770  0.24800  0.60900  1.0000
  Te  Te4       1.0  0.91200  0.74800  0.89100  1.0000
