data_image0
_chemical_formula_structural       O5Rh2
_chemical_formula_sum              "O5 Rh2"
_cell_length_a       5.34171
_cell_length_b       5.34171
_cell_length_c       4.77678
_cell_angle_alpha    101.879
_cell_angle_beta     101.879
_cell_angle_gamma    118.261

_space_group_name_H-M_alt    "P 1"
_space_group_IT_number       1

loop_
  _space_group_symop_operation_xyz
  'x, y, z'

loop_
  _atom_site_type_symbol
  _atom_site_label
  _atom_site_symmetry_multiplicity
  _atom_site_fract_x
  _atom_site_fract_y
  _atom_site_fract_z
  _atom_site_occupancy
  O   O1        1.0  0.93000  0.55900  0.23000  1.0000
  O   O2        1.0  0.55900  0.93000  0.23000  1.0000
  O   O3        1.0  0.94800  0.39300  0.71200  1.0000
  O   O4        1.0  0.39300  0.94800  0.71200  1.0000
  O   O5        1.0  0.02720  0.02720  0.90000  1.0000
  Rh  Rh1       1.0  0.78100  0.16700  0.98600  1.0000
  Rh  Rh2       1.0  0.16700  0.78100  0.98600  1.0000
