data_image0
_chemical_formula_structural       B24Fe4Lu8
_chemical_formula_sum              "B24 Fe4 Lu8"
_cell_length_a       8.95637
_cell_length_b       11.3032
_cell_length_c       3.4702
_cell_angle_alpha    90
_cell_angle_beta     90
_cell_angle_gamma    90

_space_group_name_H-M_alt    "P 1"
_space_group_IT_number       1

loop_
  _space_group_symop_operation_xyz
  'x, y, z'

loop_
  _atom_site_type_symbol
  _atom_site_label
  _atom_site_symmetry_multiplicity
  _atom_site_fract_x
  _atom_site_fract_y
  _atom_site_fract_z
  _atom_site_occupancy
  B   B1        1.0  0.60800  0.02950  0.50000  1.0000
  B   B2        1.0  0.05420  0.06730  0.50000  1.0000
  B   B3        1.0  0.24800  0.08090  0.50000  1.0000
  B   B4        1.0  0.63200  0.18500  0.50000  1.0000
  B   B5        1.0  0.98500  0.21200  0.50000  1.0000
  B   B6        1.0  0.29100  0.23400  0.50000  1.0000
  B   B7        1.0  0.79100  0.26600  0.50000  1.0000
  B   B8        1.0  0.48500  0.28800  0.50000  1.0000
  B   B9        1.0  0.13200  0.31500  0.50000  1.0000
  B   B10       1.0  0.74800  0.41900  0.50000  1.0000
  B   B11       1.0  0.55400  0.43300  0.50000  1.0000
  B   B12       1.0  0.10800  0.47000  0.50000  1.0000
  B   B13       1.0  0.89200  0.53000  0.50000  1.0000
  B   B14       1.0  0.44600  0.56700  0.50000  1.0000
  B   B15       1.0  0.25200  0.58100  0.50000  1.0000
  B   B16       1.0  0.86800  0.68500  0.50000  1.0000
  B   B17       1.0  0.51500  0.71200  0.50000  1.0000
  B   B18       1.0  0.20900  0.73400  0.50000  1.0000
  B   B19       1.0  0.70900  0.76600  0.50000  1.0000
  B   B20       1.0  0.01490  0.78800  0.50000  1.0000
  B   B21       1.0  0.36800  0.81500  0.50000  1.0000
  B   B22       1.0  0.75200  0.91900  0.50000  1.0000
  B   B23       1.0  0.94600  0.93300  0.50000  1.0000
  B   B24       1.0  0.39200  0.97000  0.50000  1.0000
  Fe  Fe1       1.0  0.13900  0.18000  0.00000  1.0000
  Fe  Fe2       1.0  0.63900  0.32000  0.00000  1.0000
  Fe  Fe3       1.0  0.36100  0.68000  0.00000  1.0000
  Fe  Fe4       1.0  0.86100  0.82000  0.00000  1.0000
  Lu  Lu1       1.0  0.82300  0.08560  0.00000  1.0000
  Lu  Lu2       1.0  0.44400  0.12900  0.00000  1.0000
  Lu  Lu3       1.0  0.94400  0.37100  0.00000  1.0000
  Lu  Lu4       1.0  0.32300  0.41400  0.00000  1.0000
  Lu  Lu5       1.0  0.67700  0.58600  0.00000  1.0000
  Lu  Lu6       1.0  0.05640  0.62900  0.00000  1.0000
  Lu  Lu7       1.0  0.55600  0.87100  0.00000  1.0000
  Lu  Lu8       1.0  0.17700  0.91400  0.00000  1.0000
