data_image0
_chemical_formula_structural       B6Br2O18Sr10
_chemical_formula_sum              "B6 Br2 O18 Sr10"
_cell_length_a       7.49939
_cell_length_b       8.66859
_cell_length_c       8.66859
_cell_angle_alpha    109.346
_cell_angle_beta     90
_cell_angle_gamma    90

_space_group_name_H-M_alt    "P 1"
_space_group_IT_number       1

loop_
  _space_group_symop_operation_xyz
  'x, y, z'

loop_
  _atom_site_type_symbol
  _atom_site_label
  _atom_site_symmetry_multiplicity
  _atom_site_fract_x
  _atom_site_fract_y
  _atom_site_fract_z
  _atom_site_occupancy
  B   B1        1.0  0.47200  0.59200  0.01590  1.0000
  B   B2        1.0  0.50000  0.37100  0.37100  1.0000
  B   B3        1.0  0.02830  0.98400  0.40800  1.0000
  B   B4        1.0  0.52800  0.01590  0.59200  1.0000
  B   B5        1.0  0.00000  0.62900  0.62900  1.0000
  B   B6        1.0  0.97200  0.40800  0.98400  1.0000
  Br  Br1       1.0  0.75000  0.94000  0.06040  1.0000
  Br  Br2       1.0  0.25000  0.06040  0.94000  1.0000
  O   O1        1.0  0.38500  0.73600  0.02980  1.0000
  O   O2        1.0  0.01180  0.51900  0.13900  1.0000
  O   O3        1.0  0.51400  0.55600  0.15600  1.0000
  O   O4        1.0  0.11500  0.97000  0.26400  1.0000
  O   O5        1.0  0.66200  0.30700  0.30500  1.0000
  O   O6        1.0  0.33800  0.30500  0.30700  1.0000
  O   O7        1.0  0.98600  0.84400  0.44400  1.0000
  O   O8        1.0  0.48800  0.86100  0.48100  1.0000
  O   O9        1.0  0.00000  0.48900  0.48900  1.0000
  O   O10       1.0  0.50000  0.51100  0.51100  1.0000
  O   O11       1.0  0.98800  0.13900  0.51900  1.0000
  O   O12       1.0  0.48600  0.15600  0.55600  1.0000
  O   O13       1.0  0.83800  0.69500  0.69300  1.0000
  O   O14       1.0  0.16200  0.69300  0.69500  1.0000
  O   O15       1.0  0.61500  0.02980  0.73600  1.0000
  O   O16       1.0  0.01390  0.44400  0.84400  1.0000
  O   O17       1.0  0.51200  0.48100  0.86100  1.0000
  O   O18       1.0  0.88500  0.26400  0.97000  1.0000
  Sr  Sr1       1.0  0.57000  0.26600  0.00573  1.0000
  Sr  Sr2       1.0  0.00000  0.24200  0.24200  1.0000
  Sr  Sr3       1.0  0.43000  0.00573  0.26600  1.0000
  Sr  Sr4       1.0  0.25000  0.63800  0.36200  1.0000
  Sr  Sr5       1.0  0.75000  0.63700  0.36300  1.0000
  Sr  Sr6       1.0  0.25000  0.36300  0.63700  1.0000
  Sr  Sr7       1.0  0.75000  0.36200  0.63800  1.0000
  Sr  Sr8       1.0  0.93000  0.99400  0.73400  1.0000
  Sr  Sr9       1.0  0.50000  0.75800  0.75800  1.0000
  Sr  Sr10      1.0  0.07030  0.73400  0.99400  1.0000
