data_image0
_chemical_formula_structural       Se12Zr24
_chemical_formula_sum              "Se12 Zr24"
_cell_length_a       12.7073
_cell_length_b       15.8756
_cell_length_c       3.6314
_cell_angle_alpha    90
_cell_angle_beta     90
_cell_angle_gamma    90

_space_group_name_H-M_alt    "P 1"
_space_group_IT_number       1

loop_
  _space_group_symop_operation_xyz
  'x, y, z'

loop_
  _atom_site_type_symbol
  _atom_site_label
  _atom_site_symmetry_multiplicity
  _atom_site_fract_x
  _atom_site_fract_y
  _atom_site_fract_z
  _atom_site_occupancy
  Se  Se1       1.0  0.42000  0.20700  0.00000  1.0000
  Se  Se2       1.0  0.68300  0.34800  0.00000  1.0000
  Se  Se3       1.0  0.24600  0.42000  0.00000  1.0000
  Se  Se4       1.0  0.75400  0.58000  0.00000  1.0000
  Se  Se5       1.0  0.31700  0.65200  0.00000  1.0000
  Se  Se6       1.0  0.58000  0.79300  0.00000  1.0000
  Se  Se7       1.0  0.74600  0.08020  0.50000  1.0000
  Se  Se8       1.0  0.18300  0.15200  0.50000  1.0000
  Se  Se9       1.0  0.92000  0.29300  0.50000  1.0000
  Se  Se10      1.0  0.07950  0.70700  0.50000  1.0000
  Se  Se11      1.0  0.81700  0.84800  0.50000  1.0000
  Se  Se12      1.0  0.25400  0.92000  0.50000  1.0000
  Zr  Zr1       1.0  0.14900  0.02380  0.00000  1.0000
  Zr  Zr2       1.0  0.58300  0.08050  0.00000  1.0000
  Zr  Zr3       1.0  0.80100  0.20300  0.00000  1.0000
  Zr  Zr4       1.0  0.07710  0.25300  0.00000  1.0000
  Zr  Zr5       1.0  0.46800  0.39000  0.00000  1.0000
  Zr  Zr6       1.0  0.87700  0.42400  0.00000  1.0000
  Zr  Zr7       1.0  0.12300  0.57600  0.00000  1.0000
  Zr  Zr8       1.0  0.53200  0.61000  0.00000  1.0000
  Zr  Zr9       1.0  0.92300  0.74700  0.00000  1.0000
  Zr  Zr10      1.0  0.19900  0.79700  0.00000  1.0000
  Zr  Zr11      1.0  0.41700  0.92000  0.00000  1.0000
  Zr  Zr12      1.0  0.85100  0.97600  0.00000  1.0000
  Zr  Zr13      1.0  0.37700  0.07580  0.50000  1.0000
  Zr  Zr14      1.0  0.96800  0.11000  0.50000  1.0000
  Zr  Zr15      1.0  0.57700  0.24700  0.50000  1.0000
  Zr  Zr16      1.0  0.30100  0.29700  0.50000  1.0000
  Zr  Zr17      1.0  0.08320  0.42000  0.50000  1.0000
  Zr  Zr18      1.0  0.64900  0.47600  0.50000  1.0000
  Zr  Zr19      1.0  0.35100  0.52400  0.50000  1.0000
  Zr  Zr20      1.0  0.91700  0.58000  0.50000  1.0000
  Zr  Zr21      1.0  0.69900  0.70300  0.50000  1.0000
  Zr  Zr22      1.0  0.42300  0.75300  0.50000  1.0000
  Zr  Zr23      1.0  0.03240  0.89000  0.50000  1.0000
  Zr  Zr24      1.0  0.62300  0.92400  0.50000  1.0000
