data_image0
_chemical_formula_structural       O11Tc4
_chemical_formula_sum              "O11 Tc4"
_cell_length_a       10.4299
_cell_length_b       5.18125
_cell_length_c       4.75449
_cell_angle_alpha    103.416
_cell_angle_beta     99.1939
_cell_angle_gamma    118.578

_space_group_name_H-M_alt    "P 1"
_space_group_IT_number       1

loop_
  _space_group_symop_operation_xyz
  'x, y, z'

loop_
  _atom_site_type_symbol
  _atom_site_label
  _atom_site_symmetry_multiplicity
  _atom_site_fract_x
  _atom_site_fract_y
  _atom_site_fract_z
  _atom_site_occupancy
  O   O1        1.0  0.29400  0.95500  0.21300  1.0000
  O   O2        1.0  0.98400  0.59800  0.21900  1.0000
  O   O3        1.0  0.09670  0.18300  0.23200  1.0000
  O   O4        1.0  0.79300  0.99700  0.23500  1.0000
  O   O5        1.0  0.59700  0.19700  0.29700  1.0000
  O   O6        1.0  0.39900  0.77100  0.66200  1.0000
  O   O7        1.0  0.20700  0.98700  0.73300  1.0000
  O   O8        1.0  0.90900  0.82300  0.75200  1.0000
  O   O9        1.0  0.01760  0.40200  0.76000  1.0000
  O   O10       1.0  0.70900  0.04750  0.76100  1.0000
  O   O11       1.0  0.50400  0.48300  0.96500  1.0000
  Tc  Tc1       1.0  0.92600  0.18200  0.03150  1.0000
  Tc  Tc2       1.0  0.07840  0.81900  0.95300  1.0000
  Tc  Tc3       1.0  0.40800  0.07790  0.96400  1.0000
  Tc  Tc4       1.0  0.59100  0.89800  0.99300  1.0000
