data_image0
_chemical_formula_structural       F24K4Na4Sn4
_chemical_formula_sum              "F24 K4 Na4 Sn4"
_cell_length_a       11.2966
_cell_length_b       5.8513
_cell_length_c       7.8654
_cell_angle_alpha    90
_cell_angle_beta     90
_cell_angle_gamma    90

_space_group_name_H-M_alt    "P 1"
_space_group_IT_number       1

loop_
  _space_group_symop_operation_xyz
  'x, y, z'

loop_
  _atom_site_type_symbol
  _atom_site_label
  _atom_site_symmetry_multiplicity
  _atom_site_fract_x
  _atom_site_fract_y
  _atom_site_fract_z
  _atom_site_occupancy
  F   F1        1.0  0.98500  0.21000  0.04200  1.0000
  F   F2        1.0  0.48500  0.29000  0.04200  1.0000
  F   F3        1.0  0.71100  0.15400  0.07930  1.0000
  F   F4        1.0  0.21100  0.34600  0.07930  1.0000
  F   F5        1.0  0.64800  0.56200  0.23800  1.0000
  F   F6        1.0  0.14800  0.93800  0.23800  1.0000
  F   F7        1.0  0.36700  0.66900  0.26400  1.0000
  F   F8        1.0  0.86700  0.83100  0.26400  1.0000
  F   F9        1.0  0.95200  0.22700  0.44700  1.0000
  F   F10       1.0  0.45200  0.27300  0.44700  1.0000
  F   F11       1.0  0.70300  0.08600  0.45200  1.0000
  F   F12       1.0  0.20300  0.41400  0.45200  1.0000
  F   F13       1.0  0.51500  0.71000  0.54200  1.0000
  F   F14       1.0  0.01470  0.79000  0.54200  1.0000
  F   F15       1.0  0.78900  0.65400  0.57900  1.0000
  F   F16       1.0  0.28900  0.84600  0.57900  1.0000
  F   F17       1.0  0.85200  0.06240  0.73800  1.0000
  F   F18       1.0  0.35200  0.43800  0.73800  1.0000
  F   F19       1.0  0.13300  0.16900  0.76400  1.0000
  F   F20       1.0  0.63300  0.33100  0.76400  1.0000
  F   F21       1.0  0.54800  0.72700  0.94700  1.0000
  F   F22       1.0  0.04760  0.77300  0.94700  1.0000
  F   F23       1.0  0.79700  0.58600  0.95200  1.0000
  F   F24       1.0  0.29700  0.91400  0.95200  1.0000
  K   K1        1.0  0.03570  0.53900  0.24900  1.0000
  K   K2        1.0  0.53600  0.96100  0.24900  1.0000
  K   K3        1.0  0.46400  0.03930  0.74900  1.0000
  K   K4        1.0  0.96400  0.46100  0.74900  1.0000
  Na  Na1       1.0  0.14800  0.06430  0.49800  1.0000
  Na  Na2       1.0  0.64800  0.43600  0.49800  1.0000
  Na  Na3       1.0  0.35200  0.56400  0.99800  1.0000
  Na  Na4       1.0  0.85200  0.93600  0.99800  1.0000
  Sn  Sn1       1.0  0.14200  0.05460  0.00065  1.0000
  Sn  Sn2       1.0  0.64200  0.44500  0.00065  1.0000
  Sn  Sn3       1.0  0.35800  0.55500  0.50100  1.0000
  Sn  Sn4       1.0  0.85800  0.94500  0.50100  1.0000
