data_image0
_chemical_formula_structural       Ge4Na20P12
_chemical_formula_sum              "Ge4 Na20 P12"
_cell_length_a       13.1889
_cell_length_b       7.36891
_cell_length_c       8.07518
_cell_angle_alpha    90
_cell_angle_beta     90.2828
_cell_angle_gamma    90

_space_group_name_H-M_alt    "P 1"
_space_group_IT_number       1

loop_
  _space_group_symop_operation_xyz
  'x, y, z'

loop_
  _atom_site_type_symbol
  _atom_site_label
  _atom_site_symmetry_multiplicity
  _atom_site_fract_x
  _atom_site_fract_y
  _atom_site_fract_z
  _atom_site_occupancy
  Ge  Ge1       1.0  0.58600  0.85800  0.07250  1.0000
  Ge  Ge2       1.0  0.91400  0.35800  0.42700  1.0000
  Ge  Ge3       1.0  0.08580  0.64200  0.57300  1.0000
  Ge  Ge4       1.0  0.41400  0.14200  0.92700  1.0000
  Na  Na1       1.0  0.24100  0.84900  0.07600  1.0000
  Na  Na2       1.0  0.91900  0.83600  0.07920  1.0000
  Na  Na3       1.0  0.41600  0.53300  0.16800  1.0000
  Na  Na4       1.0  0.08810  0.51600  0.17400  1.0000
  Na  Na5       1.0  0.74200  0.50600  0.18100  1.0000
  Na  Na6       1.0  0.75800  0.00586  0.31900  1.0000
  Na  Na7       1.0  0.41200  0.01600  0.32600  1.0000
  Na  Na8       1.0  0.08450  0.03290  0.33200  1.0000
  Na  Na9       1.0  0.58100  0.33600  0.42100  1.0000
  Na  Na10      1.0  0.25900  0.34900  0.42400  1.0000
  Na  Na11      1.0  0.74100  0.65100  0.57600  1.0000
  Na  Na12      1.0  0.41900  0.66400  0.57900  1.0000
  Na  Na13      1.0  0.91600  0.96700  0.66800  1.0000
  Na  Na14      1.0  0.58800  0.98400  0.67400  1.0000
  Na  Na15      1.0  0.24200  0.99400  0.68100  1.0000
  Na  Na16      1.0  0.25800  0.49400  0.81900  1.0000
  Na  Na17      1.0  0.91200  0.48400  0.82600  1.0000
  Na  Na18      1.0  0.58400  0.46700  0.83200  1.0000
  Na  Na19      1.0  0.08100  0.16400  0.92100  1.0000
  Na  Na20      1.0  0.75900  0.15100  0.92400  1.0000
  P   P1        1.0  0.27300  0.23600  0.08410  1.0000
  P   P2        1.0  0.56700  0.18700  0.08720  1.0000
  P   P3        1.0  0.92000  0.23800  0.15500  1.0000
  P   P4        1.0  0.58000  0.73800  0.34500  1.0000
  P   P5        1.0  0.93300  0.68700  0.41300  1.0000
  P   P6        1.0  0.22700  0.73600  0.41600  1.0000
  P   P7        1.0  0.77300  0.26400  0.58400  1.0000
  P   P8        1.0  0.06720  0.31300  0.58700  1.0000
  P   P9        1.0  0.42000  0.26200  0.65500  1.0000
  P   P10       1.0  0.08030  0.76200  0.84500  1.0000
  P   P11       1.0  0.43300  0.81300  0.91300  1.0000
  P   P12       1.0  0.72700  0.76400  0.91600  1.0000
