data_image0
_chemical_formula_structural       Au16Yb20
_chemical_formula_sum              "Au16 Yb20"
_cell_length_a       7.71398
_cell_length_b       14.9121
_cell_length_c       7.85387
_cell_angle_alpha    90
_cell_angle_beta     90
_cell_angle_gamma    90

_space_group_name_H-M_alt    "P 1"
_space_group_IT_number       1

loop_
  _space_group_symop_operation_xyz
  'x, y, z'

loop_
  _atom_site_type_symbol
  _atom_site_label
  _atom_site_symmetry_multiplicity
  _atom_site_fract_x
  _atom_site_fract_y
  _atom_site_fract_z
  _atom_site_occupancy
  Au  Au1       1.0  0.31300  0.04250  0.03190  1.0000
  Au  Au2       1.0  0.31300  0.45700  0.03190  1.0000
  Au  Au3       1.0  0.94900  0.25000  0.11900  1.0000
  Au  Au4       1.0  0.31800  0.75000  0.14100  1.0000
  Au  Au5       1.0  0.81800  0.75000  0.35900  1.0000
  Au  Au6       1.0  0.44900  0.25000  0.38100  1.0000
  Au  Au7       1.0  0.81300  0.04250  0.46800  1.0000
  Au  Au8       1.0  0.81300  0.45700  0.46800  1.0000
  Au  Au9       1.0  0.18700  0.54300  0.53200  1.0000
  Au  Au10      1.0  0.18700  0.95700  0.53200  1.0000
  Au  Au11      1.0  0.55100  0.75000  0.61900  1.0000
  Au  Au12      1.0  0.18200  0.25000  0.64100  1.0000
  Au  Au13      1.0  0.68200  0.25000  0.85900  1.0000
  Au  Au14      1.0  0.05100  0.75000  0.88100  1.0000
  Au  Au15      1.0  0.68700  0.54300  0.96800  1.0000
  Au  Au16      1.0  0.68700  0.95700  0.96800  1.0000
  Yb  Yb1       1.0  0.68700  0.75000  0.00650  1.0000
  Yb  Yb2       1.0  0.65000  0.12200  0.16500  1.0000
  Yb  Yb3       1.0  0.65000  0.37800  0.16500  1.0000
  Yb  Yb4       1.0  0.01100  0.59600  0.17700  1.0000
  Yb  Yb5       1.0  0.01100  0.90400  0.17700  1.0000
  Yb  Yb6       1.0  0.51100  0.59600  0.32300  1.0000
  Yb  Yb7       1.0  0.51100  0.90400  0.32300  1.0000
  Yb  Yb8       1.0  0.15000  0.12200  0.33500  1.0000
  Yb  Yb9       1.0  0.15000  0.37800  0.33500  1.0000
  Yb  Yb10      1.0  0.18700  0.75000  0.49400  1.0000
  Yb  Yb11      1.0  0.81300  0.25000  0.50600  1.0000
  Yb  Yb12      1.0  0.85000  0.62200  0.66500  1.0000
  Yb  Yb13      1.0  0.85000  0.87800  0.66500  1.0000
  Yb  Yb14      1.0  0.48900  0.09650  0.67700  1.0000
  Yb  Yb15      1.0  0.48900  0.40400  0.67700  1.0000
  Yb  Yb16      1.0  0.98900  0.09650  0.82300  1.0000
  Yb  Yb17      1.0  0.98900  0.40400  0.82300  1.0000
  Yb  Yb18      1.0  0.35000  0.62200  0.83500  1.0000
  Yb  Yb19      1.0  0.35000  0.87800  0.83500  1.0000
  Yb  Yb20      1.0  0.31300  0.25000  0.99400  1.0000
