data_image0
_chemical_formula_structural       As4F24Hg8
_chemical_formula_sum              "As4 F24 Hg8"
_cell_length_a       5.19236
_cell_length_b       11.0553
_cell_length_c       9.65966
_cell_angle_alpha    90
_cell_angle_beta     91.4047
_cell_angle_gamma    90

_space_group_name_H-M_alt    "P 1"
_space_group_IT_number       1

loop_
  _space_group_symop_operation_xyz
  'x, y, z'

loop_
  _atom_site_type_symbol
  _atom_site_label
  _atom_site_symmetry_multiplicity
  _atom_site_fract_x
  _atom_site_fract_y
  _atom_site_fract_z
  _atom_site_occupancy
  As  As1       1.0  0.50200  0.29100  0.17300  1.0000
  As  As2       1.0  0.49800  0.79100  0.32700  1.0000
  As  As3       1.0  0.50200  0.20900  0.67300  1.0000
  As  As4       1.0  0.49800  0.70900  0.82700  1.0000
  F   F1        1.0  0.67800  0.25400  0.02500  1.0000
  F   F2        1.0  0.20600  0.26400  0.08000  1.0000
  F   F3        1.0  0.49400  0.44300  0.12100  1.0000
  F   F4        1.0  0.67400  0.82600  0.17800  1.0000
  F   F5        1.0  0.50400  0.13600  0.22000  1.0000
  F   F6        1.0  0.20600  0.81400  0.23300  1.0000
  F   F7        1.0  0.79400  0.31400  0.26700  1.0000
  F   F8        1.0  0.49600  0.63600  0.28000  1.0000
  F   F9        1.0  0.32600  0.32600  0.32200  1.0000
  F   F10       1.0  0.50600  0.94300  0.37900  1.0000
  F   F11       1.0  0.79400  0.76400  0.42000  1.0000
  F   F12       1.0  0.32200  0.75300  0.47500  1.0000
  F   F13       1.0  0.67800  0.24600  0.52500  1.0000
  F   F14       1.0  0.20600  0.23600  0.58000  1.0000
  F   F15       1.0  0.49400  0.05720  0.62100  1.0000
  F   F16       1.0  0.67400  0.67400  0.67800  1.0000
  F   F17       1.0  0.50400  0.36400  0.72000  1.0000
  F   F18       1.0  0.20600  0.68600  0.73300  1.0000
  F   F19       1.0  0.79400  0.18600  0.76700  1.0000
  F   F20       1.0  0.49600  0.86400  0.78000  1.0000
  F   F21       1.0  0.32600  0.17400  0.82200  1.0000
  F   F22       1.0  0.50600  0.55700  0.87900  1.0000
  F   F23       1.0  0.79400  0.73600  0.92000  1.0000
  F   F24       1.0  0.32200  0.74700  0.97500  1.0000
  Hg  Hg1       1.0  0.99200  0.59200  0.10300  1.0000
  Hg  Hg2       1.0  0.99500  0.02690  0.13100  1.0000
  Hg  Hg3       1.0  0.00549  0.52700  0.36900  1.0000
  Hg  Hg4       1.0  0.00813  0.09150  0.39700  1.0000
  Hg  Hg5       1.0  0.99200  0.90800  0.60300  1.0000
  Hg  Hg6       1.0  0.99500  0.47300  0.63100  1.0000
  Hg  Hg7       1.0  0.00549  0.97300  0.86900  1.0000
  Hg  Hg8       1.0  0.00813  0.40800  0.89700  1.0000
