data_image0
_chemical_formula_structural       O5Zr2
_chemical_formula_sum              "O5 Zr2"
_cell_length_a       6.325
_cell_length_b       6.325
_cell_length_c       3.41392
_cell_angle_alpha    105.468
_cell_angle_beta     105.468
_cell_angle_gamma    119.86

_space_group_name_H-M_alt    "P 1"
_space_group_IT_number       1

loop_
  _space_group_symop_operation_xyz
  'x, y, z'

loop_
  _atom_site_type_symbol
  _atom_site_label
  _atom_site_symmetry_multiplicity
  _atom_site_fract_x
  _atom_site_fract_y
  _atom_site_fract_z
  _atom_site_occupancy
  O   O1        1.0  0.88900  0.56300  0.23100  1.0000
  O   O2        1.0  0.56300  0.88900  0.23100  1.0000
  O   O3        1.0  0.37000  0.04530  0.71000  1.0000
  O   O4        1.0  0.04530  0.37000  0.71000  1.0000
  O   O5        1.0  0.94800  0.94800  0.95200  1.0000
  Zr  Zr1       1.0  0.77400  0.15800  0.97000  1.0000
  Zr  Zr2       1.0  0.15800  0.77400  0.97000  1.0000
