data_image0
_chemical_formula_structural       Al4B24Yb8
_chemical_formula_sum              "Al4 B24 Yb8"
_cell_length_a       9.32683
_cell_length_b       11.5044
_cell_length_c       3.57116
_cell_angle_alpha    90
_cell_angle_beta     90
_cell_angle_gamma    90

_space_group_name_H-M_alt    "P 1"
_space_group_IT_number       1

loop_
  _space_group_symop_operation_xyz
  'x, y, z'

loop_
  _atom_site_type_symbol
  _atom_site_label
  _atom_site_symmetry_multiplicity
  _atom_site_fract_x
  _atom_site_fract_y
  _atom_site_fract_z
  _atom_site_occupancy
  Al  Al1       1.0  0.14300  0.17900  0.00000  1.0000
  Al  Al2       1.0  0.64300  0.32100  0.00000  1.0000
  Al  Al3       1.0  0.35700  0.67900  0.00000  1.0000
  Al  Al4       1.0  0.85700  0.82100  0.00000  1.0000
  B   B1        1.0  0.63600  0.03750  0.50000  1.0000
  B   B2        1.0  0.05140  0.06630  0.50000  1.0000
  B   B3        1.0  0.24700  0.07650  0.50000  1.0000
  B   B4        1.0  0.64100  0.18500  0.50000  1.0000
  B   B5        1.0  0.98500  0.21700  0.50000  1.0000
  B   B6        1.0  0.30100  0.23100  0.50000  1.0000
  B   B7        1.0  0.80100  0.26900  0.50000  1.0000
  B   B8        1.0  0.48500  0.28300  0.50000  1.0000
  B   B9        1.0  0.14100  0.31500  0.50000  1.0000
  B   B10       1.0  0.74700  0.42400  0.50000  1.0000
  B   B11       1.0  0.55100  0.43400  0.50000  1.0000
  B   B12       1.0  0.13600  0.46200  0.50000  1.0000
  B   B13       1.0  0.86400  0.53800  0.50000  1.0000
  B   B14       1.0  0.44900  0.56600  0.50000  1.0000
  B   B15       1.0  0.25300  0.57600  0.50000  1.0000
  B   B16       1.0  0.85900  0.68500  0.50000  1.0000
  B   B17       1.0  0.51500  0.71700  0.50000  1.0000
  B   B18       1.0  0.19900  0.73100  0.50000  1.0000
  B   B19       1.0  0.69900  0.76900  0.50000  1.0000
  B   B20       1.0  0.01500  0.78300  0.50000  1.0000
  B   B21       1.0  0.35900  0.81500  0.50000  1.0000
  B   B22       1.0  0.75300  0.92400  0.50000  1.0000
  B   B23       1.0  0.94900  0.93400  0.50000  1.0000
  B   B24       1.0  0.36400  0.96200  0.50000  1.0000
  Yb  Yb1       1.0  0.83400  0.09120  0.00000  1.0000
  Yb  Yb2       1.0  0.45100  0.11500  0.00000  1.0000
  Yb  Yb3       1.0  0.95100  0.38500  0.00000  1.0000
  Yb  Yb4       1.0  0.33400  0.40900  0.00000  1.0000
  Yb  Yb5       1.0  0.66600  0.59100  0.00000  1.0000
  Yb  Yb6       1.0  0.04850  0.61500  0.00000  1.0000
  Yb  Yb7       1.0  0.54900  0.88500  0.00000  1.0000
  Yb  Yb8       1.0  0.16600  0.90900  0.00000  1.0000
