data_image0
_chemical_formula_structural       Ge8Na8Se20
_chemical_formula_sum              "Ge8 Na8 Se20"
_cell_length_a       14.3299
_cell_length_b       6.2442
_cell_length_c       11.1958
_cell_angle_alpha    90
_cell_angle_beta     90
_cell_angle_gamma    90

_space_group_name_H-M_alt    "P 1"
_space_group_IT_number       1

loop_
  _space_group_symop_operation_xyz
  'x, y, z'

loop_
  _atom_site_type_symbol
  _atom_site_label
  _atom_site_symmetry_multiplicity
  _atom_site_fract_x
  _atom_site_fract_y
  _atom_site_fract_z
  _atom_site_occupancy
  Ge  Ge1       1.0  0.15500  0.03500  0.19900  1.0000
  Ge  Ge2       1.0  0.65500  0.46500  0.19900  1.0000
  Ge  Ge3       1.0  0.20800  0.52800  0.39100  1.0000
  Ge  Ge4       1.0  0.70800  0.97200  0.39100  1.0000
  Ge  Ge5       1.0  0.34500  0.53500  0.69900  1.0000
  Ge  Ge6       1.0  0.84500  0.96500  0.69900  1.0000
  Ge  Ge7       1.0  0.29200  0.02800  0.89100  1.0000
  Ge  Ge8       1.0  0.79200  0.47200  0.89100  1.0000
  Na  Na1       1.0  0.93300  0.00566  0.00111  1.0000
  Na  Na2       1.0  0.43300  0.49400  0.00111  1.0000
  Na  Na3       1.0  0.46400  0.00327  0.25300  1.0000
  Na  Na4       1.0  0.96400  0.49700  0.25300  1.0000
  Na  Na5       1.0  0.56700  0.50600  0.50100  1.0000
  Na  Na6       1.0  0.06690  0.99400  0.50100  1.0000
  Na  Na7       1.0  0.03580  0.50300  0.75300  1.0000
  Na  Na8       1.0  0.53600  0.99700  0.75300  1.0000
  Se  Se1       1.0  0.66100  0.61400  0.00017  1.0000
  Se  Se2       1.0  0.16100  0.88600  0.00017  1.0000
  Se  Se3       1.0  0.71500  0.10400  0.18700  1.0000
  Se  Se4       1.0  0.21500  0.39600  0.18700  1.0000
  Se  Se5       1.0  0.49900  0.50400  0.24900  1.0000
  Se  Se6       1.0  0.99900  0.99600  0.24900  1.0000
  Se  Se7       1.0  0.75900  0.60600  0.35100  1.0000
  Se  Se8       1.0  0.25900  0.89400  0.35100  1.0000
  Se  Se9       1.0  0.56500  0.00535  0.48500  1.0000
  Se  Se10      1.0  0.06520  0.49500  0.48500  1.0000
  Se  Se11      1.0  0.83900  0.11400  0.50000  1.0000
  Se  Se12      1.0  0.33900  0.38600  0.50000  1.0000
  Se  Se13      1.0  0.78500  0.60400  0.68700  1.0000
  Se  Se14      1.0  0.28500  0.89600  0.68700  1.0000
  Se  Se15      1.0  0.00067  0.00393  0.74900  1.0000
  Se  Se16      1.0  0.50100  0.49600  0.74900  1.0000
  Se  Se17      1.0  0.74100  0.10600  0.85100  1.0000
  Se  Se18      1.0  0.24100  0.39400  0.85100  1.0000
  Se  Se19      1.0  0.93500  0.50500  0.98500  1.0000
  Se  Se20      1.0  0.43500  0.99500  0.98500  1.0000
