data_image0
_chemical_formula_structural       Ru12Si16Zr8
_chemical_formula_sum              "Ru12 Si16 Zr8"
_cell_length_a       5.38534
_cell_length_b       9.91355
_cell_length_c       10.9985
_cell_angle_alpha    92.9586
_cell_angle_beta     104.171
_cell_angle_gamma    105.76

_space_group_name_H-M_alt    "P 1"
_space_group_IT_number       1

loop_
  _space_group_symop_operation_xyz
  'x, y, z'

loop_
  _atom_site_type_symbol
  _atom_site_label
  _atom_site_symmetry_multiplicity
  _atom_site_fract_x
  _atom_site_fract_y
  _atom_site_fract_z
  _atom_site_occupancy
  Ru  Ru1       1.0  0.54800  0.31300  0.06560  1.0000
  Ru  Ru2       1.0  0.99600  0.12800  0.08500  1.0000
  Ru  Ru3       1.0  0.57300  0.74400  0.22100  1.0000
  Ru  Ru4       1.0  0.10800  0.75600  0.27900  1.0000
  Ru  Ru5       1.0  0.28300  0.37200  0.41500  1.0000
  Ru  Ru6       1.0  0.67000  0.18700  0.43400  1.0000
  Ru  Ru7       1.0  0.33000  0.81300  0.56600  1.0000
  Ru  Ru8       1.0  0.71700  0.62800  0.58500  1.0000
  Ru  Ru9       1.0  0.89200  0.24400  0.72100  1.0000
  Ru  Ru10      1.0  0.42700  0.25600  0.77900  1.0000
  Ru  Ru11      1.0  0.00411  0.87200  0.91500  1.0000
  Ru  Ru12      1.0  0.45200  0.68700  0.93400  1.0000
  Si  Si1       1.0  0.15200  0.72400  0.06490  1.0000
  Si  Si2       1.0  0.71600  0.57400  0.10400  1.0000
  Si  Si3       1.0  0.85100  0.88000  0.10500  1.0000
  Si  Si4       1.0  0.38000  0.25000  0.25000  1.0000
  Si  Si5       1.0  0.86900  0.25000  0.25000  1.0000
  Si  Si6       1.0  0.36600  0.62000  0.39500  1.0000
  Si  Si7       1.0  0.53700  0.92600  0.39600  1.0000
  Si  Si8       1.0  0.86200  0.77600  0.43500  1.0000
  Si  Si9       1.0  0.13800  0.22400  0.56500  1.0000
  Si  Si10      1.0  0.46300  0.07430  0.60400  1.0000
  Si  Si11      1.0  0.63400  0.38000  0.60500  1.0000
  Si  Si12      1.0  0.13100  0.75000  0.75000  1.0000
  Si  Si13      1.0  0.62000  0.75000  0.75000  1.0000
  Si  Si14      1.0  0.14900  0.12000  0.89500  1.0000
  Si  Si15      1.0  0.28400  0.42600  0.89600  1.0000
  Si  Si16      1.0  0.84800  0.27600  0.93500  1.0000
  Zr  Zr1       1.0  0.17700  0.47000  0.13700  1.0000
  Zr  Zr2       1.0  0.44800  0.00149  0.14800  1.0000
  Zr  Zr3       1.0  0.79800  0.49900  0.35200  1.0000
  Zr  Zr4       1.0  0.06920  0.03000  0.36300  1.0000
  Zr  Zr5       1.0  0.93100  0.97000  0.63700  1.0000
  Zr  Zr6       1.0  0.20200  0.50100  0.64800  1.0000
  Zr  Zr7       1.0  0.55200  0.99900  0.85200  1.0000
  Zr  Zr8       1.0  0.82300  0.53000  0.86300  1.0000
