data_image0
_chemical_formula_structural       S16Ti4Tl16
_chemical_formula_sum              "S16 Ti4 Tl16"
_cell_length_a       8.51749
_cell_length_b       8.42048
_cell_length_c       15.7803
_cell_angle_alpha    90
_cell_angle_beta     105.757
_cell_angle_gamma    90

_space_group_name_H-M_alt    "P 1"
_space_group_IT_number       1

loop_
  _space_group_symop_operation_xyz
  'x, y, z'

loop_
  _atom_site_type_symbol
  _atom_site_label
  _atom_site_symmetry_multiplicity
  _atom_site_fract_x
  _atom_site_fract_y
  _atom_site_fract_z
  _atom_site_occupancy
  S   S1        1.0  0.70100  0.82700  0.03720  1.0000
  S   S2        1.0  0.81400  0.39300  0.03950  1.0000
  S   S3        1.0  0.61700  0.55600  0.20500  1.0000
  S   S4        1.0  0.04510  0.66600  0.21200  1.0000
  S   S5        1.0  0.95500  0.16600  0.28800  1.0000
  S   S6        1.0  0.38300  0.05580  0.29500  1.0000
  S   S7        1.0  0.18600  0.89300  0.46000  1.0000
  S   S8        1.0  0.29900  0.32700  0.46300  1.0000
  S   S9        1.0  0.70100  0.67300  0.53700  1.0000
  S   S10       1.0  0.81400  0.10700  0.54000  1.0000
  S   S11       1.0  0.61700  0.94400  0.70500  1.0000
  S   S12       1.0  0.04510  0.83400  0.71200  1.0000
  S   S13       1.0  0.95500  0.33400  0.78800  1.0000
  S   S14       1.0  0.38300  0.44400  0.79500  1.0000
  S   S15       1.0  0.18600  0.60700  0.96000  1.0000
  S   S16       1.0  0.29900  0.17300  0.96300  1.0000
  Ti  Ti1       1.0  0.79100  0.61100  0.12200  1.0000
  Ti  Ti2       1.0  0.20900  0.11100  0.37800  1.0000
  Ti  Ti3       1.0  0.79100  0.88900  0.62200  1.0000
  Ti  Ti4       1.0  0.20900  0.38900  0.87800  1.0000
  Tl  Tl1       1.0  0.41300  0.81900  0.10900  1.0000
  Tl  Tl2       1.0  0.17700  0.39900  0.12100  1.0000
  Tl  Tl3       1.0  0.02760  0.99100  0.13400  1.0000
  Tl  Tl4       1.0  0.61300  0.22300  0.14100  1.0000
  Tl  Tl5       1.0  0.38700  0.72300  0.35900  1.0000
  Tl  Tl6       1.0  0.97200  0.49100  0.36600  1.0000
  Tl  Tl7       1.0  0.82300  0.89900  0.37900  1.0000
  Tl  Tl8       1.0  0.58700  0.31900  0.39100  1.0000
  Tl  Tl9       1.0  0.41300  0.68100  0.60900  1.0000
  Tl  Tl10      1.0  0.17700  0.10100  0.62100  1.0000
  Tl  Tl11      1.0  0.02760  0.50900  0.63400  1.0000
  Tl  Tl12      1.0  0.61300  0.27700  0.64100  1.0000
  Tl  Tl13      1.0  0.38700  0.77700  0.85900  1.0000
  Tl  Tl14      1.0  0.97200  0.00926  0.86600  1.0000
  Tl  Tl15      1.0  0.82300  0.60100  0.87900  1.0000
  Tl  Tl16      1.0  0.58700  0.18100  0.89100  1.0000
