data_image0
_chemical_formula_structural       Ba12N12Ni12
_chemical_formula_sum              "Ba12 N12 Ni12"
_cell_length_a       9.69032
_cell_length_b       13.7021
_cell_length_c       5.41906
_cell_angle_alpha    90
_cell_angle_beta     90
_cell_angle_gamma    90

_space_group_name_H-M_alt    "P 1"
_space_group_IT_number       1

loop_
  _space_group_symop_operation_xyz
  'x, y, z'

loop_
  _atom_site_type_symbol
  _atom_site_label
  _atom_site_symmetry_multiplicity
  _atom_site_fract_x
  _atom_site_fract_y
  _atom_site_fract_z
  _atom_site_occupancy
  Ba  Ba1       1.0  0.00331  0.75000  0.01970  1.0000
  Ba  Ba2       1.0  0.67200  0.58800  0.02630  1.0000
  Ba  Ba3       1.0  0.67200  0.91200  0.02630  1.0000
  Ba  Ba4       1.0  0.17200  0.58800  0.47400  1.0000
  Ba  Ba5       1.0  0.17200  0.91200  0.47400  1.0000
  Ba  Ba6       1.0  0.50300  0.75000  0.48000  1.0000
  Ba  Ba7       1.0  0.49700  0.25000  0.52000  1.0000
  Ba  Ba8       1.0  0.82800  0.08820  0.52600  1.0000
  Ba  Ba9       1.0  0.82800  0.41200  0.52600  1.0000
  Ba  Ba10      1.0  0.32800  0.08820  0.97400  1.0000
  Ba  Ba11      1.0  0.32800  0.41200  0.97400  1.0000
  Ba  Ba12      1.0  0.99700  0.25000  0.98000  1.0000
  N   N1        1.0  0.27800  0.75000  0.15500  1.0000
  N   N2        1.0  0.07300  0.07650  0.22600  1.0000
  N   N3        1.0  0.07300  0.42300  0.22600  1.0000
  N   N4        1.0  0.57300  0.07650  0.27400  1.0000
  N   N5        1.0  0.57300  0.42300  0.27400  1.0000
  N   N6        1.0  0.77800  0.75000  0.34500  1.0000
  N   N7        1.0  0.22200  0.25000  0.65500  1.0000
  N   N8        1.0  0.42700  0.57700  0.72600  1.0000
  N   N9        1.0  0.42700  0.92300  0.72600  1.0000
  N   N10       1.0  0.92700  0.57700  0.77400  1.0000
  N   N11       1.0  0.92700  0.92300  0.77400  1.0000
  N   N12       1.0  0.72200  0.25000  0.84500  1.0000
  Ni  Ni1       1.0  0.00000  0.00000  0.00000  1.0000
  Ni  Ni2       1.0  0.00000  0.50000  0.00000  1.0000
  Ni  Ni3       1.0  0.64600  0.16200  0.05870  1.0000
  Ni  Ni4       1.0  0.64600  0.33800  0.05870  1.0000
  Ni  Ni5       1.0  0.14600  0.16200  0.44100  1.0000
  Ni  Ni6       1.0  0.14600  0.33800  0.44100  1.0000
  Ni  Ni7       1.0  0.50000  0.00000  0.50000  1.0000
  Ni  Ni8       1.0  0.50000  0.50000  0.50000  1.0000
  Ni  Ni9       1.0  0.85400  0.66200  0.55900  1.0000
  Ni  Ni10      1.0  0.85400  0.83800  0.55900  1.0000
  Ni  Ni11      1.0  0.35400  0.66200  0.94100  1.0000
  Ni  Ni12      1.0  0.35400  0.83800  0.94100  1.0000
