data_image0
_chemical_formula_structural       Be4F12H16N4
_chemical_formula_sum              "Be4 F12 H16 N4"
_cell_length_a       4.83964
_cell_length_b       4.04671
_cell_length_c       10.7525
_cell_angle_alpha    90
_cell_angle_beta     90
_cell_angle_gamma    90

_space_group_name_H-M_alt    "P 1"
_space_group_IT_number       1

loop_
  _space_group_symop_operation_xyz
  'x, y, z'

loop_
  _atom_site_type_symbol
  _atom_site_label
  _atom_site_symmetry_multiplicity
  _atom_site_fract_x
  _atom_site_fract_y
  _atom_site_fract_z
  _atom_site_occupancy
  Be  Be1       1.0  0.41300  0.15400  0.18200  1.0000
  Be  Be2       1.0  0.08660  0.84600  0.68200  1.0000
  Be  Be3       1.0  0.91300  0.34600  0.81800  1.0000
  Be  Be4       1.0  0.58700  0.65400  0.31800  1.0000
  F   F1        1.0  0.42500  0.77400  0.19900  1.0000
  F   F2        1.0  0.07540  0.22600  0.69900  1.0000
  F   F3        1.0  0.92500  0.72600  0.80100  1.0000
  F   F4        1.0  0.57500  0.27400  0.30100  1.0000
  F   F5        1.0  0.56800  0.24900  0.06770  1.0000
  F   F6        1.0  0.93200  0.75100  0.56800  1.0000
  F   F7        1.0  0.06830  0.25100  0.93200  1.0000
  F   F8        1.0  0.43200  0.74900  0.43200  1.0000
  F   F9        1.0  0.11900  0.25600  0.18500  1.0000
  F   F10       1.0  0.38100  0.74400  0.68500  1.0000
  F   F11       1.0  0.61900  0.24400  0.81500  1.0000
  F   F12       1.0  0.88100  0.75600  0.31500  1.0000
  H   H1        1.0  0.06490  0.56700  0.07830  1.0000
  H   H2        1.0  0.43500  0.43300  0.57800  1.0000
  H   H3        1.0  0.56500  0.93300  0.92200  1.0000
  H   H4        1.0  0.93500  0.06740  0.42200  1.0000
  H   H5        1.0  0.94100  0.89900  0.15200  1.0000
  H   H6        1.0  0.55900  0.10100  0.65200  1.0000
  H   H7        1.0  0.44100  0.60100  0.84800  1.0000
  H   H8        1.0  0.05880  0.39900  0.34800  1.0000
  H   H9        1.0  0.92000  0.89800  0.99900  1.0000
  H   H10       1.0  0.58000  0.10200  0.49900  1.0000
  H   H11       1.0  0.42000  0.60200  0.00080  1.0000
  H   H12       1.0  0.07960  0.39800  0.50100  1.0000
  H   H13       1.0  0.73900  0.60900  0.08270  1.0000
  H   H14       1.0  0.76100  0.39100  0.58300  1.0000
  H   H15       1.0  0.23900  0.89100  0.91700  1.0000
  H   H16       1.0  0.26100  0.10900  0.41700  1.0000
  N   N1        1.0  0.91600  0.74700  0.07570  1.0000
  N   N2        1.0  0.58400  0.25300  0.57600  1.0000
  N   N3        1.0  0.41600  0.75300  0.92400  1.0000
  N   N4        1.0  0.08420  0.24700  0.42400  1.0000
