data_image0
_chemical_formula_structural       As12K12Na8Sn4
_chemical_formula_sum              "As12 K12 Na8 Sn4"
_cell_length_a       6.8077
_cell_length_b       10.7741
_cell_length_c       15.4975
_cell_angle_alpha    90
_cell_angle_beta     90
_cell_angle_gamma    71.5831

_space_group_name_H-M_alt    "P 1"
_space_group_IT_number       1

loop_
  _space_group_symop_operation_xyz
  'x, y, z'

loop_
  _atom_site_type_symbol
  _atom_site_label
  _atom_site_symmetry_multiplicity
  _atom_site_fract_x
  _atom_site_fract_y
  _atom_site_fract_z
  _atom_site_occupancy
  As  As1       1.0  0.70700  0.00000  0.09610  1.0000
  As  As2       1.0  0.11700  0.31900  0.10700  1.0000
  As  As3       1.0  0.43500  0.68100  0.10700  1.0000
  As  As4       1.0  0.61700  0.31900  0.39300  1.0000
  As  As5       1.0  0.93500  0.68100  0.39300  1.0000
  As  As6       1.0  0.20700  0.00000  0.40400  1.0000
  As  As7       1.0  0.79300  0.00000  0.59600  1.0000
  As  As8       1.0  0.06460  0.31900  0.60700  1.0000
  As  As9       1.0  0.38300  0.68100  0.60700  1.0000
  As  As10      1.0  0.56500  0.31900  0.89300  1.0000
  As  As11      1.0  0.88300  0.68100  0.89300  1.0000
  As  As12      1.0  0.29300  0.00000  0.90400  1.0000
  K   K1        1.0  0.60200  0.33400  0.17500  1.0000
  K   K2        1.0  0.93600  0.66600  0.17500  1.0000
  K   K3        1.0  0.23900  0.00000  0.17800  1.0000
  K   K4        1.0  0.73900  0.00000  0.32200  1.0000
  K   K5        1.0  0.10200  0.33400  0.32500  1.0000
  K   K6        1.0  0.43600  0.66600  0.32500  1.0000
  K   K7        1.0  0.56400  0.33400  0.67500  1.0000
  K   K8        1.0  0.89800  0.66600  0.67500  1.0000
  K   K9        1.0  0.26100  0.00000  0.67800  1.0000
  K   K10       1.0  0.76100  0.00000  0.82200  1.0000
  K   K11       1.0  0.06440  0.33400  0.82500  1.0000
  K   K12       1.0  0.39800  0.66600  0.82500  1.0000
  Na  Na1       1.0  0.91900  0.16300  0.00000  1.0000
  Na  Na2       1.0  0.75500  0.49000  0.00000  1.0000
  Na  Na3       1.0  0.24500  0.51000  0.00000  1.0000
  Na  Na4       1.0  0.08130  0.83700  0.00000  1.0000
  Na  Na5       1.0  0.41900  0.16300  0.50000  1.0000
  Na  Na6       1.0  0.25500  0.49000  0.50000  1.0000
  Na  Na7       1.0  0.74500  0.51000  0.50000  1.0000
  Na  Na8       1.0  0.58100  0.83700  0.50000  1.0000
  Sn  Sn1       1.0  0.41100  0.17800  0.00000  1.0000
  Sn  Sn2       1.0  0.58900  0.82200  0.00000  1.0000
  Sn  Sn3       1.0  0.91100  0.17800  0.50000  1.0000
  Sn  Sn4       1.0  0.08910  0.82200  0.50000  1.0000
