data_image0
_chemical_formula_structural       O5Ti2
_chemical_formula_sum              "O5 Ti2"
_cell_length_a       5.47851
_cell_length_b       5.47851
_cell_length_c       3.48778
_cell_angle_alpha    101.702
_cell_angle_beta     101.702
_cell_angle_gamma    119.483

_space_group_name_H-M_alt    "P 1"
_space_group_IT_number       1

loop_
  _space_group_symop_operation_xyz
  'x, y, z'

loop_
  _atom_site_type_symbol
  _atom_site_label
  _atom_site_symmetry_multiplicity
  _atom_site_fract_x
  _atom_site_fract_y
  _atom_site_fract_z
  _atom_site_occupancy
  O   O1        1.0  0.94400  0.55600  0.28900  1.0000
  O   O2        1.0  0.55600  0.94400  0.28900  1.0000
  O   O3        1.0  0.38800  0.09990  0.72600  1.0000
  O   O4        1.0  0.09990  0.38800  0.72600  1.0000
  O   O5        1.0  0.86200  0.86200  0.91300  1.0000
  Ti  Ti1       1.0  0.76900  0.14100  0.90400  1.0000
  Ti  Ti2       1.0  0.14100  0.76900  0.90400  1.0000
