data_image0
_chemical_formula_structural       Be4Eu4O20Sm8
_chemical_formula_sum              "Be4 Eu4 O20 Sm8"
_cell_length_a       7.13305
_cell_length_b       6.42561
_cell_length_c       9.34844
_cell_angle_alpha    90
_cell_angle_beta     90.1247
_cell_angle_gamma    90

_space_group_name_H-M_alt    "P 1"
_space_group_IT_number       1

loop_
  _space_group_symop_operation_xyz
  'x, y, z'

loop_
  _atom_site_type_symbol
  _atom_site_label
  _atom_site_symmetry_multiplicity
  _atom_site_fract_x
  _atom_site_fract_y
  _atom_site_fract_z
  _atom_site_occupancy
  Be  Be1       1.0  0.25000  0.19200  0.10200  1.0000
  Be  Be2       1.0  0.75000  0.69200  0.39800  1.0000
  Be  Be3       1.0  0.25000  0.30800  0.60200  1.0000
  Be  Be4       1.0  0.75000  0.80800  0.89800  1.0000
  Eu  Eu1       1.0  0.97900  0.92200  0.17100  1.0000
  Eu  Eu2       1.0  0.02090  0.42200  0.32900  1.0000
  Eu  Eu3       1.0  0.97900  0.57800  0.67100  1.0000
  Eu  Eu4       1.0  0.02090  0.07820  0.82900  1.0000
  O   O1        1.0  0.26100  0.97700  0.01020  1.0000
  O   O2        1.0  0.44400  0.31100  0.06850  1.0000
  O   O3        1.0  0.05720  0.30700  0.06950  1.0000
  O   O4        1.0  0.73900  0.63600  0.22300  1.0000
  O   O5        1.0  0.26700  0.66700  0.22400  1.0000
  O   O6        1.0  0.73300  0.16700  0.27600  1.0000
  O   O7        1.0  0.26100  0.13600  0.27700  1.0000
  O   O8        1.0  0.94300  0.80700  0.43100  1.0000
  O   O9        1.0  0.55600  0.81100  0.43200  1.0000
  O   O10       1.0  0.73900  0.47700  0.49000  1.0000
  O   O11       1.0  0.26100  0.52300  0.51000  1.0000
  O   O12       1.0  0.44400  0.18900  0.56800  1.0000
  O   O13       1.0  0.05720  0.19300  0.56900  1.0000
  O   O14       1.0  0.73900  0.86400  0.72300  1.0000
  O   O15       1.0  0.26700  0.83300  0.72400  1.0000
  O   O16       1.0  0.73300  0.33300  0.77600  1.0000
  O   O17       1.0  0.26100  0.36400  0.77700  1.0000
  O   O18       1.0  0.94300  0.69300  0.93100  1.0000
  O   O19       1.0  0.55600  0.68900  0.93200  1.0000
  O   O20       1.0  0.73900  0.02320  0.99000  1.0000
  Sm  Sm1       1.0  0.75300  0.40300  0.02380  1.0000
  Sm  Sm2       1.0  0.52400  0.91900  0.17400  1.0000
  Sm  Sm3       1.0  0.47600  0.41900  0.32600  1.0000
  Sm  Sm4       1.0  0.24700  0.90300  0.47600  1.0000
  Sm  Sm5       1.0  0.75300  0.09710  0.52400  1.0000
  Sm  Sm6       1.0  0.52400  0.58100  0.67400  1.0000
  Sm  Sm7       1.0  0.47600  0.08090  0.82600  1.0000
  Sm  Sm8       1.0  0.24700  0.59700  0.97600  1.0000
