data_image0
_chemical_formula_structural       Ni8Sc12Si16
_chemical_formula_sum              "Ni8 Sc12 Si16"
_cell_length_a       11.6604
_cell_length_b       3.98057
_cell_length_c       11.945
_cell_angle_alpha    90
_cell_angle_beta     90
_cell_angle_gamma    90

_space_group_name_H-M_alt    "P 1"
_space_group_IT_number       1

loop_
  _space_group_symop_operation_xyz
  'x, y, z'

loop_
  _atom_site_type_symbol
  _atom_site_label
  _atom_site_symmetry_multiplicity
  _atom_site_fract_x
  _atom_site_fract_y
  _atom_site_fract_z
  _atom_site_occupancy
  Ni  Ni1       1.0  0.90900  0.25000  0.02710  1.0000
  Ni  Ni2       1.0  0.44900  0.25000  0.13400  1.0000
  Ni  Ni3       1.0  0.94900  0.25000  0.36600  1.0000
  Ni  Ni4       1.0  0.40900  0.25000  0.47300  1.0000
  Ni  Ni5       1.0  0.59100  0.75000  0.52700  1.0000
  Ni  Ni6       1.0  0.05070  0.75000  0.63400  1.0000
  Ni  Ni7       1.0  0.55100  0.75000  0.86600  1.0000
  Ni  Ni8       1.0  0.09070  0.75000  0.97300  1.0000
  Sc  Sc1       1.0  0.69600  0.75000  0.08000  1.0000
  Sc  Sc2       1.0  0.25300  0.75000  0.15100  1.0000
  Sc  Sc3       1.0  0.98000  0.75000  0.18700  1.0000
  Sc  Sc4       1.0  0.48000  0.75000  0.31300  1.0000
  Sc  Sc5       1.0  0.75300  0.75000  0.34900  1.0000
  Sc  Sc6       1.0  0.19600  0.75000  0.42000  1.0000
  Sc  Sc7       1.0  0.80400  0.25000  0.58000  1.0000
  Sc  Sc8       1.0  0.24700  0.25000  0.65100  1.0000
  Sc  Sc9       1.0  0.52000  0.25000  0.68700  1.0000
  Sc  Sc10      1.0  0.01970  0.25000  0.81300  1.0000
  Sc  Sc11      1.0  0.74700  0.25000  0.84900  1.0000
  Sc  Sc12      1.0  0.30400  0.25000  0.92000  1.0000
  Si  Si1       1.0  0.44200  0.75000  0.03240  1.0000
  Si  Si2       1.0  0.10800  0.25000  0.06380  1.0000
  Si  Si3       1.0  0.82600  0.25000  0.20200  1.0000
  Si  Si4       1.0  0.62200  0.25000  0.23300  1.0000
  Si  Si5       1.0  0.12200  0.25000  0.26700  1.0000
  Si  Si6       1.0  0.32600  0.25000  0.29800  1.0000
  Si  Si7       1.0  0.60800  0.25000  0.43600  1.0000
  Si  Si8       1.0  0.94200  0.75000  0.46800  1.0000
  Si  Si9       1.0  0.05820  0.25000  0.53200  1.0000
  Si  Si10      1.0  0.39200  0.75000  0.56400  1.0000
  Si  Si11      1.0  0.67400  0.75000  0.70200  1.0000
  Si  Si12      1.0  0.87800  0.75000  0.73300  1.0000
  Si  Si13      1.0  0.37800  0.75000  0.76700  1.0000
  Si  Si14      1.0  0.17400  0.75000  0.79800  1.0000
  Si  Si15      1.0  0.89200  0.75000  0.93600  1.0000
  Si  Si16      1.0  0.55800  0.25000  0.96800  1.0000
