data_image0
_chemical_formula_structural       Hf8Ru12Si16
_chemical_formula_sum              "Hf8 Ru12 Si16"
_cell_length_a       5.35106
_cell_length_b       9.86915
_cell_length_c       10.9633
_cell_angle_alpha    79.1687
_cell_angle_beta     104.125
_cell_angle_gamma    105.73

_space_group_name_H-M_alt    "P 1"
_space_group_IT_number       1

loop_
  _space_group_symop_operation_xyz
  'x, y, z'

loop_
  _atom_site_type_symbol
  _atom_site_label
  _atom_site_symmetry_multiplicity
  _atom_site_fract_x
  _atom_site_fract_y
  _atom_site_fract_z
  _atom_site_occupancy
  Hf  Hf1       1.0  0.96300  0.53100  0.13800  1.0000
  Hf  Hf2       1.0  0.70300  0.99900  0.14800  1.0000
  Hf  Hf3       1.0  0.55500  0.50100  0.35200  1.0000
  Hf  Hf4       1.0  0.29400  0.96900  0.36200  1.0000
  Hf  Hf5       1.0  0.70600  0.03050  0.63800  1.0000
  Hf  Hf6       1.0  0.44500  0.49900  0.64800  1.0000
  Hf  Hf7       1.0  0.29700  0.00106  0.85200  1.0000
  Hf  Hf8       1.0  0.03740  0.46900  0.86200  1.0000
  Ru  Ru1       1.0  0.52200  0.68700  0.06720  1.0000
  Ru  Ru2       1.0  0.09230  0.87400  0.08430  1.0000
  Ru  Ru3       1.0  0.65100  0.25600  0.22000  1.0000
  Ru  Ru4       1.0  0.17400  0.24400  0.28000  1.0000
  Ru  Ru5       1.0  0.13400  0.62600  0.41600  1.0000
  Ru  Ru6       1.0  0.76800  0.81300  0.43300  1.0000
  Ru  Ru7       1.0  0.23200  0.18700  0.56700  1.0000
  Ru  Ru8       1.0  0.86600  0.37400  0.58400  1.0000
  Ru  Ru9       1.0  0.82600  0.75600  0.72000  1.0000
  Ru  Ru10      1.0  0.34900  0.74400  0.78000  1.0000
  Ru  Ru11      1.0  0.90800  0.12600  0.91600  1.0000
  Ru  Ru12      1.0  0.47800  0.31300  0.93300  1.0000
  Si  Si1       1.0  0.91400  0.27700  0.06410  1.0000
  Si  Si2       1.0  0.38800  0.42700  0.10400  1.0000
  Si  Si3       1.0  0.25600  0.12100  0.10600  1.0000
  Si  Si4       1.0  0.38200  0.75000  0.25000  1.0000
  Si  Si5       1.0  0.87300  0.75000  0.25000  1.0000
  Si  Si6       1.0  0.02920  0.37900  0.39400  1.0000
  Si  Si7       1.0  0.85700  0.07350  0.39600  1.0000
  Si  Si8       1.0  0.57200  0.22300  0.43600  1.0000
  Si  Si9       1.0  0.42800  0.77700  0.56400  1.0000
  Si  Si10      1.0  0.14300  0.92700  0.60400  1.0000
  Si  Si11      1.0  0.97100  0.62100  0.60600  1.0000
  Si  Si12      1.0  0.12700  0.25000  0.75000  1.0000
  Si  Si13      1.0  0.61800  0.25000  0.75000  1.0000
  Si  Si14      1.0  0.74400  0.87900  0.89400  1.0000
  Si  Si15      1.0  0.61200  0.57300  0.89600  1.0000
  Si  Si16      1.0  0.08630  0.72300  0.93600  1.0000
