data_image0
_chemical_formula_structural       Li8Np4O11
_chemical_formula_sum              "Li8 Np4 O11"
_cell_length_a       11.8676
_cell_length_b       5.86131
_cell_length_c       5.21124
_cell_angle_alpha    98.6276
_cell_angle_beta     99.18
_cell_angle_gamma    122.41

_space_group_name_H-M_alt    "P 1"
_space_group_IT_number       1

loop_
  _space_group_symop_operation_xyz
  'x, y, z'

loop_
  _atom_site_type_symbol
  _atom_site_label
  _atom_site_symmetry_multiplicity
  _atom_site_fract_x
  _atom_site_fract_y
  _atom_site_fract_z
  _atom_site_occupancy
  Li  Li1       1.0  0.75100  0.50500  0.03040  1.0000
  Li  Li2       1.0  0.96700  0.97500  0.46500  1.0000
  Li  Li3       1.0  0.18600  0.62700  0.46800  1.0000
  Li  Li4       1.0  0.83700  0.38700  0.48600  1.0000
  Li  Li5       1.0  0.70000  0.62400  0.51100  1.0000
  Li  Li6       1.0  0.27200  0.33200  0.54300  1.0000
  Li  Li7       1.0  0.57500  0.13100  0.55500  1.0000
  Li  Li8       1.0  0.22000  0.49900  0.96300  1.0000
  Np  Np1       1.0  0.42200  0.13000  0.98600  1.0000
  Np  Np2       1.0  0.57700  0.79800  0.98900  1.0000
  Np  Np3       1.0  0.90900  0.16200  0.99200  1.0000
  Np  Np4       1.0  0.08790  0.85200  0.99900  1.0000
  O   O1        1.0  0.94900  0.57100  0.22700  1.0000
  O   O2        1.0  0.27000  0.87800  0.23200  1.0000
  O   O3        1.0  0.78800  0.89300  0.24000  1.0000
  O   O4        1.0  0.63500  0.24400  0.25200  1.0000
  O   O5        1.0  0.10400  0.22700  0.26100  1.0000
  O   O6        1.0  0.89000  0.77800  0.74100  1.0000
  O   O7        1.0  0.36100  0.72500  0.74100  1.0000
  O   O8        1.0  0.56500  0.42100  0.74200  1.0000
  O   O9        1.0  0.70000  0.05170  0.74300  1.0000
  O   O10       1.0  0.03360  0.43000  0.74900  1.0000
  O   O11       1.0  0.24400  0.18000  0.83700  1.0000
