data_image0
_chemical_formula_structural       P12Ta24
_chemical_formula_sum              "P12 Ta24"
_cell_length_a       14.518
_cell_length_b       11.6169
_cell_length_c       3.41453
_cell_angle_alpha    90
_cell_angle_beta     90
_cell_angle_gamma    90

_space_group_name_H-M_alt    "P 1"
_space_group_IT_number       1

loop_
  _space_group_symop_operation_xyz
  'x, y, z'

loop_
  _atom_site_type_symbol
  _atom_site_label
  _atom_site_symmetry_multiplicity
  _atom_site_fract_x
  _atom_site_fract_y
  _atom_site_fract_z
  _atom_site_occupancy
  P   P1        1.0  0.91700  0.24400  0.00000  1.0000
  P   P2        1.0  0.15200  0.31600  0.00000  1.0000
  P   P3        1.0  0.70500  0.42200  0.00000  1.0000
  P   P4        1.0  0.29500  0.57800  0.00000  1.0000
  P   P5        1.0  0.84800  0.68400  0.00000  1.0000
  P   P6        1.0  0.08310  0.75600  0.00000  1.0000
  P   P7        1.0  0.20500  0.07770  0.50000  1.0000
  P   P8        1.0  0.65200  0.18400  0.50000  1.0000
  P   P9        1.0  0.41700  0.25600  0.50000  1.0000
  P   P10       1.0  0.58300  0.74400  0.50000  1.0000
  P   P11       1.0  0.34800  0.81600  0.50000  1.0000
  P   P12       1.0  0.79500  0.92200  0.50000  1.0000
  Ta  Ta1       1.0  0.75400  0.07830  0.00000  1.0000
  Ta  Ta2       1.0  0.07790  0.12200  0.00000  1.0000
  Ta  Ta3       1.0  0.52300  0.15200  0.00000  1.0000
  Ta  Ta4       1.0  0.29500  0.19700  0.00000  1.0000
  Ta  Ta5       1.0  0.42000  0.41300  0.00000  1.0000
  Ta  Ta6       1.0  0.89100  0.47000  0.00000  1.0000
  Ta  Ta7       1.0  0.10900  0.53000  0.00000  1.0000
  Ta  Ta8       1.0  0.58000  0.58700  0.00000  1.0000
  Ta  Ta9       1.0  0.70500  0.80300  0.00000  1.0000
  Ta  Ta10      1.0  0.47700  0.84800  0.00000  1.0000
  Ta  Ta11      1.0  0.92200  0.87800  0.00000  1.0000
  Ta  Ta12      1.0  0.24600  0.92200  0.00000  1.0000
  Ta  Ta13      1.0  0.39100  0.03010  0.50000  1.0000
  Ta  Ta14      1.0  0.92000  0.08680  0.50000  1.0000
  Ta  Ta15      1.0  0.79500  0.30300  0.50000  1.0000
  Ta  Ta16      1.0  0.02280  0.34800  0.50000  1.0000
  Ta  Ta17      1.0  0.57800  0.37800  0.50000  1.0000
  Ta  Ta18      1.0  0.25400  0.42200  0.50000  1.0000
  Ta  Ta19      1.0  0.74600  0.57800  0.50000  1.0000
  Ta  Ta20      1.0  0.42200  0.62200  0.50000  1.0000
  Ta  Ta21      1.0  0.97700  0.65200  0.50000  1.0000
  Ta  Ta22      1.0  0.20500  0.69700  0.50000  1.0000
  Ta  Ta23      1.0  0.07990  0.91300  0.50000  1.0000
  Ta  Ta24      1.0  0.60900  0.97000  0.50000  1.0000
