data_image0
_chemical_formula_structural       CrK3MnO8
_chemical_formula_sum              "Cr1 K3 Mn1 O8"
_cell_length_a       5.71164
_cell_length_b       5.71164
_cell_length_c       7.75631
_cell_angle_alpha    68.3958
_cell_angle_beta     111.604
_cell_angle_gamma    120

_space_group_name_H-M_alt    "P 1"
_space_group_IT_number       1

loop_
  _space_group_symop_operation_xyz
  'x, y, z'

loop_
  _atom_site_type_symbol
  _atom_site_label
  _atom_site_symmetry_multiplicity
  _atom_site_fract_x
  _atom_site_fract_y
  _atom_site_fract_z
  _atom_site_occupancy
  Cr  Cr1       1.0  0.90800  0.09190  0.72400  1.0000
  K   K1        1.0  0.70100  0.29900  0.10400  1.0000
  K   K2        1.0  0.50600  0.49400  0.51900  1.0000
  K   K3        1.0  0.29600  0.70400  0.88800  1.0000
  Mn  Mn1       1.0  0.09460  0.90500  0.28400  1.0000
  O   O1        1.0  0.76000  0.77700  0.20600  1.0000
  O   O2        1.0  0.22300  0.24000  0.20600  1.0000
  O   O3        1.0  0.22300  0.77700  0.20600  1.0000
  O   O4        1.0  0.82900  0.17100  0.48800  1.0000
  O   O5        1.0  0.17100  0.82900  0.51300  1.0000
  O   O6        1.0  0.77800  0.22200  0.80700  1.0000
  O   O7        1.0  0.77800  0.74900  0.80700  1.0000
  O   O8        1.0  0.25100  0.22200  0.80700  1.0000
