data_image0
_chemical_formula_structural       Si4Ta16Te16
_chemical_formula_sum              "Si4 Ta16 Te16"
_cell_length_a       10.9651
_cell_length_b       18.9753
_cell_length_c       4.83721
_cell_angle_alpha    90
_cell_angle_beta     90
_cell_angle_gamma    90

_space_group_name_H-M_alt    "P 1"
_space_group_IT_number       1

loop_
  _space_group_symop_operation_xyz
  'x, y, z'

loop_
  _atom_site_type_symbol
  _atom_site_label
  _atom_site_symmetry_multiplicity
  _atom_site_fract_x
  _atom_site_fract_y
  _atom_site_fract_z
  _atom_site_occupancy
  Si  Si1       1.0  0.00000  0.00000  0.25000  1.0000
  Si  Si2       1.0  0.50000  0.50000  0.25000  1.0000
  Si  Si3       1.0  0.00000  0.00000  0.75000  1.0000
  Si  Si4       1.0  0.50000  0.50000  0.75000  1.0000
  Ta  Ta1       1.0  0.18700  0.05650  0.00000  1.0000
  Ta  Ta2       1.0  0.90200  0.10700  0.00000  1.0000
  Ta  Ta3       1.0  0.40200  0.39300  0.00000  1.0000
  Ta  Ta4       1.0  0.68700  0.44300  0.00000  1.0000
  Ta  Ta5       1.0  0.31300  0.55700  0.00000  1.0000
  Ta  Ta6       1.0  0.59800  0.60700  0.00000  1.0000
  Ta  Ta7       1.0  0.09780  0.89300  0.00000  1.0000
  Ta  Ta8       1.0  0.81300  0.94300  0.00000  1.0000
  Ta  Ta9       1.0  0.79900  0.03610  0.50000  1.0000
  Ta  Ta10      1.0  0.06300  0.11600  0.50000  1.0000
  Ta  Ta11      1.0  0.56300  0.38400  0.50000  1.0000
  Ta  Ta12      1.0  0.29900  0.46400  0.50000  1.0000
  Ta  Ta13      1.0  0.70100  0.53600  0.50000  1.0000
  Ta  Ta14      1.0  0.43700  0.61600  0.50000  1.0000
  Ta  Ta15      1.0  0.93700  0.88400  0.50000  1.0000
  Ta  Ta16      1.0  0.20100  0.96400  0.50000  1.0000
  Te  Te1       1.0  0.65300  0.06290  0.00000  1.0000
  Te  Te2       1.0  0.10800  0.20000  0.00000  1.0000
  Te  Te3       1.0  0.60800  0.30000  0.00000  1.0000
  Te  Te4       1.0  0.15300  0.43700  0.00000  1.0000
  Te  Te5       1.0  0.84700  0.56300  0.00000  1.0000
  Te  Te6       1.0  0.39200  0.70000  0.00000  1.0000
  Te  Te7       1.0  0.89200  0.80000  0.00000  1.0000
  Te  Te8       1.0  0.34700  0.93700  0.00000  1.0000
  Te  Te9       1.0  0.32300  0.09780  0.50000  1.0000
  Te  Te10      1.0  0.83200  0.18600  0.50000  1.0000
  Te  Te11      1.0  0.33200  0.31400  0.50000  1.0000
  Te  Te12      1.0  0.82300  0.40200  0.50000  1.0000
  Te  Te13      1.0  0.17700  0.59800  0.50000  1.0000
  Te  Te14      1.0  0.66800  0.68600  0.50000  1.0000
  Te  Te15      1.0  0.16800  0.81400  0.50000  1.0000
  Te  Te16      1.0  0.67700  0.90200  0.50000  1.0000
