data_image0
_chemical_formula_structural       Na20P12Si4
_chemical_formula_sum              "Na20 P12 Si4"
_cell_length_a       13.0545
_cell_length_b       7.28208
_cell_length_c       7.90709
_cell_angle_alpha    90
_cell_angle_beta     90.5782
_cell_angle_gamma    90

_space_group_name_H-M_alt    "P 1"
_space_group_IT_number       1

loop_
  _space_group_symop_operation_xyz
  'x, y, z'

loop_
  _atom_site_type_symbol
  _atom_site_label
  _atom_site_symmetry_multiplicity
  _atom_site_fract_x
  _atom_site_fract_y
  _atom_site_fract_z
  _atom_site_occupancy
  Na  Na1       1.0  0.91900  0.83600  0.07800  1.0000
  Na  Na2       1.0  0.24100  0.84500  0.07820  1.0000
  Na  Na3       1.0  0.41800  0.52800  0.16300  1.0000
  Na  Na4       1.0  0.08870  0.51500  0.17300  1.0000
  Na  Na5       1.0  0.74200  0.50700  0.18700  1.0000
  Na  Na6       1.0  0.75800  0.00706  0.31300  1.0000
  Na  Na7       1.0  0.41100  0.01530  0.32700  1.0000
  Na  Na8       1.0  0.08220  0.02840  0.33700  1.0000
  Na  Na9       1.0  0.25900  0.34500  0.42200  1.0000
  Na  Na10      1.0  0.58100  0.33600  0.42200  1.0000
  Na  Na11      1.0  0.41900  0.66400  0.57800  1.0000
  Na  Na12      1.0  0.74100  0.65500  0.57800  1.0000
  Na  Na13      1.0  0.91800  0.97200  0.66300  1.0000
  Na  Na14      1.0  0.58900  0.98500  0.67300  1.0000
  Na  Na15      1.0  0.24200  0.99300  0.68700  1.0000
  Na  Na16      1.0  0.25800  0.49300  0.81300  1.0000
  Na  Na17      1.0  0.91100  0.48500  0.82700  1.0000
  Na  Na18      1.0  0.58200  0.47200  0.83700  1.0000
  Na  Na19      1.0  0.75900  0.15500  0.92200  1.0000
  Na  Na20      1.0  0.08090  0.16400  0.92200  1.0000
  P   P1        1.0  0.27800  0.23000  0.07720  1.0000
  P   P2        1.0  0.56600  0.18100  0.08520  1.0000
  P   P3        1.0  0.92100  0.24200  0.16100  1.0000
  P   P4        1.0  0.57900  0.74200  0.33900  1.0000
  P   P5        1.0  0.93400  0.68100  0.41500  1.0000
  P   P6        1.0  0.22200  0.73000  0.42300  1.0000
  P   P7        1.0  0.77800  0.27000  0.57700  1.0000
  P   P8        1.0  0.06550  0.31900  0.58500  1.0000
  P   P9        1.0  0.42100  0.25800  0.66100  1.0000
  P   P10       1.0  0.07920  0.75800  0.83900  1.0000
  P   P11       1.0  0.43400  0.81900  0.91500  1.0000
  P   P12       1.0  0.72200  0.77000  0.92300  1.0000
  Si  Si1       1.0  0.58300  0.86100  0.07200  1.0000
  Si  Si2       1.0  0.91700  0.36100  0.42800  1.0000
  Si  Si3       1.0  0.08340  0.63900  0.57200  1.0000
  Si  Si4       1.0  0.41700  0.13900  0.92800  1.0000
