data_image0
_chemical_formula_structural       Ca22Ga14
_chemical_formula_sum              "Ca22 Ga14"
_cell_length_a       11.3614
_cell_length_b       11.3614
_cell_length_c       11.3614
_cell_angle_alpha    120
_cell_angle_beta     90
_cell_angle_gamma    120

_space_group_name_H-M_alt    "P 1"
_space_group_IT_number       1

loop_
  _space_group_symop_operation_xyz
  'x, y, z'

loop_
  _atom_site_type_symbol
  _atom_site_label
  _atom_site_symmetry_multiplicity
  _atom_site_fract_x
  _atom_site_fract_y
  _atom_site_fract_z
  _atom_site_occupancy
  Ca  Ca1       1.0  0.00000  0.00000  0.00000  1.0000
  Ca  Ca2       1.0  0.38900  0.26000  0.13000  1.0000
  Ca  Ca3       1.0  0.87000  0.26000  0.13000  1.0000
  Ca  Ca4       1.0  0.87000  0.74000  0.13000  1.0000
  Ca  Ca5       1.0  0.50000  0.00000  0.16500  1.0000
  Ca  Ca6       1.0  0.16500  0.66500  0.16500  1.0000
  Ca  Ca7       1.0  0.50000  0.66500  0.16500  1.0000
  Ca  Ca8       1.0  0.13000  0.26000  0.38900  1.0000
  Ca  Ca9       1.0  0.16500  0.00000  0.50000  1.0000
  Ca  Ca10      1.0  0.50000  0.00000  0.50000  1.0000
  Ca  Ca11      1.0  0.83500  0.00000  0.50000  1.0000
  Ca  Ca12      1.0  0.50000  0.33500  0.50000  1.0000
  Ca  Ca13      1.0  0.83500  0.33500  0.50000  1.0000
  Ca  Ca14      1.0  0.16500  0.66500  0.50000  1.0000
  Ca  Ca15      1.0  0.50000  0.66500  0.50000  1.0000
  Ca  Ca16      1.0  0.87000  0.74000  0.61100  1.0000
  Ca  Ca17      1.0  0.50000  0.00000  0.83500  1.0000
  Ca  Ca18      1.0  0.50000  0.33500  0.83500  1.0000
  Ca  Ca19      1.0  0.83500  0.33500  0.83500  1.0000
  Ca  Ca20      1.0  0.13000  0.26000  0.87000  1.0000
  Ca  Ca21      1.0  0.13000  0.74000  0.87000  1.0000
  Ca  Ca22      1.0  0.61100  0.74000  0.87000  1.0000
  Ga  Ga1       1.0  0.69100  0.38100  0.07160  1.0000
  Ga  Ga2       1.0  0.21900  0.00000  0.21900  1.0000
  Ga  Ga3       1.0  0.78100  0.00000  0.21900  1.0000
  Ga  Ga4       1.0  0.21900  0.43800  0.21900  1.0000
  Ga  Ga5       1.0  0.69100  0.38100  0.30900  1.0000
  Ga  Ga6       1.0  0.69100  0.61900  0.30900  1.0000
  Ga  Ga7       1.0  0.92800  0.61900  0.30900  1.0000
  Ga  Ga8       1.0  0.07160  0.38100  0.69100  1.0000
  Ga  Ga9       1.0  0.30900  0.38100  0.69100  1.0000
  Ga  Ga10      1.0  0.30900  0.61900  0.69100  1.0000
  Ga  Ga11      1.0  0.21900  0.00000  0.78100  1.0000
  Ga  Ga12      1.0  0.78100  0.00000  0.78100  1.0000
  Ga  Ga13      1.0  0.78100  0.56200  0.78100  1.0000
  Ga  Ga14      1.0  0.30900  0.61900  0.92800  1.0000
