data_image0
_chemical_formula_structural       Li2O24P8Yb2
_chemical_formula_sum              "Li2 O24 P8 Yb2"
_cell_length_a       6.94946
_cell_length_b       8.78415
_cell_length_c       8.78343
_cell_angle_alpha    96.4176
_cell_angle_beta     113.303
_cell_angle_gamma    113.301

_space_group_name_H-M_alt    "P 1"
_space_group_IT_number       1

loop_
  _space_group_symop_operation_xyz
  'x, y, z'

loop_
  _atom_site_type_symbol
  _atom_site_label
  _atom_site_symmetry_multiplicity
  _atom_site_fract_x
  _atom_site_fract_y
  _atom_site_fract_z
  _atom_site_occupancy
  Li  Li1       1.0  0.54700  0.25000  0.25000  1.0000
  Li  Li2       1.0  0.45300  0.75000  0.75000  1.0000
  O   O1        1.0  0.20900  0.80900  0.05280  1.0000
  O   O2        1.0  0.23100  0.21000  0.08350  1.0000
  O   O3        1.0  0.55000  0.76100  0.08470  1.0000
  O   O4        1.0  0.82000  0.63600  0.14300  1.0000
  O   O5        1.0  0.63400  0.07400  0.19900  1.0000
  O   O6        1.0  0.99900  0.97200  0.24200  1.0000
  O   O7        1.0  0.28600  0.52800  0.25800  1.0000
  O   O8        1.0  0.86200  0.42600  0.30100  1.0000
  O   O9        1.0  0.54100  0.86400  0.35700  1.0000
  O   O10       1.0  0.20500  0.73900  0.41500  1.0000
  O   O11       1.0  0.43800  0.29000  0.41600  1.0000
  O   O12       1.0  0.84800  0.69100  0.44700  1.0000
  O   O13       1.0  0.15200  0.30900  0.55300  1.0000
  O   O14       1.0  0.56200  0.71000  0.58400  1.0000
  O   O15       1.0  0.79500  0.26100  0.58500  1.0000
  O   O16       1.0  0.45900  0.13600  0.64300  1.0000
  O   O17       1.0  0.13800  0.57400  0.69900  1.0000
  O   O18       1.0  0.71400  0.47200  0.74200  1.0000
  O   O19       1.0  0.00072  0.02840  0.75800  1.0000
  O   O20       1.0  0.36600  0.92600  0.80100  1.0000
  O   O21       1.0  0.18000  0.36400  0.85700  1.0000
  O   O22       1.0  0.45000  0.23900  0.91500  1.0000
  O   O23       1.0  0.76900  0.79000  0.91600  1.0000
  O   O24       1.0  0.79100  0.19100  0.94700  1.0000
  P   P1        1.0  0.80500  0.80400  0.09840  1.0000
  P   P2        1.0  0.47300  0.88500  0.16500  1.0000
  P   P3        1.0  0.92300  0.61500  0.33500  1.0000
  P   P4        1.0  0.40300  0.69600  0.40200  1.0000
  P   P5        1.0  0.59700  0.30400  0.59800  1.0000
  P   P6        1.0  0.07710  0.38500  0.66500  1.0000
  P   P7        1.0  0.52700  0.11500  0.83500  1.0000
  P   P8        1.0  0.19500  0.19600  0.90200  1.0000
  Yb  Yb1       1.0  0.04310  0.25000  0.25000  1.0000
  Yb  Yb2       1.0  0.95700  0.75000  0.75000  1.0000
