data_image0
_chemical_formula_structural       O11Sn4
_chemical_formula_sum              "O11 Sn4"
_cell_length_a       11.5659
_cell_length_b       5.8986
_cell_length_c       4.93754
_cell_angle_alpha    107.934
_cell_angle_beta     108.025
_cell_angle_gamma    122.626

_space_group_name_H-M_alt    "P 1"
_space_group_IT_number       1

loop_
  _space_group_symop_operation_xyz
  'x, y, z'

loop_
  _atom_site_type_symbol
  _atom_site_label
  _atom_site_symmetry_multiplicity
  _atom_site_fract_x
  _atom_site_fract_y
  _atom_site_fract_z
  _atom_site_occupancy
  O   O1        1.0  0.25700  0.12800  0.00285  1.0000
  O   O2        1.0  0.60000  0.16200  0.21600  1.0000
  O   O3        1.0  0.83100  0.07990  0.26900  1.0000
  O   O4        1.0  0.06460  0.68400  0.29400  1.0000
  O   O5        1.0  0.58300  0.67200  0.32100  1.0000
  O   O6        1.0  0.14000  0.30300  0.38900  1.0000
  O   O7        1.0  0.31500  0.63200  0.61500  1.0000
  O   O8        1.0  0.94500  0.33700  0.64700  1.0000
  O   O9        1.0  0.44900  0.29500  0.66600  1.0000
  O   O10       1.0  0.65800  0.92500  0.67800  1.0000
  O   O11       1.0  0.87300  0.78700  0.71500  1.0000
  Sn  Sn1       1.0  0.06280  0.84900  0.00043  1.0000
  Sn  Sn2       1.0  0.55000  0.75900  0.93500  1.0000
  Sn  Sn3       1.0  0.41600  0.12400  0.95600  1.0000
  Sn  Sn4       1.0  0.93000  0.19800  0.99300  1.0000
