data_image0
_chemical_formula_structural       H12O18P4Sr2
_chemical_formula_sum              "H12 O18 P4 Sr2"
_cell_length_a       6.44895
_cell_length_b       7.23711
_cell_length_c       8.46087
_cell_angle_alpha    102.024
_cell_angle_beta     110.113
_cell_angle_gamma    95.0275

_space_group_name_H-M_alt    "P 1"
_space_group_IT_number       1

loop_
  _space_group_symop_operation_xyz
  'x, y, z'

loop_
  _atom_site_type_symbol
  _atom_site_label
  _atom_site_symmetry_multiplicity
  _atom_site_fract_x
  _atom_site_fract_y
  _atom_site_fract_z
  _atom_site_occupancy
  H   H1        1.0  0.83800  0.52800  0.06260  1.0000
  H   H2        1.0  0.83000  0.31700  0.08260  1.0000
  H   H3        1.0  0.73100  0.50900  0.24200  1.0000
  H   H4        1.0  0.77900  0.14200  0.39200  1.0000
  H   H5        1.0  0.75500  0.46300  0.41900  1.0000
  H   H6        1.0  0.01430  0.69900  0.46000  1.0000
  H   H7        1.0  0.98600  0.30100  0.54000  1.0000
  H   H8        1.0  0.24500  0.53700  0.58100  1.0000
  H   H9        1.0  0.22100  0.85800  0.60800  1.0000
  H   H10       1.0  0.26900  0.49100  0.75800  1.0000
  H   H11       1.0  0.17000  0.68300  0.91700  1.0000
  H   H12       1.0  0.16200  0.47200  0.93700  1.0000
  O   O1        1.0  0.73300  0.40700  0.03990  1.0000
  O   O2        1.0  0.31800  0.12100  0.07830  1.0000
  O   O3        1.0  0.98700  0.75900  0.13800  1.0000
  O   O4        1.0  0.97400  0.11800  0.16400  1.0000
  O   O5        1.0  0.68700  0.92400  0.22700  1.0000
  O   O6        1.0  0.26000  0.41100  0.28000  1.0000
  O   O7        1.0  0.74700  0.57300  0.36300  1.0000
  O   O8        1.0  0.35700  0.10000  0.37700  1.0000
  O   O9        1.0  0.81900  0.26100  0.48700  1.0000
  O   O10       1.0  0.18100  0.73900  0.51300  1.0000
  O   O11       1.0  0.64300  0.90000  0.62300  1.0000
  O   O12       1.0  0.25300  0.42700  0.63700  1.0000
  O   O13       1.0  0.74000  0.58900  0.72000  1.0000
  O   O14       1.0  0.31300  0.07610  0.77300  1.0000
  O   O15       1.0  0.02580  0.88200  0.83600  1.0000
  O   O16       1.0  0.01310  0.24100  0.86200  1.0000
  O   O17       1.0  0.68200  0.87900  0.92200  1.0000
  O   O18       1.0  0.26700  0.59300  0.96000  1.0000
  P   P1        1.0  0.83400  0.90500  0.12400  1.0000
  P   P2        1.0  0.24200  0.20000  0.24200  1.0000
  P   P3        1.0  0.75800  0.80000  0.75800  1.0000
  P   P4        1.0  0.16600  0.09520  0.87600  1.0000
  Sr  Sr1       1.0  0.40100  0.74500  0.30800  1.0000
  Sr  Sr2       1.0  0.59900  0.25500  0.69200  1.0000
