data_image0
_chemical_formula_structural       Ge4K2O24P6
_chemical_formula_sum              "Ge4 K2 O24 P6"
_cell_length_a       7.94159
_cell_length_b       7.94159
_cell_length_c       8.82552
_cell_angle_alpha    63.2613
_cell_angle_beta     116.739
_cell_angle_gamma    120

_space_group_name_H-M_alt    "P 1"
_space_group_IT_number       1

loop_
  _space_group_symop_operation_xyz
  'x, y, z'

loop_
  _atom_site_type_symbol
  _atom_site_label
  _atom_site_symmetry_multiplicity
  _atom_site_fract_x
  _atom_site_fract_y
  _atom_site_fract_z
  _atom_site_occupancy
  Ge  Ge1       1.0  0.34700  0.65300  0.04030  1.0000
  Ge  Ge2       1.0  0.14600  0.85400  0.43900  1.0000
  Ge  Ge3       1.0  0.85400  0.14600  0.56100  1.0000
  Ge  Ge4       1.0  0.65300  0.34700  0.96000  1.0000
  K   K1        1.0  0.00000  0.00000  0.00000  1.0000
  K   K2        1.0  0.50000  0.50000  0.50000  1.0000
  O   O1        1.0  0.83000  0.20300  0.10200  1.0000
  O   O2        1.0  0.79700  0.52500  0.10200  1.0000
  O   O3        1.0  0.47500  0.17000  0.10200  1.0000
  O   O4        1.0  0.52500  0.51300  0.19100  1.0000
  O   O5        1.0  0.48700  0.82100  0.19100  1.0000
  O   O6        1.0  0.17900  0.47500  0.19100  1.0000
  O   O7        1.0  0.89300  0.74200  0.28000  1.0000
  O   O8        1.0  0.25800  0.87100  0.28000  1.0000
  O   O9        1.0  0.12900  0.10700  0.28000  1.0000
  O   O10       1.0  0.77500  0.36900  0.42500  1.0000
  O   O11       1.0  0.63100  0.98100  0.42500  1.0000
  O   O12       1.0  0.01920  0.22500  0.42500  1.0000
  O   O13       1.0  0.98100  0.77500  0.57500  1.0000
  O   O14       1.0  0.36900  0.01920  0.57500  1.0000
  O   O15       1.0  0.22500  0.63100  0.57500  1.0000
  O   O16       1.0  0.87100  0.89300  0.72000  1.0000
  O   O17       1.0  0.74200  0.12900  0.72000  1.0000
  O   O18       1.0  0.10700  0.25800  0.72000  1.0000
  O   O19       1.0  0.82100  0.52500  0.80900  1.0000
  O   O20       1.0  0.51300  0.17900  0.80900  1.0000
  O   O21       1.0  0.47500  0.48700  0.80900  1.0000
  O   O22       1.0  0.52500  0.83000  0.89800  1.0000
  O   O23       1.0  0.20300  0.47500  0.89800  1.0000
  O   O24       1.0  0.17000  0.79700  0.89800  1.0000
  P   P1        1.0  0.74700  0.53400  0.24800  1.0000
  P   P2        1.0  0.46600  0.96500  0.24800  1.0000
  P   P3        1.0  0.03460  0.25300  0.24800  1.0000
  P   P4        1.0  0.96500  0.74700  0.75200  1.0000
  P   P5        1.0  0.53400  0.03460  0.75200  1.0000
  P   P6        1.0  0.25300  0.46600  0.75200  1.0000
