data_image0
_chemical_formula_structural       Cs16O16Sn4
_chemical_formula_sum              "Cs16 O16 Sn4"
_cell_length_a       11.7782
_cell_length_b       7.28188
_cell_length_c       11.6436
_cell_angle_alpha    90
_cell_angle_beta     111.593
_cell_angle_gamma    90

_space_group_name_H-M_alt    "P 1"
_space_group_IT_number       1

loop_
  _space_group_symop_operation_xyz
  'x, y, z'

loop_
  _atom_site_type_symbol
  _atom_site_label
  _atom_site_symmetry_multiplicity
  _atom_site_fract_x
  _atom_site_fract_y
  _atom_site_fract_z
  _atom_site_occupancy
  Cs  Cs1       1.0  0.15600  0.61500  0.08210  1.0000
  Cs  Cs2       1.0  0.63100  0.33700  0.10700  1.0000
  Cs  Cs3       1.0  0.06270  0.08830  0.20400  1.0000
  Cs  Cs4       1.0  0.57400  0.82800  0.20800  1.0000
  Cs  Cs5       1.0  0.42600  0.32800  0.29200  1.0000
  Cs  Cs6       1.0  0.93700  0.58800  0.29600  1.0000
  Cs  Cs7       1.0  0.36900  0.83700  0.39300  1.0000
  Cs  Cs8       1.0  0.84400  0.11500  0.41800  1.0000
  Cs  Cs9       1.0  0.15600  0.88500  0.58200  1.0000
  Cs  Cs10      1.0  0.63100  0.16300  0.60700  1.0000
  Cs  Cs11      1.0  0.06270  0.41200  0.70400  1.0000
  Cs  Cs12      1.0  0.57400  0.67200  0.70800  1.0000
  Cs  Cs13      1.0  0.42600  0.17200  0.79200  1.0000
  Cs  Cs14      1.0  0.93700  0.91200  0.79600  1.0000
  Cs  Cs15      1.0  0.36900  0.66300  0.89300  1.0000
  Cs  Cs16      1.0  0.84400  0.38500  0.91800  1.0000
  O   O1        1.0  0.36300  0.32400  0.01220  1.0000
  O   O2        1.0  0.91900  0.76400  0.02610  1.0000
  O   O3        1.0  0.30700  0.96600  0.14200  1.0000
  O   O4        1.0  0.78700  0.01490  0.16500  1.0000
  O   O5        1.0  0.21300  0.51500  0.33500  1.0000
  O   O6        1.0  0.69300  0.46600  0.35800  1.0000
  O   O7        1.0  0.08110  0.26400  0.47400  1.0000
  O   O8        1.0  0.63700  0.82400  0.48800  1.0000
  O   O9        1.0  0.36300  0.17600  0.51200  1.0000
  O   O10       1.0  0.91900  0.73600  0.52600  1.0000
  O   O11       1.0  0.30700  0.53400  0.64200  1.0000
  O   O12       1.0  0.78700  0.48500  0.66500  1.0000
  O   O13       1.0  0.21300  0.98500  0.83500  1.0000
  O   O14       1.0  0.69300  0.03430  0.85800  1.0000
  O   O15       1.0  0.08110  0.23600  0.97400  1.0000
  O   O16       1.0  0.63700  0.67600  0.98800  1.0000
  Sn  Sn1       1.0  0.75900  0.87600  0.00872  1.0000
  Sn  Sn2       1.0  0.24100  0.37600  0.49100  1.0000
  Sn  Sn3       1.0  0.75900  0.62400  0.50900  1.0000
  Sn  Sn4       1.0  0.24100  0.12400  0.99100  1.0000
