data_image0
_chemical_formula_structural       Co2Ni2O24P8
_chemical_formula_sum              "Co2 Ni2 O24 P8"
_cell_length_a       7.11264
_cell_length_b       7.11264
_cell_length_c       9.60124
_cell_angle_alpha    98.6804
_cell_angle_beta     110.139
_cell_angle_gamma    109.361

_space_group_name_H-M_alt    "P 1"
_space_group_IT_number       1

loop_
  _space_group_symop_operation_xyz
  'x, y, z'

loop_
  _atom_site_type_symbol
  _atom_site_label
  _atom_site_symmetry_multiplicity
  _atom_site_fract_x
  _atom_site_fract_y
  _atom_site_fract_z
  _atom_site_occupancy
  Co  Co1       1.0  0.31000  0.06010  0.25000  1.0000
  Co  Co2       1.0  0.69000  0.94000  0.75000  1.0000
  Ni  Ni1       1.0  0.50000  0.00000  0.00000  1.0000
  Ni  Ni2       1.0  0.50000  0.50000  0.50000  1.0000
  O   O1        1.0  0.27900  0.50800  0.06660  1.0000
  O   O2        1.0  0.38200  0.20100  0.08310  1.0000
  O   O3        1.0  0.01240  0.84500  0.09120  1.0000
  O   O4        1.0  0.80700  0.18800  0.14400  1.0000
  O   O5        1.0  0.69600  0.68500  0.16000  1.0000
  O   O6        1.0  0.47200  0.89100  0.18100  1.0000
  O   O7        1.0  0.20900  0.29100  0.31900  1.0000
  O   O8        1.0  0.02500  0.53600  0.34000  1.0000
  O   O9        1.0  0.54400  0.66300  0.35600  1.0000
  O   O10       1.0  0.25400  0.92100  0.40900  1.0000
  O   O11       1.0  0.61800  0.29900  0.41700  1.0000
  O   O12       1.0  0.94100  0.21200  0.43300  1.0000
  O   O13       1.0  0.05910  0.78800  0.56700  1.0000
  O   O14       1.0  0.38200  0.70100  0.58300  1.0000
  O   O15       1.0  0.74600  0.07890  0.59100  1.0000
  O   O16       1.0  0.45600  0.33700  0.64400  1.0000
  O   O17       1.0  0.97500  0.46400  0.66000  1.0000
  O   O18       1.0  0.79100  0.70900  0.68100  1.0000
  O   O19       1.0  0.52800  0.10900  0.81900  1.0000
  O   O20       1.0  0.30400  0.31500  0.84000  1.0000
  O   O21       1.0  0.19300  0.81200  0.85600  1.0000
  O   O22       1.0  0.98800  0.15500  0.90900  1.0000
  O   O23       1.0  0.61800  0.79900  0.91700  1.0000
  O   O24       1.0  0.72100  0.49200  0.93300  1.0000
  P   P1        1.0  0.77300  0.72500  0.02380  1.0000
  P   P2        1.0  0.49800  0.69300  0.20200  1.0000
  P   P3        1.0  0.99100  0.29700  0.29800  1.0000
  P   P4        1.0  0.20100  0.74900  0.47600  1.0000
  P   P5        1.0  0.79900  0.25100  0.52400  1.0000
  P   P6        1.0  0.00880  0.70300  0.70200  1.0000
  P   P7        1.0  0.50200  0.30700  0.79800  1.0000
  P   P8        1.0  0.22700  0.27500  0.97600  1.0000
