data_image0
_chemical_formula_structural       Cl4F20Ge4O8
_chemical_formula_sum              "Cl4 F20 Ge4 O8"
_cell_length_a       7.19793
_cell_length_b       7.91716
_cell_length_c       8.59853
_cell_angle_alpha    90
_cell_angle_beta     90
_cell_angle_gamma    62.9622

_space_group_name_H-M_alt    "P 1"
_space_group_IT_number       1

loop_
  _space_group_symop_operation_xyz
  'x, y, z'

loop_
  _atom_site_type_symbol
  _atom_site_label
  _atom_site_symmetry_multiplicity
  _atom_site_fract_x
  _atom_site_fract_y
  _atom_site_fract_z
  _atom_site_occupancy
  Cl  Cl1       1.0  0.27600  0.44900  0.00000  1.0000
  Cl  Cl2       1.0  0.61000  0.78000  0.00000  1.0000
  Cl  Cl3       1.0  0.39000  0.22000  0.50000  1.0000
  Cl  Cl4       1.0  0.72400  0.55100  0.50000  1.0000
  F   F1        1.0  0.92400  0.15300  0.00000  1.0000
  F   F2        1.0  0.95500  0.45300  0.09320  1.0000
  F   F3        1.0  0.25300  0.11200  0.12100  1.0000
  F   F4        1.0  0.36100  0.71700  0.12600  1.0000
  F   F5        1.0  0.06770  0.66700  0.24800  1.0000
  F   F6        1.0  0.00926  0.00000  0.25000  1.0000
  F   F7        1.0  0.73500  0.33300  0.25200  1.0000
  F   F8        1.0  0.07800  0.28300  0.37400  1.0000
  F   F9        1.0  0.36500  0.88800  0.37900  1.0000
  F   F10       1.0  0.40800  0.54700  0.40700  1.0000
  F   F11       1.0  0.07630  0.84700  0.50000  1.0000
  F   F12       1.0  0.04490  0.54700  0.59300  1.0000
  F   F13       1.0  0.74700  0.88800  0.62100  1.0000
  F   F14       1.0  0.63900  0.28300  0.62600  1.0000
  F   F15       1.0  0.93200  0.33300  0.74800  1.0000
  F   F16       1.0  0.99100  0.00000  0.75000  1.0000
  F   F17       1.0  0.26500  0.66700  0.75200  1.0000
  F   F18       1.0  0.92200  0.71700  0.87400  1.0000
  F   F19       1.0  0.63500  0.11200  0.87900  1.0000
  F   F20       1.0  0.59200  0.45300  0.90700  1.0000
  Ge  Ge1       1.0  0.99300  0.23600  0.18700  1.0000
  Ge  Ge2       1.0  0.22900  0.76400  0.31300  1.0000
  Ge  Ge3       1.0  0.00686  0.76400  0.68700  1.0000
  Ge  Ge4       1.0  0.77100  0.23600  0.81300  1.0000
  O   O1        1.0  0.65500  0.88100  0.11800  1.0000
  O   O2        1.0  0.39900  0.34500  0.12900  1.0000
  O   O3        1.0  0.74400  0.65500  0.37100  1.0000
  O   O4        1.0  0.53700  0.11900  0.38200  1.0000
  O   O5        1.0  0.34500  0.11900  0.61800  1.0000
  O   O6        1.0  0.60100  0.65500  0.62900  1.0000
  O   O7        1.0  0.25600  0.34500  0.87100  1.0000
  O   O8        1.0  0.46300  0.88100  0.88200  1.0000
