data_image0
_chemical_formula_structural       Ag4As4F28
_chemical_formula_sum              "Ag4 As4 F28"
_cell_length_a       7.24976
_cell_length_b       6.76492
_cell_length_c       9.40508
_cell_angle_alpha    90
_cell_angle_beta     90
_cell_angle_gamma    90

_space_group_name_H-M_alt    "P 1"
_space_group_IT_number       1

loop_
  _space_group_symop_operation_xyz
  'x, y, z'

loop_
  _atom_site_type_symbol
  _atom_site_label
  _atom_site_symmetry_multiplicity
  _atom_site_fract_x
  _atom_site_fract_y
  _atom_site_fract_z
  _atom_site_occupancy
  Ag  Ag1       1.0  0.14300  0.25000  0.24000  1.0000
  Ag  Ag2       1.0  0.64300  0.25000  0.26000  1.0000
  Ag  Ag3       1.0  0.35700  0.75000  0.74000  1.0000
  Ag  Ag4       1.0  0.85700  0.75000  0.76000  1.0000
  As  As1       1.0  0.19700  0.75000  0.06700  1.0000
  As  As2       1.0  0.69700  0.75000  0.43300  1.0000
  As  As3       1.0  0.30300  0.25000  0.56700  1.0000
  As  As4       1.0  0.80300  0.25000  0.93300  1.0000
  F   F1        1.0  0.03110  0.25000  0.00076  1.0000
  F   F2        1.0  0.74700  0.06130  0.05660  1.0000
  F   F3        1.0  0.74700  0.43900  0.05660  1.0000
  F   F4        1.0  0.42000  0.75000  0.13000  1.0000
  F   F5        1.0  0.39800  0.25000  0.15600  1.0000
  F   F6        1.0  0.12500  0.57200  0.19300  1.0000
  F   F7        1.0  0.12500  0.92800  0.19300  1.0000
  F   F8        1.0  0.62500  0.57200  0.30700  1.0000
  F   F9        1.0  0.62500  0.92800  0.30700  1.0000
  F   F10       1.0  0.89800  0.25000  0.34400  1.0000
  F   F11       1.0  0.92000  0.75000  0.37000  1.0000
  F   F12       1.0  0.24700  0.06130  0.44300  1.0000
  F   F13       1.0  0.24700  0.43900  0.44300  1.0000
  F   F14       1.0  0.53100  0.25000  0.49900  1.0000
  F   F15       1.0  0.46900  0.75000  0.50100  1.0000
  F   F16       1.0  0.75300  0.56100  0.55700  1.0000
  F   F17       1.0  0.75300  0.93900  0.55700  1.0000
  F   F18       1.0  0.08010  0.25000  0.63000  1.0000
  F   F19       1.0  0.10200  0.75000  0.65600  1.0000
  F   F20       1.0  0.37500  0.07210  0.69300  1.0000
  F   F21       1.0  0.37500  0.42800  0.69300  1.0000
  F   F22       1.0  0.87500  0.07210  0.80700  1.0000
  F   F23       1.0  0.87500  0.42800  0.80700  1.0000
  F   F24       1.0  0.60200  0.75000  0.84400  1.0000
  F   F25       1.0  0.58000  0.25000  0.87000  1.0000
  F   F26       1.0  0.25300  0.56100  0.94300  1.0000
  F   F27       1.0  0.25300  0.93900  0.94300  1.0000
  F   F28       1.0  0.96900  0.75000  0.99900  1.0000
