data_image0
_chemical_formula_structural       Al6H6O20Si4
_chemical_formula_sum              "Al6 H6 O20 Si4"
_cell_length_a       5.97919
_cell_length_b       7.17185
_cell_length_c       7.59032
_cell_angle_alpha    115.376
_cell_angle_beta     89.2133
_cell_angle_gamma    92.6544

_space_group_name_H-M_alt    "P 1"
_space_group_IT_number       1

loop_
  _space_group_symop_operation_xyz
  'x, y, z'

loop_
  _atom_site_type_symbol
  _atom_site_label
  _atom_site_symmetry_multiplicity
  _atom_site_fract_x
  _atom_site_fract_y
  _atom_site_fract_z
  _atom_site_occupancy
  Al  Al1       1.0  0.84400  0.14900  0.60400  1.0000
  Al  Al2       1.0  0.34400  0.65000  0.60500  1.0000
  Al  Al3       1.0  0.14000  0.84700  0.39400  1.0000
  Al  Al4       1.0  0.26200  0.74500  0.00319  1.0000
  Al  Al5       1.0  0.64100  0.34600  0.39300  1.0000
  Al  Al6       1.0  0.72300  0.25100  0.99600  1.0000
  H   H1        1.0  0.88800  0.50800  0.87100  1.0000
  H   H2        1.0  0.78200  0.75900  0.99200  1.0000
  H   H3        1.0  0.37800  0.01140  0.87100  1.0000
  H   H4        1.0  0.10300  0.48800  0.13000  1.0000
  H   H5        1.0  0.60900  0.98400  0.12900  1.0000
  H   H6        1.0  0.20800  0.23800  0.00740  1.0000
  O   O1        1.0  0.42400  0.25200  0.91100  1.0000
  O   O2        1.0  0.85200  0.36400  0.84600  1.0000
  O   O3        1.0  0.13200  0.63100  0.15200  1.0000
  O   O4        1.0  0.34800  0.86600  0.84600  1.0000
  O   O5        1.0  0.63900  0.13000  0.15300  1.0000
  O   O6        1.0  0.77600  0.00939  0.76700  1.0000
  O   O7        1.0  0.20800  0.98700  0.23200  1.0000
  O   O8        1.0  0.27800  0.50800  0.76800  1.0000
  O   O9        1.0  0.70700  0.48800  0.23100  1.0000
  O   O10       1.0  0.14900  0.10500  0.60900  1.0000
  O   O11       1.0  0.33700  0.39100  0.38900  1.0000
  O   O12       1.0  0.92500  0.28600  0.44200  1.0000
  O   O13       1.0  0.06000  0.71000  0.55800  1.0000
  O   O14       1.0  0.42300  0.78500  0.44200  1.0000
  O   O15       1.0  0.56100  0.21000  0.55600  1.0000
  O   O16       1.0  0.06290  0.23900  0.08660  1.0000
  O   O17       1.0  0.92500  0.75800  0.91200  1.0000
  O   O18       1.0  0.56000  0.74300  0.08770  1.0000
  O   O19       1.0  0.83500  0.89000  0.39000  1.0000
  O   O20       1.0  0.64900  0.60500  0.61000  1.0000
  Si  Si1       1.0  0.85200  0.77600  0.70900  1.0000
  Si  Si2       1.0  0.62900  0.72200  0.28600  1.0000
  Si  Si3       1.0  0.35600  0.27300  0.71300  1.0000
  Si  Si4       1.0  0.13300  0.22100  0.29000  1.0000
