data_image0
_chemical_formula_structural       Sc8Si16V12
_chemical_formula_sum              "Sc8 Si16 V12"
_cell_length_a       6.61956
_cell_length_b       6.61956
_cell_length_c       12.2464
_cell_angle_alpha    90
_cell_angle_beta     90
_cell_angle_gamma    90

_space_group_name_H-M_alt    "P 1"
_space_group_IT_number       1

loop_
  _space_group_symop_operation_xyz
  'x, y, z'

loop_
  _atom_site_type_symbol
  _atom_site_label
  _atom_site_symmetry_multiplicity
  _atom_site_fract_x
  _atom_site_fract_y
  _atom_site_fract_z
  _atom_site_occupancy
  Sc  Sc1       1.0  0.00159  0.66300  0.03000  1.0000
  Sc  Sc2       1.0  0.49800  0.16300  0.22000  1.0000
  Sc  Sc3       1.0  0.83700  0.50200  0.28000  1.0000
  Sc  Sc4       1.0  0.33700  0.99800  0.47000  1.0000
  Sc  Sc5       1.0  0.99800  0.33700  0.53000  1.0000
  Sc  Sc6       1.0  0.50200  0.83700  0.72000  1.0000
  Sc  Sc7       1.0  0.16300  0.49800  0.78000  1.0000
  Sc  Sc8       1.0  0.66300  0.00159  0.97000  1.0000
  Si  Si1       1.0  0.29400  0.96000  0.06450  1.0000
  Si  Si2       1.0  0.70300  0.37000  0.07010  1.0000
  Si  Si3       1.0  0.79700  0.87000  0.18000  1.0000
  Si  Si4       1.0  0.20600  0.46000  0.18500  1.0000
  Si  Si5       1.0  0.54000  0.79400  0.31500  1.0000
  Si  Si6       1.0  0.13000  0.20300  0.32000  1.0000
  Si  Si7       1.0  0.63000  0.29700  0.43000  1.0000
  Si  Si8       1.0  0.04000  0.70600  0.43500  1.0000
  Si  Si9       1.0  0.70600  0.04000  0.56500  1.0000
  Si  Si10      1.0  0.29700  0.63000  0.57000  1.0000
  Si  Si11      1.0  0.20300  0.13000  0.68000  1.0000
  Si  Si12      1.0  0.79400  0.54000  0.68500  1.0000
  Si  Si13      1.0  0.46000  0.20600  0.81500  1.0000
  Si  Si14      1.0  0.87000  0.79700  0.82000  1.0000
  Si  Si15      1.0  0.37000  0.70300  0.93000  1.0000
  Si  Si16      1.0  0.96000  0.29400  0.93500  1.0000
  V   V1        1.0  0.33200  0.33200  0.00000  1.0000
  V   V2        1.0  0.49200  0.65700  0.12300  1.0000
  V   V3        1.0  0.00785  0.15700  0.12700  1.0000
  V   V4        1.0  0.16800  0.83200  0.25000  1.0000
  V   V5        1.0  0.84300  0.99200  0.37300  1.0000
  V   V6        1.0  0.34300  0.50800  0.37700  1.0000
  V   V7        1.0  0.66800  0.66800  0.50000  1.0000
  V   V8        1.0  0.50800  0.34300  0.62300  1.0000
  V   V9        1.0  0.99200  0.84300  0.62700  1.0000
  V   V10       1.0  0.83200  0.16800  0.75000  1.0000
  V   V11       1.0  0.15700  0.00785  0.87300  1.0000
  V   V12       1.0  0.65700  0.49200  0.87700  1.0000
