data_image0
_chemical_formula_structural       Li8O11Te4
_chemical_formula_sum              "Li8 O11 Te4"
_cell_length_a       11.0019
_cell_length_b       5.70815
_cell_length_c       5.30737
_cell_angle_alpha    99.0811
_cell_angle_beta     96.7184
_cell_angle_gamma    119.18

_space_group_name_H-M_alt    "P 1"
_space_group_IT_number       1

loop_
  _space_group_symop_operation_xyz
  'x, y, z'

loop_
  _atom_site_type_symbol
  _atom_site_label
  _atom_site_symmetry_multiplicity
  _atom_site_fract_x
  _atom_site_fract_y
  _atom_site_fract_z
  _atom_site_occupancy
  Li  Li1       1.0  0.76200  0.55900  0.06240  1.0000
  Li  Li2       1.0  0.27300  0.20000  0.47600  1.0000
  Li  Li3       1.0  0.79300  0.31400  0.47600  1.0000
  Li  Li4       1.0  0.22800  0.65900  0.48200  1.0000
  Li  Li5       1.0  0.01510  0.10200  0.51900  1.0000
  Li  Li6       1.0  0.71700  0.72100  0.54000  1.0000
  Li  Li7       1.0  0.54000  0.16400  0.56900  1.0000
  Li  Li8       1.0  0.22000  0.41700  0.92600  1.0000
  O   O1        1.0  0.91700  0.49500  0.21600  1.0000
  O   O2        1.0  0.10700  0.28000  0.22000  1.0000
  O   O3        1.0  0.82700  0.96900  0.29800  1.0000
  O   O4        1.0  0.63300  0.35300  0.29900  1.0000
  O   O5        1.0  0.34900  0.97900  0.32900  1.0000
  O   O6        1.0  0.35400  0.56800  0.68300  1.0000
  O   O7        1.0  0.64800  0.99900  0.69000  1.0000
  O   O8        1.0  0.15300  0.03040  0.69700  1.0000
  O   O9        1.0  0.07540  0.48000  0.74100  1.0000
  O   O10       1.0  0.87600  0.67500  0.75800  1.0000
  O   O11       1.0  0.59300  0.51100  0.81500  1.0000
  Te  Te1       1.0  0.91600  0.17600  0.05240  1.0000
  Te  Te2       1.0  0.44200  0.20700  0.08520  1.0000
  Te  Te3       1.0  0.53700  0.78100  0.90800  1.0000
  Te  Te4       1.0  0.06710  0.78900  0.91700  1.0000
