data_image0
_chemical_formula_structural       Gd8O24W4
_chemical_formula_sum              "Gd8 O24 W4"
_cell_length_a       5.2606
_cell_length_b       9.10746
_cell_length_c       9.94719
_cell_angle_alpha    90
_cell_angle_beta     90
_cell_angle_gamma    90

_space_group_name_H-M_alt    "P 1"
_space_group_IT_number       1

loop_
  _space_group_symop_operation_xyz
  'x, y, z'

loop_
  _atom_site_type_symbol
  _atom_site_label
  _atom_site_symmetry_multiplicity
  _atom_site_fract_x
  _atom_site_fract_y
  _atom_site_fract_z
  _atom_site_occupancy
  Gd  Gd1       1.0  0.02330  0.39700  0.03450  1.0000
  Gd  Gd2       1.0  0.46400  0.72000  0.12800  1.0000
  Gd  Gd3       1.0  0.53600  0.22000  0.37200  1.0000
  Gd  Gd4       1.0  0.97700  0.89700  0.46500  1.0000
  Gd  Gd5       1.0  0.47700  0.60300  0.53500  1.0000
  Gd  Gd6       1.0  0.03560  0.28000  0.62800  1.0000
  Gd  Gd7       1.0  0.96400  0.78000  0.87200  1.0000
  Gd  Gd8       1.0  0.52300  0.10300  0.96500  1.0000
  O   O1        1.0  0.25200  0.90900  0.00641  1.0000
  O   O2        1.0  0.92600  0.15500  0.02630  1.0000
  O   O3        1.0  0.77100  0.88700  0.06620  1.0000
  O   O4        1.0  0.31800  0.13800  0.18100  1.0000
  O   O5        1.0  0.17600  0.54800  0.20600  1.0000
  O   O6        1.0  0.80700  0.36000  0.23500  1.0000
  O   O7        1.0  0.19300  0.86000  0.26500  1.0000
  O   O8        1.0  0.82400  0.04810  0.29400  1.0000
  O   O9        1.0  0.68200  0.63800  0.31900  1.0000
  O   O10       1.0  0.22900  0.38700  0.43400  1.0000
  O   O11       1.0  0.07410  0.65500  0.47400  1.0000
  O   O12       1.0  0.74800  0.40900  0.49400  1.0000
  O   O13       1.0  0.24800  0.09080  0.50600  1.0000
  O   O14       1.0  0.57400  0.84500  0.52600  1.0000
  O   O15       1.0  0.72900  0.11300  0.56600  1.0000
  O   O16       1.0  0.18200  0.86200  0.68100  1.0000
  O   O17       1.0  0.32400  0.45200  0.70600  1.0000
  O   O18       1.0  0.69300  0.64000  0.73500  1.0000
  O   O19       1.0  0.30700  0.14000  0.76500  1.0000
  O   O20       1.0  0.67600  0.95200  0.79400  1.0000
  O   O21       1.0  0.81800  0.36200  0.81900  1.0000
  O   O22       1.0  0.27100  0.61300  0.93400  1.0000
  O   O23       1.0  0.42600  0.34500  0.97400  1.0000
  O   O24       1.0  0.75200  0.59100  0.99400  1.0000
  W   W1        1.0  0.04200  0.00466  0.15200  1.0000
  W   W2        1.0  0.95800  0.50500  0.34800  1.0000
  W   W3        1.0  0.45800  0.99500  0.65200  1.0000
  W   W4        1.0  0.54200  0.49500  0.84800  1.0000
