data_image0
_chemical_formula_structural       BaNiO5Tm2
_chemical_formula_sum              "Ba1 Ni1 O5 Tm2"
_cell_length_a       3.7261
_cell_length_b       5.68954
_cell_length_c       6.54558
_cell_angle_alpha    115.76
_cell_angle_beta     106.537
_cell_angle_gamma    90

_space_group_name_H-M_alt    "P 1"
_space_group_IT_number       1

loop_
  _space_group_symop_operation_xyz
  'x, y, z'

loop_
  _atom_site_type_symbol
  _atom_site_label
  _atom_site_symmetry_multiplicity
  _atom_site_fract_x
  _atom_site_fract_y
  _atom_site_fract_z
  _atom_site_occupancy
  Ba  Ba1       1.0  0.00000  0.00000  0.00000  1.0000
  Ni  Ni1       1.0  0.50000  0.50000  0.00000  1.0000
  O   O1        1.0  0.00000  0.50000  0.00000  1.0000
  O   O2        1.0  0.65100  0.41200  0.30200  1.0000
  O   O3        1.0  0.65100  0.89000  0.30200  1.0000
  O   O4        1.0  0.34900  0.11000  0.69800  1.0000
  O   O5        1.0  0.34900  0.58800  0.69800  1.0000
  Tm  Tm1       1.0  0.20400  0.70400  0.40700  1.0000
  Tm  Tm2       1.0  0.79600  0.29600  0.59300  1.0000
