data_image0
_chemical_formula_structural       O5Tc2
_chemical_formula_sum              "O5 Tc2"
_cell_length_a       5.09533
_cell_length_b       5.09533
_cell_length_c       4.78069
_cell_angle_alpha    99.6956
_cell_angle_beta     99.6956
_cell_angle_gamma    121.478

_space_group_name_H-M_alt    "P 1"
_space_group_IT_number       1

loop_
  _space_group_symop_operation_xyz
  'x, y, z'

loop_
  _atom_site_type_symbol
  _atom_site_label
  _atom_site_symmetry_multiplicity
  _atom_site_fract_x
  _atom_site_fract_y
  _atom_site_fract_z
  _atom_site_occupancy
  O   O1        1.0  0.97900  0.55500  0.25000  1.0000
  O   O2        1.0  0.55500  0.97900  0.25000  1.0000
  O   O3        1.0  0.38900  0.09780  0.73600  1.0000
  O   O4        1.0  0.09780  0.38900  0.73600  1.0000
  O   O5        1.0  0.85500  0.85500  0.89700  1.0000
  Tc  Tc1       1.0  0.76700  0.17500  0.94900  1.0000
  Tc  Tc2       1.0  0.17500  0.76700  0.94900  1.0000
