data_image0
_chemical_formula_structural       Cs4Nb4O24U4
_chemical_formula_sum              "Cs4 Nb4 O24 U4"
_cell_length_a       7.26393
_cell_length_b       8.73678
_cell_length_c       10.7264
_cell_angle_alpha    90
_cell_angle_beta     105.521
_cell_angle_gamma    90

_space_group_name_H-M_alt    "P 1"
_space_group_IT_number       1

loop_
  _space_group_symop_operation_xyz
  'x, y, z'

loop_
  _atom_site_type_symbol
  _atom_site_label
  _atom_site_symmetry_multiplicity
  _atom_site_fract_x
  _atom_site_fract_y
  _atom_site_fract_z
  _atom_site_occupancy
  Cs  Cs1       1.0  0.45600  0.77000  0.13800  1.0000
  Cs  Cs2       1.0  0.54400  0.27000  0.36200  1.0000
  Cs  Cs3       1.0  0.45600  0.73000  0.63800  1.0000
  Cs  Cs4       1.0  0.54400  0.23000  0.86200  1.0000
  Nb  Nb1       1.0  0.12200  0.15000  0.05770  1.0000
  Nb  Nb2       1.0  0.87800  0.65000  0.44200  1.0000
  Nb  Nb3       1.0  0.12200  0.35000  0.55800  1.0000
  Nb  Nb4       1.0  0.87800  0.85000  0.94200  1.0000
  O   O1        1.0  0.96400  0.64800  0.00571  1.0000
  O   O2        1.0  0.37200  0.13500  0.07480  1.0000
  O   O3        1.0  0.04130  0.93900  0.11100  1.0000
  O   O4        1.0  0.73100  0.44000  0.12200  1.0000
  O   O5        1.0  0.08210  0.21300  0.22400  1.0000
  O   O6        1.0  0.23600  0.52000  0.23500  1.0000
  O   O7        1.0  0.76400  0.02050  0.26500  1.0000
  O   O8        1.0  0.91800  0.71300  0.27600  1.0000
  O   O9        1.0  0.26900  0.94000  0.37800  1.0000
  O   O10       1.0  0.95900  0.43900  0.38900  1.0000
  O   O11       1.0  0.62800  0.63500  0.42500  1.0000
  O   O12       1.0  0.03560  0.14800  0.49400  1.0000
  O   O13       1.0  0.96400  0.85200  0.50600  1.0000
  O   O14       1.0  0.37200  0.36500  0.57500  1.0000
  O   O15       1.0  0.04130  0.56100  0.61100  1.0000
  O   O16       1.0  0.73100  0.06040  0.62200  1.0000
  O   O17       1.0  0.08210  0.28700  0.72400  1.0000
  O   O18       1.0  0.23600  0.98000  0.73500  1.0000
  O   O19       1.0  0.76400  0.48000  0.76500  1.0000
  O   O20       1.0  0.91800  0.78700  0.77600  1.0000
  O   O21       1.0  0.26900  0.56000  0.87800  1.0000
  O   O22       1.0  0.95900  0.06090  0.88900  1.0000
  O   O23       1.0  0.62800  0.86500  0.92500  1.0000
  O   O24       1.0  0.03560  0.35200  0.99400  1.0000
  U   U1        1.0  0.98400  0.48000  0.17800  1.0000
  U   U2        1.0  0.01600  0.98000  0.32200  1.0000
  U   U3        1.0  0.98400  0.02000  0.67800  1.0000
  U   U4        1.0  0.01600  0.52000  0.82200  1.0000
