data_image0
_chemical_formula_structural       Gd20Si16
_chemical_formula_sum              "Gd20 Si16"
_cell_length_a       7.53815
_cell_length_b       14.7449
_cell_length_c       7.76178
_cell_angle_alpha    90
_cell_angle_beta     90
_cell_angle_gamma    90

_space_group_name_H-M_alt    "P 1"
_space_group_IT_number       1

loop_
  _space_group_symop_operation_xyz
  'x, y, z'

loop_
  _atom_site_type_symbol
  _atom_site_label
  _atom_site_symmetry_multiplicity
  _atom_site_fract_x
  _atom_site_fract_y
  _atom_site_fract_z
  _atom_site_occupancy
  Gd  Gd1       1.0  0.35600  0.25000  0.01160  1.0000
  Gd  Gd2       1.0  0.31500  0.62200  0.18000  1.0000
  Gd  Gd3       1.0  0.31500  0.87800  0.18000  1.0000
  Gd  Gd4       1.0  0.03450  0.09990  0.18500  1.0000
  Gd  Gd5       1.0  0.03450  0.40000  0.18500  1.0000
  Gd  Gd6       1.0  0.53500  0.09990  0.31500  1.0000
  Gd  Gd7       1.0  0.53500  0.40000  0.31500  1.0000
  Gd  Gd8       1.0  0.81500  0.62200  0.32000  1.0000
  Gd  Gd9       1.0  0.81500  0.87800  0.32000  1.0000
  Gd  Gd10      1.0  0.85600  0.25000  0.48800  1.0000
  Gd  Gd11      1.0  0.14400  0.75000  0.51200  1.0000
  Gd  Gd12      1.0  0.18500  0.12200  0.68000  1.0000
  Gd  Gd13      1.0  0.18500  0.37800  0.68000  1.0000
  Gd  Gd14      1.0  0.46500  0.60000  0.68500  1.0000
  Gd  Gd15      1.0  0.46500  0.90000  0.68500  1.0000
  Gd  Gd16      1.0  0.96500  0.60000  0.81500  1.0000
  Gd  Gd17      1.0  0.96500  0.90000  0.81500  1.0000
  Gd  Gd18      1.0  0.68500  0.12200  0.82000  1.0000
  Gd  Gd19      1.0  0.68500  0.37800  0.82000  1.0000
  Gd  Gd20      1.0  0.64400  0.75000  0.98800  1.0000
  Si  Si1       1.0  0.64100  0.54100  0.02700  1.0000
  Si  Si2       1.0  0.64100  0.95900  0.02700  1.0000
  Si  Si3       1.0  0.01890  0.75000  0.10300  1.0000
  Si  Si4       1.0  0.74100  0.25000  0.12500  1.0000
  Si  Si5       1.0  0.24100  0.25000  0.37500  1.0000
  Si  Si6       1.0  0.51900  0.75000  0.39700  1.0000
  Si  Si7       1.0  0.14100  0.54100  0.47300  1.0000
  Si  Si8       1.0  0.14100  0.95900  0.47300  1.0000
  Si  Si9       1.0  0.85900  0.04080  0.52700  1.0000
  Si  Si10      1.0  0.85900  0.45900  0.52700  1.0000
  Si  Si11      1.0  0.48100  0.25000  0.60300  1.0000
  Si  Si12      1.0  0.75900  0.75000  0.62500  1.0000
  Si  Si13      1.0  0.25900  0.75000  0.87500  1.0000
  Si  Si14      1.0  0.98100  0.25000  0.89700  1.0000
  Si  Si15      1.0  0.35900  0.04080  0.97300  1.0000
  Si  Si16      1.0  0.35900  0.45900  0.97300  1.0000
