data_image0
_chemical_formula_structural       As8Ba8Se20
_chemical_formula_sum              "As8 Ba8 Se20"
_cell_length_a       10.2863
_cell_length_b       12.5446
_cell_length_c       9.50742
_cell_angle_alpha    90
_cell_angle_beta     118.103
_cell_angle_gamma    90

_space_group_name_H-M_alt    "P 1"
_space_group_IT_number       1

loop_
  _space_group_symop_operation_xyz
  'x, y, z'

loop_
  _atom_site_type_symbol
  _atom_site_label
  _atom_site_symmetry_multiplicity
  _atom_site_fract_x
  _atom_site_fract_y
  _atom_site_fract_z
  _atom_site_occupancy
  As  As1       1.0  0.73800  0.58200  0.13000  1.0000
  As  As2       1.0  0.99300  0.01120  0.21100  1.0000
  As  As3       1.0  0.51200  0.19800  0.47400  1.0000
  As  As4       1.0  0.24800  0.12200  0.48300  1.0000
  As  As5       1.0  0.75200  0.62200  0.51700  1.0000
  As  As6       1.0  0.48800  0.69800  0.52600  1.0000
  As  As7       1.0  0.00696  0.51100  0.78900  1.0000
  As  As8       1.0  0.26200  0.08190  0.87000  1.0000
  Ba  Ba1       1.0  0.14200  0.77400  0.06460  1.0000
  Ba  Ba2       1.0  0.34700  0.43100  0.17000  1.0000
  Ba  Ba3       1.0  0.64600  0.93300  0.31500  1.0000
  Ba  Ba4       1.0  0.84200  0.28200  0.42400  1.0000
  Ba  Ba5       1.0  0.15800  0.78200  0.57600  1.0000
  Ba  Ba6       1.0  0.35400  0.43300  0.68500  1.0000
  Ba  Ba7       1.0  0.65300  0.93100  0.83000  1.0000
  Ba  Ba8       1.0  0.85800  0.27400  0.93500  1.0000
  Se  Se1       1.0  0.98500  0.52200  0.03120  1.0000
  Se  Se2       1.0  0.63300  0.40500  0.06560  1.0000
  Se  Se3       1.0  0.76300  0.10500  0.13500  1.0000
  Se  Se4       1.0  0.89800  0.83100  0.19700  1.0000
  Se  Se5       1.0  0.47800  0.18400  0.20700  1.0000
  Se  Se6       1.0  0.57000  0.66500  0.23100  1.0000
  Se  Se7       1.0  0.14000  0.29100  0.35300  1.0000
  Se  Se8       1.0  0.26000  0.60400  0.37600  1.0000
  Se  Se9       1.0  0.92800  0.55300  0.41800  1.0000
  Se  Se10      1.0  0.39400  0.88100  0.44400  1.0000
  Se  Se11      1.0  0.60600  0.38100  0.55600  1.0000
  Se  Se12      1.0  0.07200  0.05320  0.58200  1.0000
  Se  Se13      1.0  0.74000  0.10400  0.62400  1.0000
  Se  Se14      1.0  0.86000  0.79100  0.64700  1.0000
  Se  Se15      1.0  0.43000  0.16500  0.76900  1.0000
  Se  Se16      1.0  0.52200  0.68400  0.79300  1.0000
  Se  Se17      1.0  0.10200  0.33100  0.80300  1.0000
  Se  Se18      1.0  0.23700  0.60500  0.86500  1.0000
  Se  Se19      1.0  0.36700  0.90500  0.93400  1.0000
  Se  Se20      1.0  0.01450  0.02160  0.96900  1.0000
