data_image0
_chemical_formula_structural       Ba4Cu4O20Yb8
_chemical_formula_sum              "Ba4 Cu4 O20 Yb8"
_cell_length_a       11.9614
_cell_length_b       5.58631
_cell_length_c       7.00496
_cell_angle_alpha    90
_cell_angle_beta     90
_cell_angle_gamma    90

_space_group_name_H-M_alt    "P 1"
_space_group_IT_number       1

loop_
  _space_group_symop_operation_xyz
  'x, y, z'

loop_
  _atom_site_type_symbol
  _atom_site_label
  _atom_site_symmetry_multiplicity
  _atom_site_fract_x
  _atom_site_fract_y
  _atom_site_fract_z
  _atom_site_occupancy
  Ba  Ba1       1.0  0.10100  0.75000  0.06920  1.0000
  Ba  Ba2       1.0  0.60100  0.75000  0.43100  1.0000
  Ba  Ba3       1.0  0.39900  0.25000  0.56900  1.0000
  Ba  Ba4       1.0  0.89900  0.25000  0.93100  1.0000
  Cu  Cu1       1.0  0.84200  0.75000  0.21100  1.0000
  Cu  Cu2       1.0  0.34200  0.75000  0.28900  1.0000
  Cu  Cu3       1.0  0.65800  0.25000  0.71100  1.0000
  Cu  Cu4       1.0  0.15800  0.25000  0.78900  1.0000
  O   O1        1.0  0.10300  0.25000  0.06910  1.0000
  O   O2        1.0  0.73400  0.51400  0.15300  1.0000
  O   O3        1.0  0.73400  0.98600  0.15300  1.0000
  O   O4        1.0  0.43600  0.52100  0.18000  1.0000
  O   O5        1.0  0.43600  0.97900  0.18000  1.0000
  O   O6        1.0  0.93600  0.52100  0.32000  1.0000
  O   O7        1.0  0.93600  0.97900  0.32000  1.0000
  O   O8        1.0  0.23400  0.51400  0.34700  1.0000
  O   O9        1.0  0.23400  0.98600  0.34700  1.0000
  O   O10       1.0  0.60300  0.25000  0.43100  1.0000
  O   O11       1.0  0.39700  0.75000  0.56900  1.0000
  O   O12       1.0  0.76600  0.01430  0.65300  1.0000
  O   O13       1.0  0.76600  0.48600  0.65300  1.0000
  O   O14       1.0  0.06360  0.02070  0.68000  1.0000
  O   O15       1.0  0.06360  0.47900  0.68000  1.0000
  O   O16       1.0  0.56400  0.02070  0.82000  1.0000
  O   O17       1.0  0.56400  0.47900  0.82000  1.0000
  O   O18       1.0  0.26600  0.01430  0.84700  1.0000
  O   O19       1.0  0.26600  0.48600  0.84700  1.0000
  O   O20       1.0  0.89700  0.75000  0.93100  1.0000
  Yb  Yb1       1.0  0.57600  0.25000  0.10600  1.0000
  Yb  Yb2       1.0  0.29500  0.25000  0.11500  1.0000
  Yb  Yb3       1.0  0.79500  0.25000  0.38500  1.0000
  Yb  Yb4       1.0  0.07650  0.25000  0.39400  1.0000
  Yb  Yb5       1.0  0.92400  0.75000  0.60600  1.0000
  Yb  Yb6       1.0  0.20500  0.75000  0.61500  1.0000
  Yb  Yb7       1.0  0.70500  0.75000  0.88500  1.0000
  Yb  Yb8       1.0  0.42400  0.75000  0.89400  1.0000
