data_image0
_chemical_formula_structural       B4Ga4Ni8O20
_chemical_formula_sum              "B4 Ga4 Ni8 O20"
_cell_length_a       9.20723
_cell_length_b       12.1527
_cell_length_c       2.96088
_cell_angle_alpha    90
_cell_angle_beta     90
_cell_angle_gamma    90

_space_group_name_H-M_alt    "P 1"
_space_group_IT_number       1

loop_
  _space_group_symop_operation_xyz
  'x, y, z'

loop_
  _atom_site_type_symbol
  _atom_site_label
  _atom_site_symmetry_multiplicity
  _atom_site_fract_x
  _atom_site_fract_y
  _atom_site_fract_z
  _atom_site_occupancy
  B   B1        1.0  0.77300  0.13900  0.00000  1.0000
  B   B2        1.0  0.27300  0.36100  0.00000  1.0000
  B   B3        1.0  0.72700  0.63900  0.00000  1.0000
  B   B4        1.0  0.22700  0.86100  0.00000  1.0000
  Ga  Ga1       1.0  0.23900  0.11600  0.00000  1.0000
  Ga  Ga2       1.0  0.73900  0.38400  0.00000  1.0000
  Ga  Ga3       1.0  0.26100  0.61600  0.00000  1.0000
  Ga  Ga4       1.0  0.76100  0.88400  0.00000  1.0000
  Ni  Ni1       1.0  0.50000  0.00000  0.00000  1.0000
  Ni  Ni2       1.0  0.00000  0.50000  0.00000  1.0000
  Ni  Ni3       1.0  0.00000  0.00000  0.50000  1.0000
  Ni  Ni4       1.0  0.50000  0.21800  0.50000  1.0000
  Ni  Ni5       1.0  0.00000  0.28200  0.50000  1.0000
  Ni  Ni6       1.0  0.50000  0.50000  0.50000  1.0000
  Ni  Ni7       1.0  0.00000  0.71800  0.50000  1.0000
  Ni  Ni8       1.0  0.50000  0.78200  0.50000  1.0000
  O   O1        1.0  0.85000  0.04100  0.00000  1.0000
  O   O2        1.0  0.62300  0.14000  0.00000  1.0000
  O   O3        1.0  0.84900  0.23800  0.00000  1.0000
  O   O4        1.0  0.34900  0.26200  0.00000  1.0000
  O   O5        1.0  0.12300  0.36000  0.00000  1.0000
  O   O6        1.0  0.35000  0.45900  0.00000  1.0000
  O   O7        1.0  0.65000  0.54100  0.00000  1.0000
  O   O8        1.0  0.87700  0.64000  0.00000  1.0000
  O   O9        1.0  0.65100  0.73800  0.00000  1.0000
  O   O10       1.0  0.15100  0.76200  0.00000  1.0000
  O   O11       1.0  0.37700  0.86000  0.00000  1.0000
  O   O12       1.0  0.15000  0.95900  0.00000  1.0000
  O   O13       1.0  0.38200  0.07790  0.50000  1.0000
  O   O14       1.0  0.10800  0.14400  0.50000  1.0000
  O   O15       1.0  0.60800  0.35600  0.50000  1.0000
  O   O16       1.0  0.88200  0.42200  0.50000  1.0000
  O   O17       1.0  0.11800  0.57800  0.50000  1.0000
  O   O18       1.0  0.39200  0.64400  0.50000  1.0000
  O   O19       1.0  0.89200  0.85600  0.50000  1.0000
  O   O20       1.0  0.61800  0.92200  0.50000  1.0000
