data_image0
_chemical_formula_structural       Gd8Mo4O24
_chemical_formula_sum              "Gd8 Mo4 O24"
_cell_length_a       5.3924
_cell_length_b       9.90913
_cell_length_c       9.90913
_cell_angle_alpha    68.1628
_cell_angle_beta     104.945
_cell_angle_gamma    104.945

_space_group_name_H-M_alt    "P 1"
_space_group_IT_number       1

loop_
  _space_group_symop_operation_xyz
  'x, y, z'

loop_
  _atom_site_type_symbol
  _atom_site_label
  _atom_site_symmetry_multiplicity
  _atom_site_fract_x
  _atom_site_fract_y
  _atom_site_fract_z
  _atom_site_occupancy
  Gd  Gd1       1.0  0.75000  0.86500  0.13500  1.0000
  Gd  Gd2       1.0  0.61900  0.44700  0.21400  1.0000
  Gd  Gd3       1.0  0.25000  0.60900  0.39100  1.0000
  Gd  Gd4       1.0  0.11900  0.21400  0.44700  1.0000
  Gd  Gd5       1.0  0.88100  0.78600  0.55300  1.0000
  Gd  Gd6       1.0  0.75000  0.39100  0.60900  1.0000
  Gd  Gd7       1.0  0.38100  0.55300  0.78600  1.0000
  Gd  Gd8       1.0  0.25000  0.13500  0.86500  1.0000
  Mo  Mo1       1.0  0.93800  0.29700  0.01140  1.0000
  Mo  Mo2       1.0  0.43800  0.01140  0.29700  1.0000
  Mo  Mo3       1.0  0.56200  0.98900  0.70300  1.0000
  Mo  Mo4       1.0  0.06240  0.70300  0.98900  1.0000
  O   O1        1.0  0.23900  0.43400  0.02540  1.0000
  O   O2        1.0  0.98500  0.11200  0.04800  1.0000
  O   O3        1.0  0.48500  0.04800  0.11200  1.0000
  O   O4        1.0  0.37100  0.67300  0.11700  1.0000
  O   O5        1.0  0.86100  0.28600  0.18300  1.0000
  O   O6        1.0  0.91600  0.66200  0.19000  1.0000
  O   O7        1.0  0.36100  0.18300  0.28600  1.0000
  O   O8        1.0  0.12900  0.88300  0.32700  1.0000
  O   O9        1.0  0.58400  0.81000  0.33800  1.0000
  O   O10       1.0  0.42000  0.42500  0.39100  1.0000
  O   O11       1.0  0.92000  0.39100  0.42500  1.0000
  O   O12       1.0  0.73900  0.02540  0.43400  1.0000
  O   O13       1.0  0.26100  0.97500  0.56600  1.0000
  O   O14       1.0  0.07950  0.60900  0.57500  1.0000
  O   O15       1.0  0.58000  0.57500  0.60900  1.0000
  O   O16       1.0  0.41600  0.19000  0.66200  1.0000
  O   O17       1.0  0.87100  0.11700  0.67300  1.0000
  O   O18       1.0  0.63900  0.81700  0.71400  1.0000
  O   O19       1.0  0.08400  0.33800  0.81000  1.0000
  O   O20       1.0  0.13900  0.71400  0.81700  1.0000
  O   O21       1.0  0.62900  0.32700  0.88300  1.0000
  O   O22       1.0  0.51500  0.95200  0.88800  1.0000
  O   O23       1.0  0.01480  0.88800  0.95200  1.0000
  O   O24       1.0  0.76100  0.56600  0.97500  1.0000
