data_image0
_chemical_formula_structural       Cl24Rb6Re6
_chemical_formula_sum              "Cl24 Rb6 Re6"
_cell_length_a       9.16593
_cell_length_b       9.16593
_cell_length_c       12.2358
_cell_angle_alpha    90
_cell_angle_beta     90
_cell_angle_gamma    70.4194

_space_group_name_H-M_alt    "P 1"
_space_group_IT_number       1

loop_
  _space_group_symop_operation_xyz
  'x, y, z'

loop_
  _atom_site_type_symbol
  _atom_site_label
  _atom_site_symmetry_multiplicity
  _atom_site_fract_x
  _atom_site_fract_y
  _atom_site_fract_z
  _atom_site_occupancy
  Cl  Cl1       1.0  0.12500  0.12500  0.03550  1.0000
  Cl  Cl2       1.0  0.64800  0.64800  0.05100  1.0000
  Cl  Cl3       1.0  0.58900  0.02030  0.12100  1.0000
  Cl  Cl4       1.0  0.02030  0.58900  0.12100  1.0000
  Cl  Cl5       1.0  0.83500  0.40100  0.25000  1.0000
  Cl  Cl6       1.0  0.47300  0.47300  0.25000  1.0000
  Cl  Cl7       1.0  0.40100  0.83500  0.25000  1.0000
  Cl  Cl8       1.0  0.92900  0.92900  0.25000  1.0000
  Cl  Cl9       1.0  0.58900  0.02030  0.37900  1.0000
  Cl  Cl10      1.0  0.02030  0.58900  0.37900  1.0000
  Cl  Cl11      1.0  0.64800  0.64800  0.44900  1.0000
  Cl  Cl12      1.0  0.12500  0.12500  0.46500  1.0000
  Cl  Cl13      1.0  0.87500  0.87500  0.53500  1.0000
  Cl  Cl14      1.0  0.35200  0.35200  0.55100  1.0000
  Cl  Cl15      1.0  0.98000  0.41100  0.62100  1.0000
  Cl  Cl16      1.0  0.41100  0.98000  0.62100  1.0000
  Cl  Cl17      1.0  0.07110  0.07110  0.75000  1.0000
  Cl  Cl18      1.0  0.59900  0.16500  0.75000  1.0000
  Cl  Cl19      1.0  0.52700  0.52700  0.75000  1.0000
  Cl  Cl20      1.0  0.16500  0.59900  0.75000  1.0000
  Cl  Cl21      1.0  0.98000  0.41100  0.87900  1.0000
  Cl  Cl22      1.0  0.41100  0.98000  0.87900  1.0000
  Cl  Cl23      1.0  0.35200  0.35200  0.94900  1.0000
  Cl  Cl24      1.0  0.87500  0.87500  0.96500  1.0000
  Rb  Rb1       1.0  0.75000  0.25000  0.00000  1.0000
  Rb  Rb2       1.0  0.25000  0.75000  0.00000  1.0000
  Rb  Rb3       1.0  0.25300  0.25300  0.25000  1.0000
  Rb  Rb4       1.0  0.75000  0.25000  0.50000  1.0000
  Rb  Rb5       1.0  0.25000  0.75000  0.50000  1.0000
  Rb  Rb6       1.0  0.74700  0.74700  0.75000  1.0000
  Re  Re1       1.0  0.78900  0.78900  0.15000  1.0000
  Re  Re2       1.0  0.64800  0.64800  0.25000  1.0000
  Re  Re3       1.0  0.78900  0.78900  0.35000  1.0000
  Re  Re4       1.0  0.21100  0.21100  0.65000  1.0000
  Re  Re5       1.0  0.35200  0.35200  0.75000  1.0000
  Re  Re6       1.0  0.21100  0.21100  0.85000  1.0000
