data_image0
_chemical_formula_structural       Ce4O24Se8
_chemical_formula_sum              "Ce4 O24 Se8"
_cell_length_a       7.13669
_cell_length_b       10.7231
_cell_length_c       7.16037
_cell_angle_alpha    90
_cell_angle_beta     107.14
_cell_angle_gamma    90

_space_group_name_H-M_alt    "P 1"
_space_group_IT_number       1

loop_
  _space_group_symop_operation_xyz
  'x, y, z'

loop_
  _atom_site_type_symbol
  _atom_site_label
  _atom_site_symmetry_multiplicity
  _atom_site_fract_x
  _atom_site_fract_y
  _atom_site_fract_z
  _atom_site_occupancy
  Ce  Ce1       1.0  0.74500  0.90400  0.00184  1.0000
  Ce  Ce2       1.0  0.75500  0.40400  0.49800  1.0000
  Ce  Ce3       1.0  0.24500  0.59600  0.50200  1.0000
  Ce  Ce4       1.0  0.25500  0.09560  0.99800  1.0000
  O   O1        1.0  0.40700  0.88700  0.00885  1.0000
  O   O2        1.0  0.68700  0.69500  0.10500  1.0000
  O   O3        1.0  0.10500  0.90000  0.13100  1.0000
  O   O4        1.0  0.70800  0.44600  0.14900  1.0000
  O   O5        1.0  0.03750  0.58600  0.16300  1.0000
  O   O6        1.0  0.12000  0.23300  0.20300  1.0000
  O   O7        1.0  0.38000  0.73300  0.29700  1.0000
  O   O8        1.0  0.46200  0.08610  0.33700  1.0000
  O   O9        1.0  0.79200  0.94600  0.35100  1.0000
  O   O10       1.0  0.39500  0.40000  0.36900  1.0000
  O   O11       1.0  0.81300  0.19500  0.39500  1.0000
  O   O12       1.0  0.09290  0.38700  0.49100  1.0000
  O   O13       1.0  0.90700  0.61300  0.50900  1.0000
  O   O14       1.0  0.18700  0.80500  0.60500  1.0000
  O   O15       1.0  0.60500  0.60000  0.63100  1.0000
  O   O16       1.0  0.20800  0.05350  0.64900  1.0000
  O   O17       1.0  0.53800  0.91400  0.66300  1.0000
  O   O18       1.0  0.62000  0.26700  0.70300  1.0000
  O   O19       1.0  0.88000  0.76700  0.79700  1.0000
  O   O20       1.0  0.96200  0.41400  0.83700  1.0000
  O   O21       1.0  0.29200  0.55400  0.85100  1.0000
  O   O22       1.0  0.89500  0.10000  0.86900  1.0000
  O   O23       1.0  0.31300  0.30500  0.89500  1.0000
  O   O24       1.0  0.59300  0.11300  0.99100  1.0000
  Se  Se1       1.0  0.79200  0.56700  0.04250  1.0000
  Se  Se2       1.0  0.25000  0.78200  0.06990  1.0000
  Se  Se3       1.0  0.25000  0.28200  0.43000  1.0000
  Se  Se4       1.0  0.70800  0.06680  0.45800  1.0000
  Se  Se5       1.0  0.29200  0.93300  0.54200  1.0000
  Se  Se6       1.0  0.75000  0.71800  0.57000  1.0000
  Se  Se7       1.0  0.75000  0.21800  0.93000  1.0000
  Se  Se8       1.0  0.20800  0.43300  0.95800  1.0000
