data_image0
_chemical_formula_structural       Ge16Sc8V12
_chemical_formula_sum              "Ge16 Sc8 V12"
_cell_length_a       6.62473
_cell_length_b       12.7671
_cell_length_c       6.77555
_cell_angle_alpha    90
_cell_angle_beta     90
_cell_angle_gamma    90

_space_group_name_H-M_alt    "P 1"
_space_group_IT_number       1

loop_
  _space_group_symop_operation_xyz
  'x, y, z'

loop_
  _atom_site_type_symbol
  _atom_site_label
  _atom_site_symmetry_multiplicity
  _atom_site_fract_x
  _atom_site_fract_y
  _atom_site_fract_z
  _atom_site_occupancy
  Ge  Ge1       1.0  0.32200  0.04270  0.04180  1.0000
  Ge  Ge2       1.0  0.32200  0.45700  0.04180  1.0000
  Ge  Ge3       1.0  0.96400  0.25000  0.12300  1.0000
  Ge  Ge4       1.0  0.31000  0.75000  0.14500  1.0000
  Ge  Ge5       1.0  0.81000  0.75000  0.35500  1.0000
  Ge  Ge6       1.0  0.46400  0.25000  0.37700  1.0000
  Ge  Ge7       1.0  0.82200  0.04270  0.45800  1.0000
  Ge  Ge8       1.0  0.82200  0.45700  0.45800  1.0000
  Ge  Ge9       1.0  0.17800  0.54300  0.54200  1.0000
  Ge  Ge10      1.0  0.17800  0.95700  0.54200  1.0000
  Ge  Ge11      1.0  0.53600  0.75000  0.62300  1.0000
  Ge  Ge12      1.0  0.19000  0.25000  0.64500  1.0000
  Ge  Ge13      1.0  0.69000  0.25000  0.85500  1.0000
  Ge  Ge14      1.0  0.03610  0.75000  0.87700  1.0000
  Ge  Ge15      1.0  0.67800  0.54300  0.95800  1.0000
  Ge  Ge16      1.0  0.67800  0.95700  0.95800  1.0000
  Sc  Sc1       1.0  0.00885  0.59300  0.17500  1.0000
  Sc  Sc2       1.0  0.00885  0.90700  0.17500  1.0000
  Sc  Sc3       1.0  0.50900  0.59300  0.32500  1.0000
  Sc  Sc4       1.0  0.50900  0.90700  0.32500  1.0000
  Sc  Sc5       1.0  0.49100  0.09310  0.67500  1.0000
  Sc  Sc6       1.0  0.49100  0.40700  0.67500  1.0000
  Sc  Sc7       1.0  0.99100  0.09310  0.82500  1.0000
  Sc  Sc8       1.0  0.99100  0.40700  0.82500  1.0000
  V   V1        1.0  0.33600  0.25000  0.01470  1.0000
  V   V2        1.0  0.65900  0.12800  0.16600  1.0000
  V   V3        1.0  0.65900  0.37200  0.16600  1.0000
  V   V4        1.0  0.15900  0.12800  0.33400  1.0000
  V   V5        1.0  0.15900  0.37200  0.33400  1.0000
  V   V6        1.0  0.83600  0.25000  0.48500  1.0000
  V   V7        1.0  0.16400  0.75000  0.51500  1.0000
  V   V8        1.0  0.84100  0.62800  0.66600  1.0000
  V   V9        1.0  0.84100  0.87200  0.66600  1.0000
  V   V10       1.0  0.34100  0.62800  0.83400  1.0000
  V   V11       1.0  0.34100  0.87200  0.83400  1.0000
  V   V12       1.0  0.66400  0.75000  0.98500  1.0000
