data_image0
_chemical_formula_structural       Nb5Ni4P4
_chemical_formula_sum              "Nb5 Ni4 P4"
_cell_length_a       3.53183
_cell_length_b       7.26882
_cell_length_c       7.26882
_cell_angle_alpha    93.3837
_cell_angle_beta     104.06
_cell_angle_gamma    75.9396

_space_group_name_H-M_alt    "P 1"
_space_group_IT_number       1

loop_
  _space_group_symop_operation_xyz
  'x, y, z'

loop_
  _atom_site_type_symbol
  _atom_site_label
  _atom_site_symmetry_multiplicity
  _atom_site_fract_x
  _atom_site_fract_y
  _atom_site_fract_z
  _atom_site_occupancy
  Nb  Nb1       1.0  0.50000  0.00000  0.00000  1.0000
  Nb  Nb2       1.0  0.19500  0.67500  0.06490  1.0000
  Nb  Nb3       1.0  0.13000  0.06490  0.32500  1.0000
  Nb  Nb4       1.0  0.87000  0.93500  0.67500  1.0000
  Nb  Nb5       1.0  0.80500  0.32500  0.93500  1.0000
  Ni  Ni1       1.0  0.91500  0.47600  0.30600  1.0000
  Ni  Ni2       1.0  0.39100  0.69400  0.47600  1.0000
  Ni  Ni3       1.0  0.60900  0.30600  0.52400  1.0000
  Ni  Ni4       1.0  0.08520  0.52400  0.69400  1.0000
  P   P1        1.0  0.44300  0.31600  0.20300  1.0000
  P   P2        1.0  0.76000  0.79700  0.31600  1.0000
  P   P3        1.0  0.24000  0.20300  0.68400  1.0000
  P   P4        1.0  0.55700  0.68400  0.79700  1.0000
