data_image0
_chemical_formula_structural       As4Ca4H4O20Zn4
_chemical_formula_sum              "As4 Ca4 H4 O20 Zn4"
_cell_length_a       7.45706
_cell_length_b       9.03208
_cell_length_c       5.92156
_cell_angle_alpha    90
_cell_angle_beta     90
_cell_angle_gamma    90

_space_group_name_H-M_alt    "P 1"
_space_group_IT_number       1

loop_
  _space_group_symop_operation_xyz
  'x, y, z'

loop_
  _atom_site_type_symbol
  _atom_site_label
  _atom_site_symmetry_multiplicity
  _atom_site_fract_x
  _atom_site_fract_y
  _atom_site_fract_z
  _atom_site_occupancy
  As  As1       1.0  0.62500  0.82400  0.01570  1.0000
  As  As2       1.0  0.37500  0.32400  0.48400  1.0000
  As  As3       1.0  0.87500  0.17600  0.51600  1.0000
  As  As4       1.0  0.12500  0.67600  0.98400  1.0000
  Ca  Ca1       1.0  0.13100  0.32700  0.02440  1.0000
  Ca  Ca2       1.0  0.86900  0.82700  0.47600  1.0000
  Ca  Ca3       1.0  0.36900  0.67300  0.52400  1.0000
  Ca  Ca4       1.0  0.63100  0.17300  0.97600  1.0000
  H   H1        1.0  0.98700  0.01920  0.01730  1.0000
  H   H2        1.0  0.01270  0.51900  0.48300  1.0000
  H   H3        1.0  0.51300  0.98100  0.51700  1.0000
  H   H4        1.0  0.48700  0.48100  0.98300  1.0000
  O   O1        1.0  0.10300  0.07390  0.00519  1.0000
  O   O2        1.0  0.94700  0.55400  0.01280  1.0000
  O   O3        1.0  0.79700  0.93900  0.09250  1.0000
  O   O4        1.0  0.15100  0.76800  0.23700  1.0000
  O   O5        1.0  0.60400  0.70900  0.24600  1.0000
  O   O6        1.0  0.39600  0.20900  0.25400  1.0000
  O   O7        1.0  0.84900  0.26800  0.26300  1.0000
  O   O8        1.0  0.20300  0.43900  0.40800  1.0000
  O   O9        1.0  0.05300  0.05420  0.48700  1.0000
  O   O10       1.0  0.89700  0.57400  0.49500  1.0000
  O   O11       1.0  0.39700  0.92600  0.50500  1.0000
  O   O12       1.0  0.55300  0.44600  0.51300  1.0000
  O   O13       1.0  0.70300  0.06060  0.59200  1.0000
  O   O14       1.0  0.34900  0.23200  0.73700  1.0000
  O   O15       1.0  0.89600  0.29100  0.74600  1.0000
  O   O16       1.0  0.10400  0.79100  0.75400  1.0000
  O   O17       1.0  0.65100  0.73200  0.76300  1.0000
  O   O18       1.0  0.29700  0.56100  0.90800  1.0000
  O   O19       1.0  0.44700  0.94600  0.98700  1.0000
  O   O20       1.0  0.60300  0.42600  0.99500  1.0000
  Zn  Zn1       1.0  0.26100  0.99400  0.24200  1.0000
  Zn  Zn2       1.0  0.73900  0.49400  0.25800  1.0000
  Zn  Zn3       1.0  0.23900  0.00584  0.74200  1.0000
  Zn  Zn4       1.0  0.76100  0.50600  0.75800  1.0000
