data_image0
_chemical_formula_structural       Ge20Ir16
_chemical_formula_sum              "Ge20 Ir16"
_cell_length_a       5.6787
_cell_length_b       5.6787
_cell_length_c       18.5505
_cell_angle_alpha    90
_cell_angle_beta     90
_cell_angle_gamma    90

_space_group_name_H-M_alt    "P 1"
_space_group_IT_number       1

loop_
  _space_group_symop_operation_xyz
  'x, y, z'

loop_
  _atom_site_type_symbol
  _atom_site_label
  _atom_site_symmetry_multiplicity
  _atom_site_fract_x
  _atom_site_fract_y
  _atom_site_fract_z
  _atom_site_occupancy
  Ge  Ge1       1.0  0.34200  0.19600  0.05550  1.0000
  Ge  Ge2       1.0  0.65800  0.80400  0.05550  1.0000
  Ge  Ge3       1.0  0.85600  0.22600  0.14500  1.0000
  Ge  Ge4       1.0  0.14400  0.77400  0.14500  1.0000
  Ge  Ge5       1.0  0.32300  0.32300  0.25000  1.0000
  Ge  Ge6       1.0  0.67700  0.67700  0.25000  1.0000
  Ge  Ge7       1.0  0.77400  0.14400  0.35500  1.0000
  Ge  Ge8       1.0  0.22600  0.85600  0.35500  1.0000
  Ge  Ge9       1.0  0.19600  0.34200  0.44400  1.0000
  Ge  Ge10      1.0  0.80400  0.65800  0.44400  1.0000
  Ge  Ge11      1.0  0.65800  0.19600  0.55600  1.0000
  Ge  Ge12      1.0  0.34200  0.80400  0.55600  1.0000
  Ge  Ge13      1.0  0.14400  0.22600  0.64500  1.0000
  Ge  Ge14      1.0  0.85600  0.77400  0.64500  1.0000
  Ge  Ge15      1.0  0.67700  0.32300  0.75000  1.0000
  Ge  Ge16      1.0  0.32300  0.67700  0.75000  1.0000
  Ge  Ge17      1.0  0.22600  0.14400  0.85500  1.0000
  Ge  Ge18      1.0  0.77400  0.85600  0.85500  1.0000
  Ge  Ge19      1.0  0.80400  0.34200  0.94400  1.0000
  Ge  Ge20      1.0  0.19600  0.65800  0.94400  1.0000
  Ir  Ir1       1.0  0.00000  0.00000  0.00000  1.0000
  Ir  Ir2       1.0  0.00000  0.50000  0.05550  1.0000
  Ir  Ir3       1.0  0.50000  0.50000  0.13600  1.0000
  Ir  Ir4       1.0  0.50000  0.00000  0.17700  1.0000
  Ir  Ir5       1.0  0.00000  0.00000  0.25000  1.0000
  Ir  Ir6       1.0  0.00000  0.50000  0.32300  1.0000
  Ir  Ir7       1.0  0.50000  0.50000  0.36400  1.0000
  Ir  Ir8       1.0  0.50000  0.00000  0.44500  1.0000
  Ir  Ir9       1.0  0.00000  0.00000  0.50000  1.0000
  Ir  Ir10      1.0  0.00000  0.50000  0.55500  1.0000
  Ir  Ir11      1.0  0.50000  0.50000  0.63600  1.0000
  Ir  Ir12      1.0  0.50000  0.00000  0.67700  1.0000
  Ir  Ir13      1.0  0.00000  0.00000  0.75000  1.0000
  Ir  Ir14      1.0  0.00000  0.50000  0.82300  1.0000
  Ir  Ir15      1.0  0.50000  0.50000  0.86400  1.0000
  Ir  Ir16      1.0  0.50000  0.00000  0.94500  1.0000
