data_image0
_chemical_formula_structural       Ba4Be4La8O20
_chemical_formula_sum              "Ba4 Be4 La8 O20"
_cell_length_a       7.49588
_cell_length_b       6.78181
_cell_length_c       9.87701
_cell_angle_alpha    90
_cell_angle_beta     90.6397
_cell_angle_gamma    90

_space_group_name_H-M_alt    "P 1"
_space_group_IT_number       1

loop_
  _space_group_symop_operation_xyz
  'x, y, z'

loop_
  _atom_site_type_symbol
  _atom_site_label
  _atom_site_symmetry_multiplicity
  _atom_site_fract_x
  _atom_site_fract_y
  _atom_site_fract_z
  _atom_site_occupancy
  Ba  Ba1       1.0  0.98000  0.91800  0.17300  1.0000
  Ba  Ba2       1.0  0.01970  0.41800  0.32700  1.0000
  Ba  Ba3       1.0  0.98000  0.58200  0.67300  1.0000
  Ba  Ba4       1.0  0.01970  0.08240  0.82700  1.0000
  Be  Be1       1.0  0.25900  0.19200  0.09710  1.0000
  Be  Be2       1.0  0.74100  0.69200  0.40300  1.0000
  Be  Be3       1.0  0.25900  0.30800  0.59700  1.0000
  Be  Be4       1.0  0.74100  0.80800  0.90300  1.0000
  La  La1       1.0  0.74600  0.40800  0.02270  1.0000
  La  La2       1.0  0.52300  0.91700  0.17600  1.0000
  La  La3       1.0  0.47700  0.41700  0.32400  1.0000
  La  La4       1.0  0.25400  0.90800  0.47700  1.0000
  La  La5       1.0  0.74600  0.09200  0.52300  1.0000
  La  La6       1.0  0.52300  0.58300  0.67600  1.0000
  La  La7       1.0  0.47700  0.08270  0.82400  1.0000
  La  La8       1.0  0.25400  0.59200  0.97700  1.0000
  O   O1        1.0  0.27600  0.98200  0.01060  1.0000
  O   O2        1.0  0.06930  0.30700  0.06270  1.0000
  O   O3        1.0  0.44000  0.31900  0.06440  1.0000
  O   O4        1.0  0.28200  0.66600  0.21700  1.0000
  O   O5        1.0  0.72400  0.63200  0.23300  1.0000
  O   O6        1.0  0.27600  0.13200  0.26700  1.0000
  O   O7        1.0  0.71800  0.16600  0.28300  1.0000
  O   O8        1.0  0.56000  0.81900  0.43600  1.0000
  O   O9        1.0  0.93100  0.80700  0.43700  1.0000
  O   O10       1.0  0.72400  0.48200  0.48900  1.0000
  O   O11       1.0  0.27600  0.51800  0.51100  1.0000
  O   O12       1.0  0.06930  0.19300  0.56300  1.0000
  O   O13       1.0  0.44000  0.18100  0.56400  1.0000
  O   O14       1.0  0.28200  0.83400  0.71700  1.0000
  O   O15       1.0  0.72400  0.86800  0.73300  1.0000
  O   O16       1.0  0.27600  0.36800  0.76700  1.0000
  O   O17       1.0  0.71800  0.33400  0.78300  1.0000
  O   O18       1.0  0.56000  0.68100  0.93600  1.0000
  O   O19       1.0  0.93100  0.69300  0.93700  1.0000
  O   O20       1.0  0.72400  0.01760  0.98900  1.0000
