data_image0
_chemical_formula_structural       O11Ti4
_chemical_formula_sum              "O11 Ti4"
_cell_length_a       10.5779
_cell_length_b       4.82104
_cell_length_c       3.7081
_cell_angle_alpha    107.384
_cell_angle_beta     105.992
_cell_angle_gamma    110.004

_space_group_name_H-M_alt    "P 1"
_space_group_IT_number       1

loop_
  _space_group_symop_operation_xyz
  'x, y, z'

loop_
  _atom_site_type_symbol
  _atom_site_label
  _atom_site_symmetry_multiplicity
  _atom_site_fract_x
  _atom_site_fract_y
  _atom_site_fract_z
  _atom_site_occupancy
  O   O1        1.0  0.07880  0.36600  0.03550  1.0000
  O   O2        1.0  0.40100  0.67300  0.04380  1.0000
  O   O3        1.0  0.30700  0.12200  0.22600  1.0000
  O   O4        1.0  0.80600  0.97200  0.32800  1.0000
  O   O5        1.0  0.57300  0.37000  0.36700  1.0000
  O   O6        1.0  0.05180  0.36800  0.39800  1.0000
  O   O7        1.0  0.15300  0.94200  0.53000  1.0000
  O   O8        1.0  0.40400  0.78600  0.72400  1.0000
  O   O9        1.0  0.55900  0.44800  0.75500  1.0000
  O   O10       1.0  0.67900  0.06460  0.76200  1.0000
  O   O11       1.0  0.91100  0.69300  0.79200  1.0000
  Ti  Ti1       1.0  0.61300  0.95400  0.16300  1.0000
  Ti  Ti2       1.0  0.37100  0.19400  0.80400  1.0000
  Ti  Ti3       1.0  0.86900  0.03930  0.90500  1.0000
  Ti  Ti4       1.0  0.10400  0.77000  0.91800  1.0000
