data_image0
_chemical_formula_structural       Re8Sc12Si16
_chemical_formula_sum              "Re8 Sc12 Si16"
_cell_length_a       5.35435
_cell_length_b       10.1737
_cell_length_c       11.646
_cell_angle_alpha    95.2266
_cell_angle_beta     103.29
_cell_angle_gamma    105.257

_space_group_name_H-M_alt    "P 1"
_space_group_IT_number       1

loop_
  _space_group_symop_operation_xyz
  'x, y, z'

loop_
  _atom_site_type_symbol
  _atom_site_label
  _atom_site_symmetry_multiplicity
  _atom_site_fract_x
  _atom_site_fract_y
  _atom_site_fract_z
  _atom_site_occupancy
  Re  Re1       1.0  0.98800  0.12800  0.07720  1.0000
  Re  Re2       1.0  0.57200  0.74500  0.21700  1.0000
  Re  Re3       1.0  0.10900  0.75500  0.28300  1.0000
  Re  Re4       1.0  0.28300  0.37200  0.42300  1.0000
  Re  Re5       1.0  0.71700  0.62800  0.57700  1.0000
  Re  Re6       1.0  0.89100  0.24500  0.71700  1.0000
  Re  Re7       1.0  0.42800  0.25500  0.78300  1.0000
  Re  Re8       1.0  0.01150  0.87200  0.92300  1.0000
  Sc  Sc1       1.0  0.52700  0.28000  0.04630  1.0000
  Sc  Sc2       1.0  0.17500  0.46700  0.13900  1.0000
  Sc  Sc3       1.0  0.45900  0.99400  0.15700  1.0000
  Sc  Sc4       1.0  0.80800  0.50600  0.34300  1.0000
  Sc  Sc5       1.0  0.06840  0.03250  0.36100  1.0000
  Sc  Sc6       1.0  0.70100  0.22000  0.45400  1.0000
  Sc  Sc7       1.0  0.29900  0.78000  0.54600  1.0000
  Sc  Sc8       1.0  0.93200  0.96700  0.63900  1.0000
  Sc  Sc9       1.0  0.19200  0.49400  0.65700  1.0000
  Sc  Sc10      1.0  0.54100  0.00574  0.84300  1.0000
  Sc  Sc11      1.0  0.82500  0.53300  0.86100  1.0000
  Sc  Sc12      1.0  0.47300  0.72000  0.95400  1.0000
  Si  Si1       1.0  0.12000  0.72300  0.07180  1.0000
  Si  Si2       1.0  0.71700  0.56500  0.11100  1.0000
  Si  Si3       1.0  0.89400  0.89400  0.12500  1.0000
  Si  Si4       1.0  0.36300  0.25000  0.25000  1.0000
  Si  Si5       1.0  0.88800  0.25000  0.25000  1.0000
  Si  Si6       1.0  0.37600  0.60600  0.37500  1.0000
  Si  Si7       1.0  0.54100  0.93500  0.38900  1.0000
  Si  Si8       1.0  0.82600  0.77700  0.42800  1.0000
  Si  Si9       1.0  0.17400  0.22300  0.57200  1.0000
  Si  Si10      1.0  0.45900  0.06470  0.61100  1.0000
  Si  Si11      1.0  0.62400  0.39400  0.62500  1.0000
  Si  Si12      1.0  0.11200  0.75000  0.75000  1.0000
  Si  Si13      1.0  0.63700  0.75000  0.75000  1.0000
  Si  Si14      1.0  0.10600  0.10600  0.87500  1.0000
  Si  Si15      1.0  0.28300  0.43500  0.88900  1.0000
  Si  Si16      1.0  0.88000  0.27700  0.92800  1.0000
