data_image0
_chemical_formula_structural       Cs20Ge4P12
_chemical_formula_sum              "Cs20 Ge4 P12"
_cell_length_a       14.4653
_cell_length_b       6.01199
_cell_length_c       15.9818
_cell_angle_alpha    90
_cell_angle_beta     90
_cell_angle_gamma    90

_space_group_name_H-M_alt    "P 1"
_space_group_IT_number       1

loop_
  _space_group_symop_operation_xyz
  'x, y, z'

loop_
  _atom_site_type_symbol
  _atom_site_label
  _atom_site_symmetry_multiplicity
  _atom_site_fract_x
  _atom_site_fract_y
  _atom_site_fract_z
  _atom_site_occupancy
  Cs  Cs1       1.0  0.64900  0.75000  0.04720  1.0000
  Cs  Cs2       1.0  0.06090  0.25000  0.05100  1.0000
  Cs  Cs3       1.0  0.54300  0.25000  0.14500  1.0000
  Cs  Cs4       1.0  0.88600  0.75000  0.18700  1.0000
  Cs  Cs5       1.0  0.27000  0.25000  0.20900  1.0000
  Cs  Cs6       1.0  0.77000  0.25000  0.29100  1.0000
  Cs  Cs7       1.0  0.38600  0.75000  0.31300  1.0000
  Cs  Cs8       1.0  0.04280  0.25000  0.35500  1.0000
  Cs  Cs9       1.0  0.56100  0.25000  0.44900  1.0000
  Cs  Cs10      1.0  0.14900  0.75000  0.45300  1.0000
  Cs  Cs11      1.0  0.85100  0.25000  0.54700  1.0000
  Cs  Cs12      1.0  0.43900  0.75000  0.55100  1.0000
  Cs  Cs13      1.0  0.95700  0.75000  0.64500  1.0000
  Cs  Cs14      1.0  0.61400  0.25000  0.68700  1.0000
  Cs  Cs15      1.0  0.23000  0.75000  0.70900  1.0000
  Cs  Cs16      1.0  0.73000  0.75000  0.79100  1.0000
  Cs  Cs17      1.0  0.11400  0.25000  0.81300  1.0000
  Cs  Cs18      1.0  0.45700  0.75000  0.85500  1.0000
  Cs  Cs19      1.0  0.93900  0.75000  0.94900  1.0000
  Cs  Cs20      1.0  0.35100  0.25000  0.95300  1.0000
  Ge  Ge1       1.0  0.23900  0.75000  0.06430  1.0000
  Ge  Ge2       1.0  0.73900  0.75000  0.43600  1.0000
  Ge  Ge3       1.0  0.26100  0.25000  0.56400  1.0000
  Ge  Ge4       1.0  0.76100  0.25000  0.93600  1.0000
  P   P1        1.0  0.80600  0.25000  0.07290  1.0000
  P   P2        1.0  0.39600  0.75000  0.08830  1.0000
  P   P3        1.0  0.13400  0.75000  0.17100  1.0000
  P   P4        1.0  0.63400  0.75000  0.32900  1.0000
  P   P5        1.0  0.89600  0.75000  0.41200  1.0000
  P   P6        1.0  0.30600  0.25000  0.42700  1.0000
  P   P7        1.0  0.69400  0.75000  0.57300  1.0000
  P   P8        1.0  0.10400  0.25000  0.58800  1.0000
  P   P9        1.0  0.36600  0.25000  0.67100  1.0000
  P   P10       1.0  0.86600  0.25000  0.82900  1.0000
  P   P11       1.0  0.60400  0.25000  0.91200  1.0000
  P   P12       1.0  0.19400  0.75000  0.92700  1.0000
