data_image0
_chemical_formula_structural       Rb4Sb12Se20
_chemical_formula_sum              "Rb4 Sb12 Se20"
_cell_length_a       8.8041
_cell_length_b       13.2336
_cell_length_c       9.79277
_cell_angle_alpha    90
_cell_angle_beta     96.6573
_cell_angle_gamma    90

_space_group_name_H-M_alt    "P 1"
_space_group_IT_number       1

loop_
  _space_group_symop_operation_xyz
  'x, y, z'

loop_
  _atom_site_type_symbol
  _atom_site_label
  _atom_site_symmetry_multiplicity
  _atom_site_fract_x
  _atom_site_fract_y
  _atom_site_fract_z
  _atom_site_occupancy
  Rb  Rb1       1.0  0.87600  0.25100  0.19900  1.0000
  Rb  Rb2       1.0  0.62400  0.75100  0.30100  1.0000
  Rb  Rb3       1.0  0.37600  0.24900  0.69900  1.0000
  Rb  Rb4       1.0  0.12400  0.74900  0.80100  1.0000
  Sb  Sb1       1.0  0.17900  0.43900  0.04190  1.0000
  Sb  Sb2       1.0  0.38200  0.09910  0.12900  1.0000
  Sb  Sb3       1.0  0.99400  0.95900  0.17800  1.0000
  Sb  Sb4       1.0  0.50600  0.45900  0.32200  1.0000
  Sb  Sb5       1.0  0.11800  0.59900  0.37100  1.0000
  Sb  Sb6       1.0  0.32100  0.93900  0.45800  1.0000
  Sb  Sb7       1.0  0.67900  0.06140  0.54200  1.0000
  Sb  Sb8       1.0  0.88200  0.40100  0.62900  1.0000
  Sb  Sb9       1.0  0.49400  0.54100  0.67800  1.0000
  Sb  Sb10      1.0  0.00599  0.04070  0.82200  1.0000
  Sb  Sb11      1.0  0.61800  0.90100  0.87100  1.0000
  Sb  Sb12      1.0  0.82100  0.56100  0.95800  1.0000
  Se  Se1       1.0  0.85800  0.81000  0.03530  1.0000
  Se  Se2       1.0  0.45400  0.35500  0.09310  1.0000
  Se  Se3       1.0  0.27900  0.91200  0.09930  1.0000
  Se  Se4       1.0  0.25100  0.62300  0.14400  1.0000
  Se  Se5       1.0  0.81300  0.51800  0.21400  1.0000
  Se  Se6       1.0  0.68700  0.01810  0.28600  1.0000
  Se  Se7       1.0  0.24900  0.12300  0.35600  1.0000
  Se  Se8       1.0  0.22100  0.41200  0.40100  1.0000
  Se  Se9       1.0  0.04610  0.85500  0.40700  1.0000
  Se  Se10      1.0  0.64200  0.31000  0.46500  1.0000
  Se  Se11      1.0  0.35800  0.69000  0.53500  1.0000
  Se  Se12      1.0  0.95400  0.14500  0.59300  1.0000
  Se  Se13      1.0  0.77900  0.58800  0.59900  1.0000
  Se  Se14      1.0  0.75100  0.87700  0.64400  1.0000
  Se  Se15      1.0  0.31300  0.98200  0.71400  1.0000
  Se  Se16      1.0  0.18700  0.48200  0.78600  1.0000
  Se  Se17      1.0  0.74900  0.37700  0.85600  1.0000
  Se  Se18      1.0  0.72100  0.08770  0.90100  1.0000
  Se  Se19      1.0  0.54600  0.64500  0.90700  1.0000
  Se  Se20      1.0  0.14200  0.19000  0.96500  1.0000
