data_image0
_chemical_formula_structural       Au4Cl28Se4
_chemical_formula_sum              "Au4 Cl28 Se4"
_cell_length_a       8.56369
_cell_length_b       10.1522
_cell_length_c       12.3212
_cell_angle_alpha    90
_cell_angle_beta     108.228
_cell_angle_gamma    90

_space_group_name_H-M_alt    "P 1"
_space_group_IT_number       1

loop_
  _space_group_symop_operation_xyz
  'x, y, z'

loop_
  _atom_site_type_symbol
  _atom_site_label
  _atom_site_symmetry_multiplicity
  _atom_site_fract_x
  _atom_site_fract_y
  _atom_site_fract_z
  _atom_site_occupancy
  Au  Au1       1.0  0.22100  0.91700  0.04840  1.0000
  Au  Au2       1.0  0.77900  0.41700  0.45200  1.0000
  Au  Au3       1.0  0.22100  0.58300  0.54800  1.0000
  Au  Au4       1.0  0.77900  0.08270  0.95200  1.0000
  Cl  Cl1       1.0  0.52400  0.69700  0.03540  1.0000
  Cl  Cl2       1.0  0.94000  0.25100  0.05780  1.0000
  Cl  Cl3       1.0  0.82900  0.95700  0.11900  1.0000
  Cl  Cl4       1.0  0.28600  0.44200  0.13100  1.0000
  Cl  Cl5       1.0  0.89800  0.59300  0.15100  1.0000
  Cl  Cl6       1.0  0.38100  0.08570  0.15500  1.0000
  Cl  Cl7       1.0  0.27500  0.79300  0.21200  1.0000
  Cl  Cl8       1.0  0.72500  0.29300  0.28800  1.0000
  Cl  Cl9       1.0  0.61900  0.58600  0.34500  1.0000
  Cl  Cl10      1.0  0.10200  0.09290  0.34900  1.0000
  Cl  Cl11      1.0  0.71400  0.94200  0.36900  1.0000
  Cl  Cl12      1.0  0.17100  0.45700  0.38100  1.0000
  Cl  Cl13      1.0  0.06030  0.75100  0.44200  1.0000
  Cl  Cl14      1.0  0.47600  0.19700  0.46500  1.0000
  Cl  Cl15      1.0  0.52400  0.80300  0.53500  1.0000
  Cl  Cl16      1.0  0.94000  0.24900  0.55800  1.0000
  Cl  Cl17      1.0  0.82900  0.54300  0.61900  1.0000
  Cl  Cl18      1.0  0.28600  0.05790  0.63100  1.0000
  Cl  Cl19      1.0  0.89800  0.90700  0.65100  1.0000
  Cl  Cl20      1.0  0.38100  0.41400  0.65500  1.0000
  Cl  Cl21      1.0  0.27500  0.70700  0.71200  1.0000
  Cl  Cl22      1.0  0.72500  0.20700  0.78800  1.0000
  Cl  Cl23      1.0  0.61900  0.91400  0.84500  1.0000
  Cl  Cl24      1.0  0.10200  0.40700  0.84900  1.0000
  Cl  Cl25      1.0  0.71400  0.55800  0.86900  1.0000
  Cl  Cl26      1.0  0.17100  0.04320  0.88100  1.0000
  Cl  Cl27      1.0  0.06030  0.74900  0.94200  1.0000
  Cl  Cl28      1.0  0.47600  0.30300  0.96500  1.0000
  Se  Se1       1.0  0.76200  0.71000  0.00229  1.0000
  Se  Se2       1.0  0.23800  0.21000  0.49800  1.0000
  Se  Se3       1.0  0.76200  0.79000  0.50200  1.0000
  Se  Se4       1.0  0.23800  0.29000  0.99800  1.0000
