data_image0
_chemical_formula_structural       Nb9O25P
_chemical_formula_sum              "Nb9 O25 P1"
_cell_length_a       3.84509
_cell_length_b       11.279
_cell_length_c       11.279
_cell_angle_alpha    91.6649
_cell_angle_beta     80.1858
_cell_angle_gamma    99.8142

_space_group_name_H-M_alt    "P 1"
_space_group_IT_number       1

loop_
  _space_group_symop_operation_xyz
  'x, y, z'

loop_
  _atom_site_type_symbol
  _atom_site_label
  _atom_site_symmetry_multiplicity
  _atom_site_fract_x
  _atom_site_fract_y
  _atom_site_fract_z
  _atom_site_occupancy
  Nb  Nb1       1.0  0.00000  0.00000  0.00000  1.0000
  Nb  Nb2       1.0  0.78400  0.67200  0.10900  1.0000
  Nb  Nb3       1.0  0.10500  0.44300  0.21700  1.0000
  Nb  Nb4       1.0  0.88800  0.10900  0.32800  1.0000
  Nb  Nb5       1.0  0.67800  0.78300  0.44300  1.0000
  Nb  Nb6       1.0  0.33800  0.21700  0.55700  1.0000
  Nb  Nb7       1.0  0.10700  0.89100  0.67200  1.0000
  Nb  Nb8       1.0  0.88000  0.55700  0.78300  1.0000
  Nb  Nb9       1.0  0.22100  0.32800  0.89100  1.0000
  O   O1        1.0  0.50000  0.00000  0.00000  1.0000
  O   O2        1.0  0.19100  0.39800  0.04560  1.0000
  O   O3        1.0  0.88400  0.83000  0.06020  1.0000
  O   O4        1.0  0.25200  0.63500  0.14000  1.0000
  O   O5        1.0  0.94600  0.06020  0.17000  1.0000
  O   O6        1.0  0.64900  0.49000  0.20200  1.0000
  O   O7        1.0  0.00074  0.28900  0.26900  1.0000
  O   O8        1.0  0.73000  0.73100  0.28900  1.0000
  O   O9        1.0  0.38300  0.14000  0.36500  1.0000
  O   O10       1.0  0.09460  0.51800  0.38500  1.0000
  O   O11       1.0  0.76300  0.95400  0.39800  1.0000
  O   O12       1.0  0.42300  0.38500  0.48200  1.0000
  O   O13       1.0  0.14900  0.79800  0.49000  1.0000
  O   O14       1.0  0.84100  0.20200  0.51000  1.0000
  O   O15       1.0  0.52000  0.61500  0.51800  1.0000
  O   O16       1.0  0.20700  0.04560  0.60200  1.0000
  O   O17       1.0  0.96200  0.48200  0.61500  1.0000
  O   O18       1.0  0.60700  0.86000  0.63500  1.0000
  O   O19       1.0  0.28900  0.26900  0.71100  1.0000
  O   O20       1.0  0.98100  0.71100  0.73100  1.0000
  O   O21       1.0  0.36100  0.51000  0.79800  1.0000
  O   O22       1.0  0.05570  0.94000  0.83000  1.0000
  O   O23       1.0  0.75700  0.36500  0.86000  1.0000
  O   O24       1.0  0.11400  0.17000  0.94000  1.0000
  O   O25       1.0  0.83900  0.60200  0.95400  1.0000
  P   P1        1.0  0.25000  0.50000  0.50000  1.0000
