data_image0
_chemical_formula_structural       O24W4Y8
_chemical_formula_sum              "O24 W4 Y8"
_cell_length_a       5.22126
_cell_length_b       9.04716
_cell_length_c       9.88862
_cell_angle_alpha    90
_cell_angle_beta     90
_cell_angle_gamma    90

_space_group_name_H-M_alt    "P 1"
_space_group_IT_number       1

loop_
  _space_group_symop_operation_xyz
  'x, y, z'

loop_
  _atom_site_type_symbol
  _atom_site_label
  _atom_site_symmetry_multiplicity
  _atom_site_fract_x
  _atom_site_fract_y
  _atom_site_fract_z
  _atom_site_occupancy
  O   O1        1.0  0.25000  0.90900  0.00542  1.0000
  O   O2        1.0  0.92000  0.15600  0.02840  1.0000
  O   O3        1.0  0.76800  0.88600  0.06740  1.0000
  O   O4        1.0  0.31900  0.13900  0.18100  1.0000
  O   O5        1.0  0.17800  0.54700  0.20300  1.0000
  O   O6        1.0  0.80400  0.36000  0.23500  1.0000
  O   O7        1.0  0.19600  0.86000  0.26500  1.0000
  O   O8        1.0  0.82200  0.04680  0.29700  1.0000
  O   O9        1.0  0.68100  0.63900  0.31900  1.0000
  O   O10       1.0  0.23200  0.38600  0.43300  1.0000
  O   O11       1.0  0.07960  0.65600  0.47200  1.0000
  O   O12       1.0  0.75000  0.40900  0.49500  1.0000
  O   O13       1.0  0.25000  0.09050  0.50500  1.0000
  O   O14       1.0  0.58000  0.84400  0.52800  1.0000
  O   O15       1.0  0.73200  0.11400  0.56700  1.0000
  O   O16       1.0  0.18100  0.86100  0.68100  1.0000
  O   O17       1.0  0.32200  0.45300  0.70300  1.0000
  O   O18       1.0  0.69600  0.64000  0.73500  1.0000
  O   O19       1.0  0.30400  0.14000  0.76500  1.0000
  O   O20       1.0  0.67800  0.95300  0.79700  1.0000
  O   O21       1.0  0.81900  0.36100  0.81900  1.0000
  O   O22       1.0  0.26800  0.61400  0.93300  1.0000
  O   O23       1.0  0.42000  0.34400  0.97200  1.0000
  O   O24       1.0  0.75000  0.59100  0.99500  1.0000
  W   W1        1.0  0.04020  0.00480  0.15300  1.0000
  W   W2        1.0  0.96000  0.50500  0.34700  1.0000
  W   W3        1.0  0.46000  0.99500  0.65300  1.0000
  W   W4        1.0  0.54000  0.49500  0.84700  1.0000
  Y   Y1        1.0  0.02050  0.39700  0.03380  1.0000
  Y   Y2        1.0  0.46300  0.72000  0.12800  1.0000
  Y   Y3        1.0  0.53700  0.22000  0.37200  1.0000
  Y   Y4        1.0  0.97900  0.89700  0.46600  1.0000
  Y   Y5        1.0  0.47900  0.60300  0.53400  1.0000
  Y   Y6        1.0  0.03670  0.28000  0.62800  1.0000
  Y   Y7        1.0  0.96300  0.78000  0.87200  1.0000
  Y   Y8        1.0  0.52100  0.10300  0.96600  1.0000
