data_image0
_chemical_formula_structural       K16O16Si4
_chemical_formula_sum              "K16 O16 Si4"
_cell_length_a       10.3328
_cell_length_b       6.38807
_cell_length_c       10.2916
_cell_angle_alpha    90
_cell_angle_beta     112.577
_cell_angle_gamma    90

_space_group_name_H-M_alt    "P 1"
_space_group_IT_number       1

loop_
  _space_group_symop_operation_xyz
  'x, y, z'

loop_
  _atom_site_type_symbol
  _atom_site_label
  _atom_site_symmetry_multiplicity
  _atom_site_fract_x
  _atom_site_fract_y
  _atom_site_fract_z
  _atom_site_occupancy
  K   K1        1.0  0.15800  0.61300  0.08110  1.0000
  K   K2        1.0  0.63100  0.33200  0.11000  1.0000
  K   K3        1.0  0.06480  0.09260  0.20100  1.0000
  K   K4        1.0  0.57400  0.81700  0.20500  1.0000
  K   K5        1.0  0.42600  0.31700  0.29500  1.0000
  K   K6        1.0  0.93500  0.59300  0.29900  1.0000
  K   K7        1.0  0.36900  0.83200  0.39000  1.0000
  K   K8        1.0  0.84200  0.11300  0.41900  1.0000
  K   K9        1.0  0.15800  0.88700  0.58100  1.0000
  K   K10       1.0  0.63100  0.16800  0.61000  1.0000
  K   K11       1.0  0.06480  0.40700  0.70100  1.0000
  K   K12       1.0  0.57400  0.68300  0.70500  1.0000
  K   K13       1.0  0.42600  0.18300  0.79500  1.0000
  K   K14       1.0  0.93500  0.90700  0.79900  1.0000
  K   K15       1.0  0.36900  0.66800  0.89000  1.0000
  K   K16       1.0  0.84200  0.38700  0.91900  1.0000
  O   O1        1.0  0.35700  0.32200  0.01200  1.0000
  O   O2        1.0  0.91100  0.76500  0.02920  1.0000
  O   O3        1.0  0.30300  0.97300  0.13000  1.0000
  O   O4        1.0  0.78300  0.00316  0.15700  1.0000
  O   O5        1.0  0.21700  0.50300  0.34300  1.0000
  O   O6        1.0  0.69700  0.47300  0.37000  1.0000
  O   O7        1.0  0.08880  0.26500  0.47100  1.0000
  O   O8        1.0  0.64300  0.82200  0.48800  1.0000
  O   O9        1.0  0.35700  0.17800  0.51200  1.0000
  O   O10       1.0  0.91100  0.73500  0.52900  1.0000
  O   O11       1.0  0.30300  0.52700  0.63000  1.0000
  O   O12       1.0  0.78300  0.49700  0.65700  1.0000
  O   O13       1.0  0.21700  0.99700  0.84300  1.0000
  O   O14       1.0  0.69700  0.02680  0.87000  1.0000
  O   O15       1.0  0.08880  0.23500  0.97100  1.0000
  O   O16       1.0  0.64300  0.67800  0.98800  1.0000
  Si  Si1       1.0  0.75800  0.87100  0.01070  1.0000
  Si  Si2       1.0  0.24200  0.37100  0.48900  1.0000
  Si  Si3       1.0  0.75800  0.62900  0.51100  1.0000
  Si  Si4       1.0  0.24200  0.12900  0.98900  1.0000
