data_image0
_chemical_formula_structural       Cl8Hg2PdTl2
_chemical_formula_sum              "Cl8 Hg2 Pd1 Tl2"
_cell_length_a       6.67837
_cell_length_b       6.67837
_cell_length_c       9.88856
_cell_angle_alpha    106.087
_cell_angle_beta     106.087
_cell_angle_gamma    61.5111

_space_group_name_H-M_alt    "P 1"
_space_group_IT_number       1

loop_
  _space_group_symop_operation_xyz
  'x, y, z'

loop_
  _atom_site_type_symbol
  _atom_site_label
  _atom_site_symmetry_multiplicity
  _atom_site_fract_x
  _atom_site_fract_y
  _atom_site_fract_z
  _atom_site_occupancy
  Cl  Cl1       1.0  0.89700  0.37400  0.12800  1.0000
  Cl  Cl2       1.0  0.37400  0.89700  0.12800  1.0000
  Cl  Cl3       1.0  0.91800  0.91800  0.30600  1.0000
  Cl  Cl4       1.0  0.65000  0.65000  0.49600  1.0000
  Cl  Cl5       1.0  0.35000  0.35000  0.50400  1.0000
  Cl  Cl6       1.0  0.08220  0.08220  0.69400  1.0000
  Cl  Cl7       1.0  0.62600  0.10300  0.87200  1.0000
  Cl  Cl8       1.0  0.10300  0.62600  0.87200  1.0000
  Hg  Hg1       1.0  0.13400  0.13400  0.40100  1.0000
  Hg  Hg2       1.0  0.86600  0.86600  0.59900  1.0000
  Pd  Pd1       1.0  0.00000  0.00000  0.00000  1.0000
  Tl  Tl1       1.0  0.39700  0.39700  0.16200  1.0000
  Tl  Tl2       1.0  0.60300  0.60300  0.83800  1.0000
