data_image0
_chemical_formula_structural       O24Sr4V8
_chemical_formula_sum              "O24 Sr4 V8"
_cell_length_a       9.65049
_cell_length_b       3.68669
_cell_length_c       12.4478
_cell_angle_alpha    90
_cell_angle_beta     90
_cell_angle_gamma    90

_space_group_name_H-M_alt    "P 1"
_space_group_IT_number       1

loop_
  _space_group_symop_operation_xyz
  'x, y, z'

loop_
  _atom_site_type_symbol
  _atom_site_label
  _atom_site_symmetry_multiplicity
  _atom_site_fract_x
  _atom_site_fract_y
  _atom_site_fract_z
  _atom_site_occupancy
  O   O1        1.0  0.89900  0.25000  0.02130  1.0000
  O   O2        1.0  0.69600  0.75000  0.06570  1.0000
  O   O3        1.0  0.53100  0.25000  0.08880  1.0000
  O   O4        1.0  0.32300  0.75000  0.10700  1.0000
  O   O5        1.0  0.78500  0.25000  0.21600  1.0000
  O   O6        1.0  0.02740  0.75000  0.24200  1.0000
  O   O7        1.0  0.52700  0.75000  0.25800  1.0000
  O   O8        1.0  0.28500  0.25000  0.28400  1.0000
  O   O9        1.0  0.82300  0.75000  0.39300  1.0000
  O   O10       1.0  0.03130  0.25000  0.41100  1.0000
  O   O11       1.0  0.19600  0.75000  0.43400  1.0000
  O   O12       1.0  0.39900  0.25000  0.47900  1.0000
  O   O13       1.0  0.60100  0.75000  0.52100  1.0000
  O   O14       1.0  0.80400  0.25000  0.56600  1.0000
  O   O15       1.0  0.96900  0.75000  0.58900  1.0000
  O   O16       1.0  0.17700  0.25000  0.60700  1.0000
  O   O17       1.0  0.71500  0.75000  0.71600  1.0000
  O   O18       1.0  0.47300  0.25000  0.74200  1.0000
  O   O19       1.0  0.97300  0.25000  0.75800  1.0000
  O   O20       1.0  0.21500  0.75000  0.78400  1.0000
  O   O21       1.0  0.67700  0.25000  0.89300  1.0000
  O   O22       1.0  0.46900  0.75000  0.91100  1.0000
  O   O23       1.0  0.30400  0.25000  0.93400  1.0000
  O   O24       1.0  0.10100  0.75000  0.97900  1.0000
  Sr  Sr1       1.0  0.13100  0.25000  0.12100  1.0000
  Sr  Sr2       1.0  0.63100  0.25000  0.37900  1.0000
  Sr  Sr3       1.0  0.36900  0.75000  0.62100  1.0000
  Sr  Sr4       1.0  0.86900  0.75000  0.87900  1.0000
  V   V1        1.0  0.74500  0.25000  0.08820  1.0000
  V   V2        1.0  0.49700  0.75000  0.12600  1.0000
  V   V3        1.0  0.99700  0.75000  0.37400  1.0000
  V   V4        1.0  0.24500  0.25000  0.41200  1.0000
  V   V5        1.0  0.75500  0.75000  0.58800  1.0000
  V   V6        1.0  0.00323  0.25000  0.62600  1.0000
  V   V7        1.0  0.50300  0.25000  0.87400  1.0000
  V   V8        1.0  0.25500  0.75000  0.91200  1.0000
