data_image0
_chemical_formula_structural       Be4Eu12O20
_chemical_formula_sum              "Be4 Eu12 O20"
_cell_length_a       7.22341
_cell_length_b       6.44494
_cell_length_c       9.1918
_cell_angle_alpha    90
_cell_angle_beta     90.1567
_cell_angle_gamma    90

_space_group_name_H-M_alt    "P 1"
_space_group_IT_number       1

loop_
  _space_group_symop_operation_xyz
  'x, y, z'

loop_
  _atom_site_type_symbol
  _atom_site_label
  _atom_site_symmetry_multiplicity
  _atom_site_fract_x
  _atom_site_fract_y
  _atom_site_fract_z
  _atom_site_occupancy
  Be  Be1       1.0  0.25000  0.19200  0.09950  1.0000
  Be  Be2       1.0  0.75000  0.69200  0.40000  1.0000
  Be  Be3       1.0  0.25000  0.30800  0.60000  1.0000
  Be  Be4       1.0  0.75000  0.80800  0.90000  1.0000
  Eu  Eu1       1.0  0.75000  0.40500  0.02720  1.0000
  Eu  Eu2       1.0  0.52000  0.90700  0.17400  1.0000
  Eu  Eu3       1.0  0.98000  0.90500  0.17400  1.0000
  Eu  Eu4       1.0  0.02020  0.40500  0.32600  1.0000
  Eu  Eu5       1.0  0.48000  0.40700  0.32600  1.0000
  Eu  Eu6       1.0  0.25000  0.90500  0.47300  1.0000
  Eu  Eu7       1.0  0.75000  0.09490  0.52700  1.0000
  Eu  Eu8       1.0  0.52000  0.59300  0.67400  1.0000
  Eu  Eu9       1.0  0.98000  0.59500  0.67400  1.0000
  Eu  Eu10      1.0  0.02020  0.09510  0.82600  1.0000
  Eu  Eu11      1.0  0.48000  0.09330  0.82600  1.0000
  Eu  Eu12      1.0  0.25000  0.59500  0.97300  1.0000
  O   O1        1.0  0.24900  0.97000  0.00901  1.0000
  O   O2        1.0  0.06010  0.30300  0.06180  1.0000
  O   O3        1.0  0.44100  0.30100  0.06250  1.0000
  O   O4        1.0  0.75000  0.63000  0.23000  1.0000
  O   O5        1.0  0.25000  0.66200  0.23700  1.0000
  O   O6        1.0  0.75000  0.16200  0.26300  1.0000
  O   O7        1.0  0.25000  0.13000  0.27000  1.0000
  O   O8        1.0  0.55900  0.80100  0.43700  1.0000
  O   O9        1.0  0.94000  0.80300  0.43800  1.0000
  O   O10       1.0  0.75100  0.47000  0.49100  1.0000
  O   O11       1.0  0.24900  0.53000  0.50900  1.0000
  O   O12       1.0  0.06010  0.19700  0.56200  1.0000
  O   O13       1.0  0.44100  0.19900  0.56300  1.0000
  O   O14       1.0  0.75000  0.87000  0.73000  1.0000
  O   O15       1.0  0.25000  0.83800  0.73700  1.0000
  O   O16       1.0  0.75000  0.33800  0.76300  1.0000
  O   O17       1.0  0.25000  0.37000  0.77000  1.0000
  O   O18       1.0  0.55900  0.69900  0.93700  1.0000
  O   O19       1.0  0.94000  0.69700  0.93800  1.0000
  O   O20       1.0  0.75100  0.03000  0.99100  1.0000
