data_image0
_chemical_formula_structural       Au4Cl28S4
_chemical_formula_sum              "Au4 Cl28 S4"
_cell_length_a       8.64984
_cell_length_b       10.2285
_cell_length_c       11.6904
_cell_angle_alpha    90
_cell_angle_beta     107.257
_cell_angle_gamma    90

_space_group_name_H-M_alt    "P 1"
_space_group_IT_number       1

loop_
  _space_group_symop_operation_xyz
  'x, y, z'

loop_
  _atom_site_type_symbol
  _atom_site_label
  _atom_site_symmetry_multiplicity
  _atom_site_fract_x
  _atom_site_fract_y
  _atom_site_fract_z
  _atom_site_occupancy
  Au  Au1       1.0  0.21600  0.90600  0.03490  1.0000
  Au  Au2       1.0  0.78400  0.40600  0.46500  1.0000
  Au  Au3       1.0  0.21600  0.59400  0.53500  1.0000
  Au  Au4       1.0  0.78400  0.09430  0.96500  1.0000
  Cl  Cl1       1.0  0.55600  0.71000  0.06420  1.0000
  Cl  Cl2       1.0  0.94700  0.25900  0.07290  1.0000
  Cl  Cl3       1.0  0.30500  0.43000  0.12400  1.0000
  Cl  Cl4       1.0  0.86300  0.95900  0.13300  1.0000
  Cl  Cl5       1.0  0.38100  0.06890  0.14500  1.0000
  Cl  Cl6       1.0  0.90300  0.59700  0.14900  1.0000
  Cl  Cl7       1.0  0.30000  0.76900  0.19900  1.0000
  Cl  Cl8       1.0  0.70000  0.26900  0.30100  1.0000
  Cl  Cl9       1.0  0.09700  0.09710  0.35100  1.0000
  Cl  Cl10      1.0  0.61900  0.56900  0.35500  1.0000
  Cl  Cl11      1.0  0.13700  0.45900  0.36700  1.0000
  Cl  Cl12      1.0  0.69500  0.93000  0.37600  1.0000
  Cl  Cl13      1.0  0.05260  0.75900  0.42700  1.0000
  Cl  Cl14      1.0  0.44400  0.21000  0.43600  1.0000
  Cl  Cl15      1.0  0.55600  0.79000  0.56400  1.0000
  Cl  Cl16      1.0  0.94700  0.24100  0.57300  1.0000
  Cl  Cl17      1.0  0.30500  0.07000  0.62400  1.0000
  Cl  Cl18      1.0  0.86300  0.54100  0.63300  1.0000
  Cl  Cl19      1.0  0.38100  0.43100  0.64500  1.0000
  Cl  Cl20      1.0  0.90300  0.90300  0.64900  1.0000
  Cl  Cl21      1.0  0.30000  0.73100  0.69900  1.0000
  Cl  Cl22      1.0  0.70000  0.23100  0.80100  1.0000
  Cl  Cl23      1.0  0.09700  0.40300  0.85100  1.0000
  Cl  Cl24      1.0  0.61900  0.93100  0.85500  1.0000
  Cl  Cl25      1.0  0.13700  0.04070  0.86700  1.0000
  Cl  Cl26      1.0  0.69500  0.57000  0.87600  1.0000
  Cl  Cl27      1.0  0.05260  0.74100  0.92700  1.0000
  Cl  Cl28      1.0  0.44400  0.29000  0.93600  1.0000
  S   S1        1.0  0.76100  0.70300  0.01060  1.0000
  S   S2        1.0  0.23900  0.20300  0.48900  1.0000
  S   S3        1.0  0.76100  0.79700  0.51100  1.0000
  S   S4        1.0  0.23900  0.29700  0.98900  1.0000
