data_image0
_chemical_formula_structural       Er8O24W4
_chemical_formula_sum              "Er8 O24 W4"
_cell_length_a       5.17164
_cell_length_b       8.97267
_cell_length_c       9.8022
_cell_angle_alpha    90
_cell_angle_beta     90
_cell_angle_gamma    90

_space_group_name_H-M_alt    "P 1"
_space_group_IT_number       1

loop_
  _space_group_symop_operation_xyz
  'x, y, z'

loop_
  _atom_site_type_symbol
  _atom_site_label
  _atom_site_symmetry_multiplicity
  _atom_site_fract_x
  _atom_site_fract_y
  _atom_site_fract_z
  _atom_site_occupancy
  Er  Er1       1.0  0.01690  0.39700  0.03280  1.0000
  Er  Er2       1.0  0.46100  0.72000  0.12700  1.0000
  Er  Er3       1.0  0.53900  0.22000  0.37300  1.0000
  Er  Er4       1.0  0.98300  0.89700  0.46700  1.0000
  Er  Er5       1.0  0.48300  0.60300  0.53300  1.0000
  Er  Er6       1.0  0.03900  0.28000  0.62700  1.0000
  Er  Er7       1.0  0.96100  0.78000  0.87300  1.0000
  Er  Er8       1.0  0.51700  0.10300  0.96700  1.0000
  O   O1        1.0  0.24900  0.90900  0.00468  1.0000
  O   O2        1.0  0.91500  0.15700  0.02940  1.0000
  O   O3        1.0  0.76600  0.88500  0.06760  1.0000
  O   O4        1.0  0.32100  0.14000  0.18200  1.0000
  O   O5        1.0  0.18100  0.54400  0.20000  1.0000
  O   O6        1.0  0.80200  0.35800  0.23400  1.0000
  O   O7        1.0  0.19800  0.85800  0.26600  1.0000
  O   O8        1.0  0.81900  0.04440  0.30000  1.0000
  O   O9        1.0  0.67900  0.64000  0.31800  1.0000
  O   O10       1.0  0.23400  0.38500  0.43200  1.0000
  O   O11       1.0  0.08510  0.65700  0.47100  1.0000
  O   O12       1.0  0.75100  0.40900  0.49500  1.0000
  O   O13       1.0  0.25100  0.09080  0.50500  1.0000
  O   O14       1.0  0.58500  0.84300  0.52900  1.0000
  O   O15       1.0  0.73400  0.11500  0.56800  1.0000
  O   O16       1.0  0.17900  0.86000  0.68200  1.0000
  O   O17       1.0  0.31900  0.45600  0.70000  1.0000
  O   O18       1.0  0.69800  0.64200  0.73400  1.0000
  O   O19       1.0  0.30200  0.14200  0.76600  1.0000
  O   O20       1.0  0.68100  0.95600  0.80000  1.0000
  O   O21       1.0  0.82100  0.36000  0.81800  1.0000
  O   O22       1.0  0.26600  0.61500  0.93200  1.0000
  O   O23       1.0  0.41500  0.34300  0.97100  1.0000
  O   O24       1.0  0.74900  0.59100  0.99500  1.0000
  W   W1        1.0  0.03840  0.00455  0.15400  1.0000
  W   W2        1.0  0.96200  0.50500  0.34600  1.0000
  W   W3        1.0  0.46200  0.99500  0.65400  1.0000
  W   W4        1.0  0.53800  0.49500  0.84600  1.0000
