data_image0
_chemical_formula_structural       La8O24Te4
_chemical_formula_sum              "La8 O24 Te4"
_cell_length_a       5.50248
_cell_length_b       9.42524
_cell_length_c       10.3482
_cell_angle_alpha    90
_cell_angle_beta     90
_cell_angle_gamma    90

_space_group_name_H-M_alt    "P 1"
_space_group_IT_number       1

loop_
  _space_group_symop_operation_xyz
  'x, y, z'

loop_
  _atom_site_type_symbol
  _atom_site_label
  _atom_site_symmetry_multiplicity
  _atom_site_fract_x
  _atom_site_fract_y
  _atom_site_fract_z
  _atom_site_occupancy
  La  La1       1.0  0.02810  0.39500  0.04480  1.0000
  La  La2       1.0  0.47300  0.71800  0.14100  1.0000
  La  La3       1.0  0.52700  0.21800  0.35900  1.0000
  La  La4       1.0  0.97200  0.89500  0.45500  1.0000
  La  La5       1.0  0.47200  0.60500  0.54500  1.0000
  La  La6       1.0  0.02690  0.28200  0.64100  1.0000
  La  La7       1.0  0.97300  0.78200  0.85900  1.0000
  La  La8       1.0  0.52800  0.10500  0.95500  1.0000
  O   O1        1.0  0.25100  0.91400  0.00750  1.0000
  O   O2        1.0  0.93600  0.14700  0.01580  1.0000
  O   O3        1.0  0.78200  0.88800  0.06280  1.0000
  O   O4        1.0  0.30100  0.14000  0.17400  1.0000
  O   O5        1.0  0.17000  0.55500  0.22100  1.0000
  O   O6        1.0  0.82000  0.36500  0.24500  1.0000
  O   O7        1.0  0.18000  0.86500  0.25500  1.0000
  O   O8        1.0  0.83000  0.05470  0.27900  1.0000
  O   O9        1.0  0.69900  0.64000  0.32600  1.0000
  O   O10       1.0  0.21800  0.38800  0.43700  1.0000
  O   O11       1.0  0.06400  0.64700  0.48400  1.0000
  O   O12       1.0  0.74900  0.41400  0.49200  1.0000
  O   O13       1.0  0.24900  0.08610  0.50700  1.0000
  O   O14       1.0  0.56400  0.85300  0.51600  1.0000
  O   O15       1.0  0.71800  0.11200  0.56300  1.0000
  O   O16       1.0  0.19900  0.86000  0.67400  1.0000
  O   O17       1.0  0.33000  0.44500  0.72100  1.0000
  O   O18       1.0  0.68000  0.63500  0.74500  1.0000
  O   O19       1.0  0.32000  0.13500  0.75500  1.0000
  O   O20       1.0  0.67000  0.94500  0.77900  1.0000
  O   O21       1.0  0.80100  0.36000  0.82600  1.0000
  O   O22       1.0  0.28200  0.61200  0.93700  1.0000
  O   O23       1.0  0.43600  0.35300  0.98400  1.0000
  O   O24       1.0  0.75100  0.58600  0.99200  1.0000
  Te  Te1       1.0  0.04180  0.00434  0.13900  1.0000
  Te  Te2       1.0  0.95800  0.50400  0.36100  1.0000
  Te  Te3       1.0  0.45800  0.99600  0.63900  1.0000
  Te  Te4       1.0  0.54200  0.49600  0.86100  1.0000
