data_image0
_chemical_formula_structural       I4K4Mo4O24
_chemical_formula_sum              "I4 K4 Mo4 O24"
_cell_length_a       7.3733
_cell_length_b       7.44513
_cell_length_c       10.3868
_cell_angle_alpha    90
_cell_angle_beta     108.593
_cell_angle_gamma    90

_space_group_name_H-M_alt    "P 1"
_space_group_IT_number       1

loop_
  _space_group_symop_operation_xyz
  'x, y, z'

loop_
  _atom_site_type_symbol
  _atom_site_label
  _atom_site_symmetry_multiplicity
  _atom_site_fract_x
  _atom_site_fract_y
  _atom_site_fract_z
  _atom_site_occupancy
  I   I1        1.0  0.35400  0.82200  0.04620  1.0000
  I   I2        1.0  0.14600  0.32200  0.45400  1.0000
  I   I3        1.0  0.85400  0.67800  0.54600  1.0000
  I   I4        1.0  0.64600  0.17800  0.95400  1.0000
  K   K1        1.0  0.15500  0.26500  0.07000  1.0000
  K   K2        1.0  0.34500  0.76500  0.43000  1.0000
  K   K3        1.0  0.65500  0.23500  0.57000  1.0000
  K   K4        1.0  0.84500  0.73500  0.93000  1.0000
  Mo  Mo1       1.0  0.72900  0.50200  0.22000  1.0000
  Mo  Mo2       1.0  0.77100  0.00175  0.28000  1.0000
  Mo  Mo3       1.0  0.22900  0.99800  0.72000  1.0000
  Mo  Mo4       1.0  0.27100  0.49800  0.78000  1.0000
  O   O1        1.0  0.83000  0.05130  0.08960  1.0000
  O   O2        1.0  0.83600  0.42900  0.09770  1.0000
  O   O3        1.0  0.47900  0.03370  0.13100  1.0000
  O   O4        1.0  0.49000  0.44700  0.14000  1.0000
  O   O5        1.0  0.21300  0.78400  0.15600  1.0000
  O   O6        1.0  0.72100  0.74600  0.19200  1.0000
  O   O7        1.0  0.77900  0.24600  0.30800  1.0000
  O   O8        1.0  0.28700  0.28400  0.34400  1.0000
  O   O9        1.0  0.00962  0.94700  0.36000  1.0000
  O   O10       1.0  0.02110  0.53400  0.36900  1.0000
  O   O11       1.0  0.66400  0.92900  0.40200  1.0000
  O   O12       1.0  0.67000  0.55100  0.41000  1.0000
  O   O13       1.0  0.33000  0.44900  0.59000  1.0000
  O   O14       1.0  0.33600  0.07140  0.59800  1.0000
  O   O15       1.0  0.97900  0.46600  0.63100  1.0000
  O   O16       1.0  0.99000  0.05320  0.64000  1.0000
  O   O17       1.0  0.71300  0.71600  0.65600  1.0000
  O   O18       1.0  0.22100  0.75400  0.69200  1.0000
  O   O19       1.0  0.27900  0.25400  0.80800  1.0000
  O   O20       1.0  0.78700  0.21600  0.84400  1.0000
  O   O21       1.0  0.51000  0.55300  0.86000  1.0000
  O   O22       1.0  0.52100  0.96600  0.86900  1.0000
  O   O23       1.0  0.16400  0.57100  0.90200  1.0000
  O   O24       1.0  0.17000  0.94900  0.91000  1.0000
