data_image0
_chemical_formula_structural       B24Co4Lu8
_chemical_formula_sum              "B24 Co4 Lu8"
_cell_length_a       8.97275
_cell_length_b       11.3104
_cell_length_c       3.48359
_cell_angle_alpha    90
_cell_angle_beta     90
_cell_angle_gamma    90

_space_group_name_H-M_alt    "P 1"
_space_group_IT_number       1

loop_
  _space_group_symop_operation_xyz
  'x, y, z'

loop_
  _atom_site_type_symbol
  _atom_site_label
  _atom_site_symmetry_multiplicity
  _atom_site_fract_x
  _atom_site_fract_y
  _atom_site_fract_z
  _atom_site_occupancy
  B   B1        1.0  0.60700  0.02890  0.50000  1.0000
  B   B2        1.0  0.05350  0.06640  0.50000  1.0000
  B   B3        1.0  0.24800  0.08140  0.50000  1.0000
  B   B4        1.0  0.63400  0.18400  0.50000  1.0000
  B   B5        1.0  0.98500  0.21200  0.50000  1.0000
  B   B6        1.0  0.29300  0.23600  0.50000  1.0000
  B   B7        1.0  0.79300  0.26400  0.50000  1.0000
  B   B8        1.0  0.48500  0.28800  0.50000  1.0000
  B   B9        1.0  0.13400  0.31600  0.50000  1.0000
  B   B10       1.0  0.74800  0.41900  0.50000  1.0000
  B   B11       1.0  0.55300  0.43400  0.50000  1.0000
  B   B12       1.0  0.10700  0.47100  0.50000  1.0000
  B   B13       1.0  0.89300  0.52900  0.50000  1.0000
  B   B14       1.0  0.44700  0.56600  0.50000  1.0000
  B   B15       1.0  0.25200  0.58100  0.50000  1.0000
  B   B16       1.0  0.86600  0.68400  0.50000  1.0000
  B   B17       1.0  0.51500  0.71200  0.50000  1.0000
  B   B18       1.0  0.20700  0.73600  0.50000  1.0000
  B   B19       1.0  0.70700  0.76400  0.50000  1.0000
  B   B20       1.0  0.01480  0.78800  0.50000  1.0000
  B   B21       1.0  0.36600  0.81600  0.50000  1.0000
  B   B22       1.0  0.75200  0.91900  0.50000  1.0000
  B   B23       1.0  0.94700  0.93400  0.50000  1.0000
  B   B24       1.0  0.39300  0.97100  0.50000  1.0000
  Co  Co1       1.0  0.14000  0.18000  0.00000  1.0000
  Co  Co2       1.0  0.64000  0.32000  0.00000  1.0000
  Co  Co3       1.0  0.36000  0.68000  0.00000  1.0000
  Co  Co4       1.0  0.86000  0.82000  0.00000  1.0000
  Lu  Lu1       1.0  0.82400  0.08540  0.00000  1.0000
  Lu  Lu2       1.0  0.44400  0.12900  0.00000  1.0000
  Lu  Lu3       1.0  0.94400  0.37100  0.00000  1.0000
  Lu  Lu4       1.0  0.32400  0.41500  0.00000  1.0000
  Lu  Lu5       1.0  0.67600  0.58500  0.00000  1.0000
  Lu  Lu6       1.0  0.05630  0.62900  0.00000  1.0000
  Lu  Lu7       1.0  0.55600  0.87100  0.00000  1.0000
  Lu  Lu8       1.0  0.17600  0.91500  0.00000  1.0000
