data_image0
_chemical_formula_structural       As12Cs20Ge4
_chemical_formula_sum              "As12 Cs20 Ge4"
_cell_length_a       14.9321
_cell_length_b       6.10729
_cell_length_c       16.3822
_cell_angle_alpha    90
_cell_angle_beta     90
_cell_angle_gamma    90

_space_group_name_H-M_alt    "P 1"
_space_group_IT_number       1

loop_
  _space_group_symop_operation_xyz
  'x, y, z'

loop_
  _atom_site_type_symbol
  _atom_site_label
  _atom_site_symmetry_multiplicity
  _atom_site_fract_x
  _atom_site_fract_y
  _atom_site_fract_z
  _atom_site_occupancy
  As  As1       1.0  0.81000  0.25000  0.07150  1.0000
  As  As2       1.0  0.39900  0.75000  0.08910  1.0000
  As  As3       1.0  0.13400  0.75000  0.18000  1.0000
  As  As4       1.0  0.63400  0.75000  0.32000  1.0000
  As  As5       1.0  0.89900  0.75000  0.41100  1.0000
  As  As6       1.0  0.31000  0.25000  0.42900  1.0000
  As  As7       1.0  0.69000  0.75000  0.57100  1.0000
  As  As8       1.0  0.10100  0.25000  0.58900  1.0000
  As  As9       1.0  0.36600  0.25000  0.68000  1.0000
  As  As10      1.0  0.86600  0.25000  0.82000  1.0000
  As  As11      1.0  0.60100  0.25000  0.91100  1.0000
  As  As12      1.0  0.19000  0.75000  0.92900  1.0000
  Cs  Cs1       1.0  0.64600  0.75000  0.04580  1.0000
  Cs  Cs2       1.0  0.06460  0.25000  0.05170  1.0000
  Cs  Cs3       1.0  0.55100  0.25000  0.15300  1.0000
  Cs  Cs4       1.0  0.88200  0.75000  0.18600  1.0000
  Cs  Cs5       1.0  0.27700  0.25000  0.20700  1.0000
  Cs  Cs6       1.0  0.77700  0.25000  0.29300  1.0000
  Cs  Cs7       1.0  0.38200  0.75000  0.31400  1.0000
  Cs  Cs8       1.0  0.05050  0.25000  0.34700  1.0000
  Cs  Cs9       1.0  0.56500  0.25000  0.44800  1.0000
  Cs  Cs10      1.0  0.14600  0.75000  0.45400  1.0000
  Cs  Cs11      1.0  0.85400  0.25000  0.54600  1.0000
  Cs  Cs12      1.0  0.43500  0.75000  0.55200  1.0000
  Cs  Cs13      1.0  0.94900  0.75000  0.65300  1.0000
  Cs  Cs14      1.0  0.61800  0.25000  0.68600  1.0000
  Cs  Cs15      1.0  0.22300  0.75000  0.70700  1.0000
  Cs  Cs16      1.0  0.72300  0.75000  0.79300  1.0000
  Cs  Cs17      1.0  0.11800  0.25000  0.81400  1.0000
  Cs  Cs18      1.0  0.44900  0.75000  0.84700  1.0000
  Cs  Cs19      1.0  0.93500  0.75000  0.94800  1.0000
  Cs  Cs20      1.0  0.35400  0.25000  0.95400  1.0000
  Ge  Ge1       1.0  0.23900  0.75000  0.06820  1.0000
  Ge  Ge2       1.0  0.73900  0.75000  0.43200  1.0000
  Ge  Ge3       1.0  0.26100  0.25000  0.56800  1.0000
  Ge  Ge4       1.0  0.76100  0.25000  0.93200  1.0000
