data_image0
_chemical_formula_structural       Au4I2K12Na2O16
_chemical_formula_sum              "Au4 I2 K12 Na2 O16"
_cell_length_a       7.05767
_cell_length_b       9.69438
_cell_length_c       11.9911
_cell_angle_alpha    90
_cell_angle_beta     123.073
_cell_angle_gamma    90

_space_group_name_H-M_alt    "P 1"
_space_group_IT_number       1

loop_
  _space_group_symop_operation_xyz
  'x, y, z'

loop_
  _atom_site_type_symbol
  _atom_site_label
  _atom_site_symmetry_multiplicity
  _atom_site_fract_x
  _atom_site_fract_y
  _atom_site_fract_z
  _atom_site_occupancy
  Au  Au1       1.0  0.00000  0.00000  0.00000  1.0000
  Au  Au2       1.0  0.00000  0.04160  0.25000  1.0000
  Au  Au3       1.0  0.00000  0.00000  0.50000  1.0000
  Au  Au4       1.0  0.00000  0.95800  0.75000  1.0000
  I   I1        1.0  0.50000  0.50000  0.00000  1.0000
  I   I2        1.0  0.50000  0.50000  0.50000  1.0000
  K   K1        1.0  0.46900  0.18000  0.08430  1.0000
  K   K2        1.0  0.98800  0.33700  0.08720  1.0000
  K   K3        1.0  0.00000  0.64900  0.25000  1.0000
  K   K4        1.0  0.50000  0.84100  0.25000  1.0000
  K   K5        1.0  0.01200  0.33700  0.41300  1.0000
  K   K6        1.0  0.53100  0.18000  0.41600  1.0000
  K   K7        1.0  0.46900  0.82000  0.58400  1.0000
  K   K8        1.0  0.98800  0.66300  0.58700  1.0000
  K   K9        1.0  0.50000  0.15900  0.75000  1.0000
  K   K10       1.0  0.00000  0.35100  0.75000  1.0000
  K   K11       1.0  0.01200  0.66300  0.91300  1.0000
  K   K12       1.0  0.53100  0.82000  0.91600  1.0000
  Na  Na1       1.0  0.50000  0.50600  0.25000  1.0000
  Na  Na2       1.0  0.50000  0.49400  0.75000  1.0000
  O   O1        1.0  0.25900  0.42600  0.01290  1.0000
  O   O2        1.0  0.50100  0.66400  0.09200  1.0000
  O   O3        1.0  0.71400  0.41800  0.16800  1.0000
  O   O4        1.0  0.22100  0.05320  0.19200  1.0000
  O   O5        1.0  0.77900  0.05320  0.30800  1.0000
  O   O6        1.0  0.28600  0.41800  0.33200  1.0000
  O   O7        1.0  0.49900  0.66400  0.40800  1.0000
  O   O8        1.0  0.74100  0.42600  0.48700  1.0000
  O   O9        1.0  0.25900  0.57400  0.51300  1.0000
  O   O10       1.0  0.50100  0.33600  0.59200  1.0000
  O   O11       1.0  0.71400  0.58200  0.66800  1.0000
  O   O12       1.0  0.22100  0.94700  0.69200  1.0000
  O   O13       1.0  0.77900  0.94700  0.80800  1.0000
  O   O14       1.0  0.28600  0.58200  0.83200  1.0000
  O   O15       1.0  0.49900  0.33600  0.90800  1.0000
  O   O16       1.0  0.74100  0.57400  0.98700  1.0000
