data_image0
_chemical_formula_structural       F8O20S8
_chemical_formula_sum              "F8 O20 S8"
_cell_length_a       7.17656
_cell_length_b       7.17656
_cell_length_c       8.75295
_cell_angle_alpha    90
_cell_angle_beta     90
_cell_angle_gamma    90

_space_group_name_H-M_alt    "P 1"
_space_group_IT_number       1

loop_
  _space_group_symop_operation_xyz
  'x, y, z'

loop_
  _atom_site_type_symbol
  _atom_site_label
  _atom_site_symmetry_multiplicity
  _atom_site_fract_x
  _atom_site_fract_y
  _atom_site_fract_z
  _atom_site_occupancy
  F   F1        1.0  0.59700  0.27100  0.08340  1.0000
  F   F2        1.0  0.40300  0.72900  0.08340  1.0000
  F   F3        1.0  0.09720  0.22900  0.41700  1.0000
  F   F4        1.0  0.90300  0.77100  0.41700  1.0000
  F   F5        1.0  0.77100  0.09720  0.58300  1.0000
  F   F6        1.0  0.22900  0.90300  0.58300  1.0000
  F   F7        1.0  0.27100  0.40300  0.91700  1.0000
  F   F8        1.0  0.72900  0.59700  0.91700  1.0000
  O   O1        1.0  0.28500  0.02630  0.00545  1.0000
  O   O2        1.0  0.71500  0.97400  0.00545  1.0000
  O   O3        1.0  0.50000  0.00000  0.22800  1.0000
  O   O4        1.0  0.31000  0.38200  0.24500  1.0000
  O   O5        1.0  0.69000  0.61800  0.24500  1.0000
  O   O6        1.0  0.81000  0.11800  0.25500  1.0000
  O   O7        1.0  0.19000  0.88200  0.25500  1.0000
  O   O8        1.0  0.00000  0.50000  0.27200  1.0000
  O   O9        1.0  0.78500  0.47400  0.49500  1.0000
  O   O10       1.0  0.21500  0.52600  0.49500  1.0000
  O   O11       1.0  0.47400  0.21500  0.50500  1.0000
  O   O12       1.0  0.52600  0.78500  0.50500  1.0000
  O   O13       1.0  0.50000  0.00000  0.72800  1.0000
  O   O14       1.0  0.11800  0.19000  0.74500  1.0000
  O   O15       1.0  0.88200  0.81000  0.74500  1.0000
  O   O16       1.0  0.61800  0.31000  0.75500  1.0000
  O   O17       1.0  0.38200  0.69000  0.75500  1.0000
  O   O18       1.0  0.00000  0.50000  0.77200  1.0000
  O   O19       1.0  0.97400  0.28500  0.99500  1.0000
  O   O20       1.0  0.02630  0.71500  0.99500  1.0000
  S   S1        1.0  0.68100  0.08190  0.13800  1.0000
  S   S2        1.0  0.31900  0.91800  0.13800  1.0000
  S   S3        1.0  0.18100  0.41800  0.36200  1.0000
  S   S4        1.0  0.81900  0.58200  0.36200  1.0000
  S   S5        1.0  0.58200  0.18100  0.63800  1.0000
  S   S6        1.0  0.41800  0.81900  0.63800  1.0000
  S   S7        1.0  0.08190  0.31900  0.86200  1.0000
  S   S8        1.0  0.91800  0.68100  0.86200  1.0000
