data_image0
_chemical_formula_structural       O22Sr2V12
_chemical_formula_sum              "O22 Sr2 V12"
_cell_length_a       5.81104
_cell_length_b       6.16774
_cell_length_c       13.1938
_cell_angle_alpha    90
_cell_angle_beta     90
_cell_angle_gamma    118.105

_space_group_name_H-M_alt    "P 1"
_space_group_IT_number       1

loop_
  _space_group_symop_operation_xyz
  'x, y, z'

loop_
  _atom_site_type_symbol
  _atom_site_label
  _atom_site_symmetry_multiplicity
  _atom_site_fract_x
  _atom_site_fract_y
  _atom_site_fract_z
  _atom_site_occupancy
  O   O1        1.0  0.17100  0.83100  0.07330  1.0000
  O   O2        1.0  0.66000  0.83100  0.07330  1.0000
  O   O3        1.0  0.17700  0.35300  0.07720  1.0000
  O   O4        1.0  0.65600  0.31300  0.09290  1.0000
  O   O5        1.0  0.13700  0.27400  0.25000  1.0000
  O   O6        1.0  0.19000  0.94700  0.25000  1.0000
  O   O7        1.0  0.75600  0.94700  0.25000  1.0000
  O   O8        1.0  0.65600  0.31300  0.40700  1.0000
  O   O9        1.0  0.17700  0.35300  0.42300  1.0000
  O   O10       1.0  0.17100  0.83100  0.42700  1.0000
  O   O11       1.0  0.66000  0.83100  0.42700  1.0000
  O   O12       1.0  0.34000  0.16900  0.57300  1.0000
  O   O13       1.0  0.82900  0.16900  0.57300  1.0000
  O   O14       1.0  0.82300  0.64700  0.57700  1.0000
  O   O15       1.0  0.34400  0.68700  0.59300  1.0000
  O   O16       1.0  0.24400  0.05330  0.75000  1.0000
  O   O17       1.0  0.81000  0.05330  0.75000  1.0000
  O   O18       1.0  0.86300  0.72600  0.75000  1.0000
  O   O19       1.0  0.34400  0.68700  0.90700  1.0000
  O   O20       1.0  0.82300  0.64700  0.92300  1.0000
  O   O21       1.0  0.34000  0.16900  0.92700  1.0000
  O   O22       1.0  0.82900  0.16900  0.92700  1.0000
  Sr  Sr1       1.0  0.33400  0.66900  0.25000  1.0000
  Sr  Sr2       1.0  0.66600  0.33100  0.75000  1.0000
  V   V1        1.0  0.50000  0.00000  0.00000  1.0000
  V   V2        1.0  0.00000  0.50000  0.00000  1.0000
  V   V3        1.0  0.50000  0.50000  0.00000  1.0000
  V   V4        1.0  0.01450  0.02910  0.14500  1.0000
  V   V5        1.0  0.62000  0.24000  0.25000  1.0000
  V   V6        1.0  0.01450  0.02910  0.35500  1.0000
  V   V7        1.0  0.50000  0.00000  0.50000  1.0000
  V   V8        1.0  0.00000  0.50000  0.50000  1.0000
  V   V9        1.0  0.50000  0.50000  0.50000  1.0000
  V   V10       1.0  0.98500  0.97100  0.64500  1.0000
  V   V11       1.0  0.38000  0.76000  0.75000  1.0000
  V   V12       1.0  0.98500  0.97100  0.85500  1.0000
