data_image0
_chemical_formula_structural       Ge4Li2O24P6
_chemical_formula_sum              "Ge4 Li2 O24 P6"
_cell_length_a       8.30237
_cell_length_b       8.30237
_cell_length_c       8.29898
_cell_angle_alpha    120.014
_cell_angle_beta     120.014
_cell_angle_gamma    60

_space_group_name_H-M_alt    "P 1"
_space_group_IT_number       1

loop_
  _space_group_symop_operation_xyz
  'x, y, z'

loop_
  _atom_site_type_symbol
  _atom_site_label
  _atom_site_symmetry_multiplicity
  _atom_site_fract_x
  _atom_site_fract_y
  _atom_site_fract_z
  _atom_site_occupancy
  Ge  Ge1       1.0  0.36000  0.36000  0.08080  1.0000
  Ge  Ge2       1.0  0.14000  0.14000  0.41900  1.0000
  Ge  Ge3       1.0  0.86000  0.86000  0.58100  1.0000
  Ge  Ge4       1.0  0.64000  0.64000  0.91900  1.0000
  Li  Li1       1.0  0.00000  0.00000  0.00000  1.0000
  Li  Li2       1.0  0.50000  0.50000  0.50000  1.0000
  O   O1        1.0  0.87100  0.69800  0.06090  1.0000
  O   O2        1.0  0.69800  0.49200  0.06090  1.0000
  O   O3        1.0  0.49200  0.87100  0.06090  1.0000
  O   O4        1.0  0.92000  0.26300  0.23800  1.0000
  O   O5        1.0  0.26300  0.05460  0.23800  1.0000
  O   O6        1.0  0.05460  0.92000  0.23800  1.0000
  O   O7        1.0  0.58000  0.44500  0.26200  1.0000
  O   O8        1.0  0.44500  0.23700  0.26200  1.0000
  O   O9        1.0  0.23700  0.58000  0.26200  1.0000
  O   O10       1.0  0.80200  0.62900  0.43900  1.0000
  O   O11       1.0  0.62900  0.00794  0.43900  1.0000
  O   O12       1.0  0.00794  0.80200  0.43900  1.0000
  O   O13       1.0  0.99200  0.19800  0.56100  1.0000
  O   O14       1.0  0.37100  0.99200  0.56100  1.0000
  O   O15       1.0  0.19800  0.37100  0.56100  1.0000
  O   O16       1.0  0.76300  0.42000  0.73800  1.0000
  O   O17       1.0  0.55500  0.76300  0.73800  1.0000
  O   O18       1.0  0.42000  0.55500  0.73800  1.0000
  O   O19       1.0  0.94500  0.07950  0.76200  1.0000
  O   O20       1.0  0.73700  0.94500  0.76200  1.0000
  O   O21       1.0  0.07950  0.73700  0.76200  1.0000
  O   O22       1.0  0.50800  0.12900  0.93900  1.0000
  O   O23       1.0  0.30200  0.50800  0.93900  1.0000
  O   O24       1.0  0.12900  0.30200  0.93900  1.0000
  P   P1        1.0  0.75000  0.46100  0.25000  1.0000
  P   P2        1.0  0.46100  0.03880  0.25000  1.0000
  P   P3        1.0  0.03880  0.75000  0.25000  1.0000
  P   P4        1.0  0.96100  0.25000  0.75000  1.0000
  P   P5        1.0  0.53900  0.96100  0.75000  1.0000
  P   P6        1.0  0.25000  0.53900  0.75000  1.0000
