data_image0
_chemical_formula_structural       Mo4Nd8O24
_chemical_formula_sum              "Mo4 Nd8 O24"
_cell_length_a       5.65056
_cell_length_b       5.65056
_cell_length_c       16.3023
_cell_angle_alpha    99.9801
_cell_angle_beta     99.9801
_cell_angle_gamma    90

_space_group_name_H-M_alt    "P 1"
_space_group_IT_number       1

loop_
  _space_group_symop_operation_xyz
  'x, y, z'

loop_
  _atom_site_type_symbol
  _atom_site_label
  _atom_site_symmetry_multiplicity
  _atom_site_fract_x
  _atom_site_fract_y
  _atom_site_fract_z
  _atom_site_occupancy
  Mo  Mo1       1.0  0.62500  0.37500  0.25000  1.0000
  Mo  Mo2       1.0  0.12500  0.87500  0.25000  1.0000
  Mo  Mo3       1.0  0.87500  0.12500  0.75000  1.0000
  Mo  Mo4       1.0  0.37500  0.62500  0.75000  1.0000
  Nd  Nd1       1.0  0.03810  0.28800  0.07630  1.0000
  Nd  Nd2       1.0  0.53800  0.78800  0.07630  1.0000
  Nd  Nd3       1.0  0.21200  0.46200  0.42400  1.0000
  Nd  Nd4       1.0  0.71200  0.96200  0.42400  1.0000
  Nd  Nd5       1.0  0.28800  0.03810  0.57600  1.0000
  Nd  Nd6       1.0  0.78800  0.53800  0.57600  1.0000
  Nd  Nd7       1.0  0.46200  0.21200  0.92400  1.0000
  Nd  Nd8       1.0  0.96200  0.71200  0.92400  1.0000
  O   O1        1.0  0.75000  0.00541  0.00000  1.0000
  O   O2        1.0  0.25000  0.49500  0.00000  1.0000
  O   O3        1.0  0.75000  0.50500  0.00000  1.0000
  O   O4        1.0  0.25000  0.99500  0.00000  1.0000
  O   O5        1.0  0.91300  0.00925  0.17700  1.0000
  O   O6        1.0  0.41300  0.16800  0.17700  1.0000
  O   O7        1.0  0.76500  0.50900  0.17700  1.0000
  O   O8        1.0  0.26500  0.66800  0.17700  1.0000
  O   O9        1.0  0.33200  0.08740  0.32300  1.0000
  O   O10       1.0  0.83200  0.23500  0.32300  1.0000
  O   O11       1.0  0.49100  0.58700  0.32300  1.0000
  O   O12       1.0  0.99100  0.73500  0.32300  1.0000
  O   O13       1.0  0.00541  0.25000  0.50000  1.0000
  O   O14       1.0  0.50500  0.25000  0.50000  1.0000
  O   O15       1.0  0.49500  0.75000  0.50000  1.0000
  O   O16       1.0  0.99500  0.75000  0.50000  1.0000
  O   O17       1.0  0.00925  0.26500  0.67700  1.0000
  O   O18       1.0  0.50900  0.41300  0.67700  1.0000
  O   O19       1.0  0.16800  0.76500  0.67700  1.0000
  O   O20       1.0  0.66800  0.91300  0.67700  1.0000
  O   O21       1.0  0.73500  0.33200  0.82300  1.0000
  O   O22       1.0  0.23500  0.49100  0.82300  1.0000
  O   O23       1.0  0.58700  0.83200  0.82300  1.0000
  O   O24       1.0  0.08740  0.99100  0.82300  1.0000
