data_image0
_chemical_formula_structural       F20O8S4Sb4
_chemical_formula_sum              "F20 O8 S4 Sb4"
_cell_length_a       5.48397
_cell_length_b       9.73756
_cell_length_c       9.48594
_cell_angle_alpha    90
_cell_angle_beta     104.389
_cell_angle_gamma    90

_space_group_name_H-M_alt    "P 1"
_space_group_IT_number       1

loop_
  _space_group_symop_operation_xyz
  'x, y, z'

loop_
  _atom_site_type_symbol
  _atom_site_label
  _atom_site_symmetry_multiplicity
  _atom_site_fract_x
  _atom_site_fract_y
  _atom_site_fract_z
  _atom_site_occupancy
  F   F1        1.0  0.25400  0.46000  0.04100  1.0000
  F   F2        1.0  0.11000  0.12800  0.08500  1.0000
  F   F3        1.0  0.07930  0.68200  0.15600  1.0000
  F   F4        1.0  0.91500  0.91900  0.20700  1.0000
  F   F5        1.0  0.43400  0.92600  0.21800  1.0000
  F   F6        1.0  0.06630  0.42600  0.28300  1.0000
  F   F7        1.0  0.58500  0.41900  0.29300  1.0000
  F   F8        1.0  0.42100  0.18200  0.34400  1.0000
  F   F9        1.0  0.39000  0.62800  0.41500  1.0000
  F   F10       1.0  0.24600  0.96000  0.45900  1.0000
  F   F11       1.0  0.75400  0.04000  0.54100  1.0000
  F   F12       1.0  0.61000  0.37200  0.58500  1.0000
  F   F13       1.0  0.57900  0.81800  0.65600  1.0000
  F   F14       1.0  0.41500  0.58100  0.70700  1.0000
  F   F15       1.0  0.93400  0.57400  0.71800  1.0000
  F   F16       1.0  0.56600  0.07380  0.78200  1.0000
  F   F17       1.0  0.08470  0.08070  0.79300  1.0000
  F   F18       1.0  0.92100  0.31800  0.84400  1.0000
  F   F19       1.0  0.89000  0.87200  0.91500  1.0000
  F   F20       1.0  0.74600  0.54000  0.95900  1.0000
  O   O1        1.0  0.64700  0.24000  0.05990  1.0000
  O   O2        1.0  0.58100  0.66200  0.17700  1.0000
  O   O3        1.0  0.91900  0.16200  0.32300  1.0000
  O   O4        1.0  0.85300  0.74000  0.44000  1.0000
  O   O5        1.0  0.14700  0.26000  0.56000  1.0000
  O   O6        1.0  0.08100  0.83800  0.67700  1.0000
  O   O7        1.0  0.41900  0.33800  0.82300  1.0000
  O   O8        1.0  0.35300  0.76000  0.94000  1.0000
  S   S1        1.0  0.58500  0.75200  0.04920  1.0000
  S   S2        1.0  0.91500  0.25200  0.45100  1.0000
  S   S3        1.0  0.08520  0.74800  0.54900  1.0000
  S   S4        1.0  0.41500  0.24800  0.95100  1.0000
  Sb  Sb1       1.0  0.31000  0.54000  0.23100  1.0000
  Sb  Sb2       1.0  0.19000  0.04010  0.26900  1.0000
  Sb  Sb3       1.0  0.81000  0.96000  0.73100  1.0000
  Sb  Sb4       1.0  0.69000  0.46000  0.76900  1.0000
