data_image0
_chemical_formula_structural       Ba4Co4O20Yb8
_chemical_formula_sum              "Ba4 Co4 O20 Yb8"
_cell_length_a       12.0221
_cell_length_b       5.60869
_cell_length_c       6.94888
_cell_angle_alpha    90
_cell_angle_beta     90
_cell_angle_gamma    90

_space_group_name_H-M_alt    "P 1"
_space_group_IT_number       1

loop_
  _space_group_symop_operation_xyz
  'x, y, z'

loop_
  _atom_site_type_symbol
  _atom_site_label
  _atom_site_symmetry_multiplicity
  _atom_site_fract_x
  _atom_site_fract_y
  _atom_site_fract_z
  _atom_site_occupancy
  Ba  Ba1       1.0  0.10500  0.75000  0.07120  1.0000
  Ba  Ba2       1.0  0.60500  0.75000  0.42900  1.0000
  Ba  Ba3       1.0  0.39500  0.25000  0.57100  1.0000
  Ba  Ba4       1.0  0.89500  0.25000  0.92900  1.0000
  Co  Co1       1.0  0.84700  0.75000  0.19200  1.0000
  Co  Co2       1.0  0.34700  0.75000  0.30800  1.0000
  Co  Co3       1.0  0.65300  0.25000  0.69200  1.0000
  Co  Co4       1.0  0.15300  0.25000  0.80800  1.0000
  O   O1        1.0  0.10300  0.25000  0.05690  1.0000
  O   O2        1.0  0.73400  0.51800  0.15700  1.0000
  O   O3        1.0  0.73400  0.98200  0.15700  1.0000
  O   O4        1.0  0.43500  0.52300  0.18300  1.0000
  O   O5        1.0  0.43500  0.97700  0.18300  1.0000
  O   O6        1.0  0.93500  0.52300  0.31700  1.0000
  O   O7        1.0  0.93500  0.97700  0.31700  1.0000
  O   O8        1.0  0.23400  0.51800  0.34300  1.0000
  O   O9        1.0  0.23400  0.98200  0.34300  1.0000
  O   O10       1.0  0.60300  0.25000  0.44300  1.0000
  O   O11       1.0  0.39700  0.75000  0.55700  1.0000
  O   O12       1.0  0.76600  0.01760  0.65700  1.0000
  O   O13       1.0  0.76600  0.48200  0.65700  1.0000
  O   O14       1.0  0.06460  0.02330  0.68300  1.0000
  O   O15       1.0  0.06460  0.47700  0.68300  1.0000
  O   O16       1.0  0.56500  0.02330  0.81700  1.0000
  O   O17       1.0  0.56500  0.47700  0.81700  1.0000
  O   O18       1.0  0.26600  0.01760  0.84300  1.0000
  O   O19       1.0  0.26600  0.48200  0.84300  1.0000
  O   O20       1.0  0.89700  0.75000  0.94300  1.0000
  Yb  Yb1       1.0  0.57600  0.25000  0.10600  1.0000
  Yb  Yb2       1.0  0.29900  0.25000  0.11700  1.0000
  Yb  Yb3       1.0  0.79900  0.25000  0.38300  1.0000
  Yb  Yb4       1.0  0.07570  0.25000  0.39400  1.0000
  Yb  Yb5       1.0  0.92400  0.75000  0.60600  1.0000
  Yb  Yb6       1.0  0.20100  0.75000  0.61700  1.0000
  Yb  Yb7       1.0  0.70100  0.75000  0.88300  1.0000
  Yb  Yb8       1.0  0.42400  0.75000  0.89400  1.0000
