data_image0
_chemical_formula_structural       Ba4Cu4Dy8O20
_chemical_formula_sum              "Ba4 Cu4 Dy8 O20"
_cell_length_a       12.1569
_cell_length_b       5.65773
_cell_length_c       7.11853
_cell_angle_alpha    90
_cell_angle_beta     90
_cell_angle_gamma    90

_space_group_name_H-M_alt    "P 1"
_space_group_IT_number       1

loop_
  _space_group_symop_operation_xyz
  'x, y, z'

loop_
  _atom_site_type_symbol
  _atom_site_label
  _atom_site_symmetry_multiplicity
  _atom_site_fract_x
  _atom_site_fract_y
  _atom_site_fract_z
  _atom_site_occupancy
  Ba  Ba1       1.0  0.09530  0.75000  0.07080  1.0000
  Ba  Ba2       1.0  0.59500  0.75000  0.42900  1.0000
  Ba  Ba3       1.0  0.40500  0.25000  0.57100  1.0000
  Ba  Ba4       1.0  0.90500  0.25000  0.92900  1.0000
  Cu  Cu1       1.0  0.84000  0.75000  0.21200  1.0000
  Cu  Cu2       1.0  0.34000  0.75000  0.28800  1.0000
  Cu  Cu3       1.0  0.66000  0.25000  0.71200  1.0000
  Cu  Cu4       1.0  0.16000  0.25000  0.78800  1.0000
  Dy  Dy1       1.0  0.57400  0.25000  0.10300  1.0000
  Dy  Dy2       1.0  0.28900  0.25000  0.11600  1.0000
  Dy  Dy3       1.0  0.78900  0.25000  0.38400  1.0000
  Dy  Dy4       1.0  0.07420  0.25000  0.39700  1.0000
  Dy  Dy5       1.0  0.92600  0.75000  0.60300  1.0000
  Dy  Dy6       1.0  0.21100  0.75000  0.61600  1.0000
  Dy  Dy7       1.0  0.71100  0.75000  0.88400  1.0000
  Dy  Dy8       1.0  0.42600  0.75000  0.89700  1.0000
  O   O1        1.0  0.10100  0.25000  0.08200  1.0000
  O   O2        1.0  0.72800  0.50400  0.14300  1.0000
  O   O3        1.0  0.72800  0.99600  0.14300  1.0000
  O   O4        1.0  0.43300  0.50700  0.16600  1.0000
  O   O5        1.0  0.43300  0.99300  0.16600  1.0000
  O   O6        1.0  0.93300  0.50700  0.33400  1.0000
  O   O7        1.0  0.93300  0.99300  0.33400  1.0000
  O   O8        1.0  0.22800  0.50400  0.35700  1.0000
  O   O9        1.0  0.22800  0.99600  0.35700  1.0000
  O   O10       1.0  0.60100  0.25000  0.41800  1.0000
  O   O11       1.0  0.39900  0.75000  0.58200  1.0000
  O   O12       1.0  0.77200  0.00396  0.64300  1.0000
  O   O13       1.0  0.77200  0.49600  0.64300  1.0000
  O   O14       1.0  0.06680  0.00694  0.66600  1.0000
  O   O15       1.0  0.06680  0.49300  0.66600  1.0000
  O   O16       1.0  0.56700  0.00694  0.83400  1.0000
  O   O17       1.0  0.56700  0.49300  0.83400  1.0000
  O   O18       1.0  0.27200  0.00396  0.85700  1.0000
  O   O19       1.0  0.27200  0.49600  0.85700  1.0000
  O   O20       1.0  0.89900  0.75000  0.91800  1.0000
