data_image0
_chemical_formula_structural       Al8N16Sr12
_chemical_formula_sum              "Al8 N16 Sr12"
_cell_length_a       5.91274
_cell_length_b       10.0066
_cell_length_c       9.54355
_cell_angle_alpha    90
_cell_angle_beta     90
_cell_angle_gamma    90

_space_group_name_H-M_alt    "P 1"
_space_group_IT_number       1

loop_
  _space_group_symop_operation_xyz
  'x, y, z'

loop_
  _atom_site_type_symbol
  _atom_site_label
  _atom_site_symmetry_multiplicity
  _atom_site_fract_x
  _atom_site_fract_y
  _atom_site_fract_z
  _atom_site_occupancy
  Al  Al1       1.0  0.25000  0.00000  0.23000  1.0000
  Al  Al2       1.0  0.16900  0.25000  0.25000  1.0000
  Al  Al3       1.0  0.33100  0.75000  0.25000  1.0000
  Al  Al4       1.0  0.25000  0.50000  0.27000  1.0000
  Al  Al5       1.0  0.75000  0.50000  0.73000  1.0000
  Al  Al6       1.0  0.66900  0.25000  0.75000  1.0000
  Al  Al7       1.0  0.83100  0.75000  0.75000  1.0000
  Al  Al8       1.0  0.75000  0.00000  0.77000  1.0000
  N   N1        1.0  0.36900  0.14600  0.12800  1.0000
  N   N2        1.0  0.13100  0.85400  0.12800  1.0000
  N   N3        1.0  0.01890  0.40300  0.17000  1.0000
  N   N4        1.0  0.48100  0.59700  0.17000  1.0000
  N   N5        1.0  0.01890  0.09730  0.33000  1.0000
  N   N6        1.0  0.48100  0.90300  0.33000  1.0000
  N   N7        1.0  0.36900  0.35400  0.37200  1.0000
  N   N8        1.0  0.13100  0.64600  0.37200  1.0000
  N   N9        1.0  0.86900  0.35400  0.62800  1.0000
  N   N10       1.0  0.63100  0.64600  0.62800  1.0000
  N   N11       1.0  0.51900  0.09730  0.67000  1.0000
  N   N12       1.0  0.98100  0.90300  0.67000  1.0000
  N   N13       1.0  0.51900  0.40300  0.83000  1.0000
  N   N14       1.0  0.98100  0.59700  0.83000  1.0000
  N   N15       1.0  0.86900  0.14600  0.87200  1.0000
  N   N16       1.0  0.63100  0.85400  0.87200  1.0000
  Sr  Sr1       1.0  0.61700  0.34500  0.08510  1.0000
  Sr  Sr2       1.0  0.88300  0.65500  0.08510  1.0000
  Sr  Sr3       1.0  0.75000  0.00000  0.09490  1.0000
  Sr  Sr4       1.0  0.75000  0.50000  0.40500  1.0000
  Sr  Sr5       1.0  0.61700  0.15500  0.41500  1.0000
  Sr  Sr6       1.0  0.88300  0.84500  0.41500  1.0000
  Sr  Sr7       1.0  0.11700  0.15500  0.58500  1.0000
  Sr  Sr8       1.0  0.38300  0.84500  0.58500  1.0000
  Sr  Sr9       1.0  0.25000  0.50000  0.59500  1.0000
  Sr  Sr10      1.0  0.25000  0.00000  0.90500  1.0000
  Sr  Sr11      1.0  0.11700  0.34500  0.91500  1.0000
  Sr  Sr12      1.0  0.38300  0.65500  0.91500  1.0000
