data_image0
_chemical_formula_structural       Cl20K8O4Re4
_chemical_formula_sum              "Cl20 K8 O4 Re4"
_cell_length_a       13.3428
_cell_length_b       10.0331
_cell_length_c       6.86635
_cell_angle_alpha    90
_cell_angle_beta     90
_cell_angle_gamma    90

_space_group_name_H-M_alt    "P 1"
_space_group_IT_number       1

loop_
  _space_group_symop_operation_xyz
  'x, y, z'

loop_
  _atom_site_type_symbol
  _atom_site_label
  _atom_site_symmetry_multiplicity
  _atom_site_fract_x
  _atom_site_fract_y
  _atom_site_fract_z
  _atom_site_occupancy
  Cl  Cl1       1.0  0.50200  0.25000  0.02700  1.0000
  Cl  Cl2       1.0  0.77600  0.75000  0.07050  1.0000
  Cl  Cl3       1.0  0.74600  0.25000  0.09610  1.0000
  Cl  Cl4       1.0  0.11000  0.01230  0.19400  1.0000
  Cl  Cl5       1.0  0.11000  0.48800  0.19400  1.0000
  Cl  Cl6       1.0  0.61000  0.01230  0.30600  1.0000
  Cl  Cl7       1.0  0.61000  0.48800  0.30600  1.0000
  Cl  Cl8       1.0  0.24600  0.25000  0.40400  1.0000
  Cl  Cl9       1.0  0.27600  0.75000  0.43000  1.0000
  Cl  Cl10      1.0  0.00249  0.25000  0.47300  1.0000
  Cl  Cl11      1.0  0.99800  0.75000  0.52700  1.0000
  Cl  Cl12      1.0  0.72400  0.25000  0.57000  1.0000
  Cl  Cl13      1.0  0.75400  0.75000  0.59600  1.0000
  Cl  Cl14      1.0  0.39000  0.51200  0.69400  1.0000
  Cl  Cl15      1.0  0.39000  0.98800  0.69400  1.0000
  Cl  Cl16      1.0  0.89000  0.51200  0.80600  1.0000
  Cl  Cl17      1.0  0.89000  0.98800  0.80600  1.0000
  Cl  Cl18      1.0  0.25400  0.75000  0.90400  1.0000
  Cl  Cl19      1.0  0.22400  0.25000  0.93000  1.0000
  Cl  Cl20      1.0  0.49800  0.75000  0.97300  1.0000
  K   K1        1.0  0.36100  0.00116  0.18000  1.0000
  K   K2        1.0  0.36100  0.49900  0.18000  1.0000
  K   K3        1.0  0.86100  0.00116  0.32000  1.0000
  K   K4        1.0  0.86100  0.49900  0.32000  1.0000
  K   K5        1.0  0.13900  0.50100  0.68000  1.0000
  K   K6        1.0  0.13900  0.99900  0.68000  1.0000
  K   K7        1.0  0.63900  0.50100  0.82000  1.0000
  K   K8        1.0  0.63900  0.99900  0.82000  1.0000
  O   O1        1.0  0.99800  0.25000  0.02460  1.0000
  O   O2        1.0  0.49800  0.25000  0.47500  1.0000
  O   O3        1.0  0.50200  0.75000  0.52500  1.0000
  O   O4        1.0  0.00220  0.75000  0.97500  1.0000
  Re  Re1       1.0  0.09800  0.25000  0.17700  1.0000
  Re  Re2       1.0  0.59800  0.25000  0.32300  1.0000
  Re  Re3       1.0  0.40200  0.75000  0.67700  1.0000
  Re  Re4       1.0  0.90200  0.75000  0.82300  1.0000
