data_image0
_chemical_formula_structural       O24P6Rh6
_chemical_formula_sum              "O24 P6 Rh6"
_cell_length_a       6.39943
_cell_length_b       8.95695
_cell_length_c       8.95695
_cell_angle_alpha    94.3443
_cell_angle_beta     110.93
_cell_angle_gamma    110.93

_space_group_name_H-M_alt    "P 1"
_space_group_IT_number       1

loop_
  _space_group_symop_operation_xyz
  'x, y, z'

loop_
  _atom_site_type_symbol
  _atom_site_label
  _atom_site_symmetry_multiplicity
  _atom_site_fract_x
  _atom_site_fract_y
  _atom_site_fract_z
  _atom_site_occupancy
  O   O1        1.0  0.66200  0.36400  0.08150  1.0000
  O   O2        1.0  0.10800  0.62900  0.12900  1.0000
  O   O3        1.0  0.90800  0.14200  0.12900  1.0000
  O   O4        1.0  0.33800  0.41800  0.13600  1.0000
  O   O5        1.0  0.36300  0.12900  0.14200  1.0000
  O   O6        1.0  0.94400  0.84600  0.15400  1.0000
  O   O7        1.0  0.94400  0.65400  0.34600  1.0000
  O   O8        1.0  0.09190  0.37100  0.35800  1.0000
  O   O9        1.0  0.78400  0.08150  0.36400  1.0000
  O   O10       1.0  0.63700  0.35800  0.37100  1.0000
  O   O11       1.0  0.35000  0.87100  0.37100  1.0000
  O   O12       1.0  0.21600  0.13600  0.41800  1.0000
  O   O13       1.0  0.78400  0.86400  0.58200  1.0000
  O   O14       1.0  0.65000  0.12900  0.62900  1.0000
  O   O15       1.0  0.36300  0.64200  0.62900  1.0000
  O   O16       1.0  0.21600  0.91800  0.63600  1.0000
  O   O17       1.0  0.90800  0.62900  0.64200  1.0000
  O   O18       1.0  0.05600  0.34600  0.65400  1.0000
  O   O19       1.0  0.05600  0.15400  0.84600  1.0000
  O   O20       1.0  0.63700  0.87100  0.85800  1.0000
  O   O21       1.0  0.66200  0.58200  0.86400  1.0000
  O   O22       1.0  0.09190  0.85800  0.87100  1.0000
  O   O23       1.0  0.89200  0.37100  0.87100  1.0000
  O   O24       1.0  0.33800  0.63600  0.91800  1.0000
  P   P1        1.0  0.50000  0.32700  0.17300  1.0000
  P   P2        1.0  0.07680  0.75000  0.25000  1.0000
  P   P3        1.0  0.00000  0.17300  0.32700  1.0000
  P   P4        1.0  0.00000  0.82700  0.67300  1.0000
  P   P5        1.0  0.92300  0.25000  0.75000  1.0000
  P   P6        1.0  0.50000  0.67300  0.82700  1.0000
  Rh  Rh1       1.0  0.00000  0.00000  0.00000  1.0000
  Rh  Rh2       1.0  0.00000  0.38100  0.11900  1.0000
  Rh  Rh3       1.0  0.50000  0.11900  0.38100  1.0000
  Rh  Rh4       1.0  0.00000  0.50000  0.50000  1.0000
  Rh  Rh5       1.0  0.50000  0.88100  0.61900  1.0000
  Rh  Rh6       1.0  1.00000  0.61900  0.88100  1.0000
