data_image0
_chemical_formula_structural       K2O24P6Ti4
_chemical_formula_sum              "K2 O24 P6 Ti4"
_cell_length_a       8.38564
_cell_length_b       8.38564
_cell_length_c       9.10316
_cell_angle_alpha    117.425
_cell_angle_beta     117.425
_cell_angle_gamma    60

_space_group_name_H-M_alt    "P 1"
_space_group_IT_number       1

loop_
  _space_group_symop_operation_xyz
  'x, y, z'

loop_
  _atom_site_type_symbol
  _atom_site_label
  _atom_site_symmetry_multiplicity
  _atom_site_fract_x
  _atom_site_fract_y
  _atom_site_fract_z
  _atom_site_occupancy
  K   K1        1.0  0.00000  0.00000  0.00000  1.0000
  K   K2        1.0  0.50000  0.50000  0.50000  1.0000
  O   O1        1.0  0.75400  0.48600  0.09100  1.0000
  O   O2        1.0  0.85100  0.75400  0.09100  1.0000
  O   O3        1.0  0.48600  0.85100  0.09100  1.0000
  O   O4        1.0  0.43300  0.20500  0.20600  1.0000
  O   O5        1.0  0.56800  0.43300  0.20600  1.0000
  O   O6        1.0  0.20500  0.56800  0.20600  1.0000
  O   O7        1.0  0.29500  0.06720  0.29400  1.0000
  O   O8        1.0  0.93200  0.29500  0.29400  1.0000
  O   O9        1.0  0.06720  0.93200  0.29400  1.0000
  O   O10       1.0  0.64900  0.01430  0.40900  1.0000
  O   O11       1.0  0.74600  0.64900  0.40900  1.0000
  O   O12       1.0  0.01430  0.74600  0.40900  1.0000
  O   O13       1.0  0.98600  0.25400  0.59100  1.0000
  O   O14       1.0  0.25400  0.35100  0.59100  1.0000
  O   O15       1.0  0.35100  0.98600  0.59100  1.0000
  O   O16       1.0  0.93300  0.06850  0.70600  1.0000
  O   O17       1.0  0.06850  0.70500  0.70600  1.0000
  O   O18       1.0  0.70500  0.93300  0.70600  1.0000
  O   O19       1.0  0.79500  0.43200  0.79400  1.0000
  O   O20       1.0  0.43200  0.56700  0.79400  1.0000
  O   O21       1.0  0.56700  0.79500  0.79400  1.0000
  O   O22       1.0  0.51400  0.14900  0.90900  1.0000
  O   O23       1.0  0.14900  0.24600  0.90900  1.0000
  O   O24       1.0  0.24600  0.51400  0.90900  1.0000
  P   P1        1.0  0.46800  0.03170  0.25000  1.0000
  P   P2        1.0  0.75000  0.46800  0.25000  1.0000
  P   P3        1.0  0.03170  0.75000  0.25000  1.0000
  P   P4        1.0  0.96800  0.25000  0.75000  1.0000
  P   P5        1.0  0.25000  0.53200  0.75000  1.0000
  P   P6        1.0  0.53200  0.96800  0.75000  1.0000
  Ti  Ti1       1.0  0.35100  0.35100  0.05250  1.0000
  Ti  Ti2       1.0  0.14900  0.14900  0.44700  1.0000
  Ti  Ti3       1.0  0.85100  0.85100  0.55300  1.0000
  Ti  Ti4       1.0  0.64900  0.64900  0.94700  1.0000
