data_image0
_chemical_formula_structural       Cs20P12Si4
_chemical_formula_sum              "Cs20 P12 Si4"
_cell_length_a       14.2917
_cell_length_b       6.00104
_cell_length_c       15.8958
_cell_angle_alpha    90
_cell_angle_beta     90
_cell_angle_gamma    90

_space_group_name_H-M_alt    "P 1"
_space_group_IT_number       1

loop_
  _space_group_symop_operation_xyz
  'x, y, z'

loop_
  _atom_site_type_symbol
  _atom_site_label
  _atom_site_symmetry_multiplicity
  _atom_site_fract_x
  _atom_site_fract_y
  _atom_site_fract_z
  _atom_site_occupancy
  Cs  Cs1       1.0  0.65000  0.75000  0.04620  1.0000
  Cs  Cs2       1.0  0.06090  0.25000  0.04980  1.0000
  Cs  Cs3       1.0  0.54400  0.25000  0.14300  1.0000
  Cs  Cs4       1.0  0.88700  0.75000  0.18800  1.0000
  Cs  Cs5       1.0  0.27100  0.25000  0.20800  1.0000
  Cs  Cs6       1.0  0.77100  0.25000  0.29200  1.0000
  Cs  Cs7       1.0  0.38700  0.75000  0.31200  1.0000
  Cs  Cs8       1.0  0.04400  0.25000  0.35700  1.0000
  Cs  Cs9       1.0  0.56100  0.25000  0.45000  1.0000
  Cs  Cs10      1.0  0.15000  0.75000  0.45400  1.0000
  Cs  Cs11      1.0  0.85000  0.25000  0.54600  1.0000
  Cs  Cs12      1.0  0.43900  0.75000  0.55000  1.0000
  Cs  Cs13      1.0  0.95600  0.75000  0.64300  1.0000
  Cs  Cs14      1.0  0.61300  0.25000  0.68800  1.0000
  Cs  Cs15      1.0  0.22900  0.75000  0.70800  1.0000
  Cs  Cs16      1.0  0.72900  0.75000  0.79200  1.0000
  Cs  Cs17      1.0  0.11300  0.25000  0.81200  1.0000
  Cs  Cs18      1.0  0.45600  0.75000  0.85700  1.0000
  Cs  Cs19      1.0  0.93900  0.75000  0.95000  1.0000
  Cs  Cs20      1.0  0.35000  0.25000  0.95400  1.0000
  P   P1        1.0  0.80400  0.25000  0.07050  1.0000
  P   P2        1.0  0.39300  0.75000  0.08730  1.0000
  P   P3        1.0  0.13700  0.75000  0.16600  1.0000
  P   P4        1.0  0.63700  0.75000  0.33400  1.0000
  P   P5        1.0  0.89300  0.75000  0.41300  1.0000
  P   P6        1.0  0.30400  0.25000  0.42900  1.0000
  P   P7        1.0  0.69600  0.75000  0.57100  1.0000
  P   P8        1.0  0.10700  0.25000  0.58700  1.0000
  P   P9        1.0  0.36300  0.25000  0.66600  1.0000
  P   P10       1.0  0.86300  0.25000  0.83400  1.0000
  P   P11       1.0  0.60700  0.25000  0.91300  1.0000
  P   P12       1.0  0.19600  0.75000  0.92900  1.0000
  Si  Si1       1.0  0.24000  0.75000  0.06270  1.0000
  Si  Si2       1.0  0.74000  0.75000  0.43700  1.0000
  Si  Si3       1.0  0.26000  0.25000  0.56300  1.0000
  Si  Si4       1.0  0.76000  0.25000  0.93700  1.0000
