data_image0
_chemical_formula_structural       Ba2Mo4O24P6
_chemical_formula_sum              "Ba2 Mo4 O24 P6"
_cell_length_a       8.51716
_cell_length_b       8.51716
_cell_length_c       9.38913
_cell_angle_alpha    116.973
_cell_angle_beta     90
_cell_angle_gamma    60

_space_group_name_H-M_alt    "P 1"
_space_group_IT_number       1

loop_
  _space_group_symop_operation_xyz
  'x, y, z'

loop_
  _atom_site_type_symbol
  _atom_site_label
  _atom_site_symmetry_multiplicity
  _atom_site_fract_x
  _atom_site_fract_y
  _atom_site_fract_z
  _atom_site_occupancy
  Ba  Ba1       1.0  0.00000  0.00000  0.00000  1.0000
  Ba  Ba2       1.0  0.50000  0.00000  0.50000  1.0000
  Mo  Mo1       1.0  0.65100  0.69900  0.04820  1.0000
  Mo  Mo2       1.0  0.84900  0.30100  0.45200  1.0000
  Mo  Mo3       1.0  0.15100  0.69900  0.54800  1.0000
  Mo  Mo4       1.0  0.34900  0.30100  0.95200  1.0000
  O   O1        1.0  0.24700  0.23200  0.09360  1.0000
  O   O2        1.0  0.52100  0.34100  0.09360  1.0000
  O   O3        1.0  0.13800  0.61500  0.09360  1.0000
  O   O4        1.0  0.42800  0.00527  0.21500  1.0000
  O   O5        1.0  0.56700  0.64300  0.21500  1.0000
  O   O6        1.0  0.79000  0.78200  0.21500  1.0000
  O   O7        1.0  0.93300  0.99500  0.28500  1.0000
  O   O8        1.0  0.07220  0.21800  0.28500  1.0000
  O   O9        1.0  0.71000  0.35700  0.28500  1.0000
  O   O10       1.0  0.25300  0.38500  0.40600  1.0000
  O   O11       1.0  0.36200  0.65900  0.40600  1.0000
  O   O12       1.0  0.97900  0.76800  0.40600  1.0000
  O   O13       1.0  0.02090  0.23200  0.59400  1.0000
  O   O14       1.0  0.63800  0.34100  0.59400  1.0000
  O   O15       1.0  0.74700  0.61500  0.59400  1.0000
  O   O16       1.0  0.06690  0.00527  0.71500  1.0000
  O   O17       1.0  0.29000  0.64300  0.71500  1.0000
  O   O18       1.0  0.92800  0.78200  0.71500  1.0000
  O   O19       1.0  0.57200  0.99500  0.78500  1.0000
  O   O20       1.0  0.21000  0.21800  0.78500  1.0000
  O   O21       1.0  0.43300  0.35700  0.78500  1.0000
  O   O22       1.0  0.86200  0.38500  0.90600  1.0000
  O   O23       1.0  0.47900  0.65900  0.90600  1.0000
  O   O24       1.0  0.75300  0.76800  0.90600  1.0000
  P   P1        1.0  0.25000  0.21500  0.25000  1.0000
  P   P2        1.0  0.53500  0.50000  0.25000  1.0000
  P   P3        1.0  0.96500  0.78500  0.25000  1.0000
  P   P4        1.0  0.03460  0.21500  0.75000  1.0000
  P   P5        1.0  0.46500  0.50000  0.75000  1.0000
  P   P6        1.0  0.75000  0.78500  0.75000  1.0000
