data_image0
_chemical_formula_structural       O24P4Sr4V4
_chemical_formula_sum              "O24 P4 Sr4 V4"
_cell_length_a       5.3825
_cell_length_b       9.82378
_cell_length_c       8.4873
_cell_angle_alpha    90
_cell_angle_beta     91.1511
_cell_angle_gamma    90

_space_group_name_H-M_alt    "P 1"
_space_group_IT_number       1

loop_
  _space_group_symop_operation_xyz
  'x, y, z'

loop_
  _atom_site_type_symbol
  _atom_site_label
  _atom_site_symmetry_multiplicity
  _atom_site_fract_x
  _atom_site_fract_y
  _atom_site_fract_z
  _atom_site_occupancy
  O   O1        1.0  0.68900  0.92300  0.02970  1.0000
  O   O2        1.0  0.89100  0.41900  0.11400  1.0000
  O   O3        1.0  0.24800  0.83700  0.11700  1.0000
  O   O4        1.0  0.49000  0.27900  0.14400  1.0000
  O   O5        1.0  0.92600  0.13300  0.17300  1.0000
  O   O6        1.0  0.52300  0.52700  0.22500  1.0000
  O   O7        1.0  0.47700  0.02750  0.27500  1.0000
  O   O8        1.0  0.07390  0.63300  0.32700  1.0000
  O   O9        1.0  0.51000  0.77900  0.35600  1.0000
  O   O10       1.0  0.75200  0.33700  0.38300  1.0000
  O   O11       1.0  0.10900  0.91900  0.38600  1.0000
  O   O12       1.0  0.31100  0.42300  0.47000  1.0000
  O   O13       1.0  0.68900  0.57700  0.53000  1.0000
  O   O14       1.0  0.89100  0.08120  0.61400  1.0000
  O   O15       1.0  0.24800  0.66300  0.61700  1.0000
  O   O16       1.0  0.49000  0.22100  0.64400  1.0000
  O   O17       1.0  0.92600  0.36700  0.67300  1.0000
  O   O18       1.0  0.52300  0.97300  0.72500  1.0000
  O   O19       1.0  0.47700  0.47300  0.77500  1.0000
  O   O20       1.0  0.07390  0.86700  0.82700  1.0000
  O   O21       1.0  0.51000  0.72100  0.85600  1.0000
  O   O22       1.0  0.75200  0.16300  0.88300  1.0000
  O   O23       1.0  0.10900  0.58100  0.88600  1.0000
  O   O24       1.0  0.31100  0.07680  0.97000  1.0000
  P   P1        1.0  0.66900  0.38900  0.21500  1.0000
  P   P2        1.0  0.33100  0.88900  0.28500  1.0000
  P   P3        1.0  0.66900  0.11100  0.71500  1.0000
  P   P4        1.0  0.33100  0.61100  0.78500  1.0000
  Sr  Sr1       1.0  0.84400  0.68700  0.07770  1.0000
  Sr  Sr2       1.0  0.15600  0.18700  0.42200  1.0000
  Sr  Sr3       1.0  0.84400  0.81300  0.57800  1.0000
  Sr  Sr4       1.0  0.15600  0.31300  0.92200  1.0000
  V   V1        1.0  0.65900  0.08950  0.08930  1.0000
  V   V2        1.0  0.34100  0.59000  0.41100  1.0000
  V   V3        1.0  0.65900  0.41000  0.58900  1.0000
  V   V4        1.0  0.34100  0.91000  0.91100  1.0000
