data_image0
_chemical_formula_structural       O25P6Si5
_chemical_formula_sum              "O25 P6 Si5"
_cell_length_a       7.81692
_cell_length_b       7.81692
_cell_length_c       9.19428
_cell_angle_alpha    64.8432
_cell_angle_beta     115.157
_cell_angle_gamma    120

_space_group_name_H-M_alt    "P 1"
_space_group_IT_number       1

loop_
  _space_group_symop_operation_xyz
  'x, y, z'

loop_
  _atom_site_type_symbol
  _atom_site_label
  _atom_site_symmetry_multiplicity
  _atom_site_fract_x
  _atom_site_fract_y
  _atom_site_fract_z
  _atom_site_occupancy
  O   O1        1.0  0.25400  0.03430  0.12000  1.0000
  O   O2        1.0  0.96600  0.09940  0.12000  1.0000
  O   O3        1.0  0.90100  0.74600  0.12000  1.0000
  O   O4        1.0  0.20200  0.41300  0.22400  1.0000
  O   O5        1.0  0.58700  0.56500  0.22400  1.0000
  O   O6        1.0  0.43500  0.79800  0.22400  1.0000
  O   O7        1.0  0.57200  0.09990  0.33600  1.0000
  O   O8        1.0  0.90000  0.13600  0.33600  1.0000
  O   O9        1.0  0.86400  0.42800  0.33600  1.0000
  O   O10       1.0  0.22500  0.08050  0.40900  1.0000
  O   O11       1.0  0.92000  0.73600  0.40900  1.0000
  O   O12       1.0  0.26400  0.77500  0.40900  1.0000
  O   O13       1.0  0.50000  0.50000  0.50000  1.0000
  O   O14       1.0  0.73600  0.22500  0.59100  1.0000
  O   O15       1.0  0.08050  0.26400  0.59100  1.0000
  O   O16       1.0  0.77500  0.92000  0.59100  1.0000
  O   O17       1.0  0.13600  0.57200  0.66400  1.0000
  O   O18       1.0  0.09990  0.86400  0.66400  1.0000
  O   O19       1.0  0.42800  0.90000  0.66400  1.0000
  O   O20       1.0  0.56500  0.20200  0.77600  1.0000
  O   O21       1.0  0.41300  0.43500  0.77600  1.0000
  O   O22       1.0  0.79800  0.58700  0.77600  1.0000
  O   O23       1.0  0.09940  0.25400  0.88000  1.0000
  O   O24       1.0  0.03430  0.90100  0.88000  1.0000
  O   O25       1.0  0.74600  0.96600  0.88000  1.0000
  P   P1        1.0  0.07070  0.17500  0.27500  1.0000
  P   P2        1.0  0.82500  0.62100  0.27500  1.0000
  P   P3        1.0  0.37900  0.92900  0.27500  1.0000
  P   P4        1.0  0.62100  0.07070  0.72500  1.0000
  P   P5        1.0  0.17500  0.37900  0.72500  1.0000
  P   P6        1.0  0.92900  0.82500  0.72500  1.0000
  Si  Si1       1.0  0.00000  0.00000  0.00000  1.0000
  Si  Si2       1.0  0.43300  0.56700  0.29900  1.0000
  Si  Si3       1.0  0.82100  0.17900  0.46300  1.0000
  Si  Si4       1.0  0.17900  0.82100  0.53700  1.0000
  Si  Si5       1.0  0.56700  0.43300  0.70100  1.0000
