data_image0
_chemical_formula_structural       Cs2La2O24P8
_chemical_formula_sum              "Cs2 La2 O24 P8"
_cell_length_a       7.16958
_cell_length_b       9.18419
_cell_length_c       8.74046
_cell_angle_alpha    90
_cell_angle_beta     99.2334
_cell_angle_gamma    90

_space_group_name_H-M_alt    "P 1"
_space_group_IT_number       1

loop_
  _space_group_symop_operation_xyz
  'x, y, z'

loop_
  _atom_site_type_symbol
  _atom_site_label
  _atom_site_symmetry_multiplicity
  _atom_site_fract_x
  _atom_site_fract_y
  _atom_site_fract_z
  _atom_site_occupancy
  Cs  Cs1       1.0  0.66300  0.56100  0.16800  1.0000
  Cs  Cs2       1.0  0.33700  0.06130  0.83200  1.0000
  La  La1       1.0  0.20000  0.90300  0.30700  1.0000
  La  La2       1.0  0.80000  0.40300  0.69300  1.0000
  O   O1        1.0  0.07720  0.06420  0.08660  1.0000
  O   O2        1.0  0.14100  0.73500  0.09230  1.0000
  O   O3        1.0  0.72500  0.10000  0.10900  1.0000
  O   O4        1.0  0.48700  0.93000  0.17800  1.0000
  O   O5        1.0  0.95700  0.30200  0.18600  1.0000
  O   O6        1.0  0.84000  0.85700  0.23100  1.0000
  O   O7        1.0  0.20300  0.43500  0.34500  1.0000
  O   O8        1.0  0.36400  0.67300  0.37200  1.0000
  O   O9        1.0  0.72300  0.05800  0.38800  1.0000
  O   O10       1.0  0.16600  0.16200  0.40300  1.0000
  O   O11       1.0  0.92100  0.35400  0.45900  1.0000
  O   O12       1.0  0.53900  0.44500  0.48300  1.0000
  O   O13       1.0  0.46100  0.94500  0.51700  1.0000
  O   O14       1.0  0.07870  0.85400  0.54100  1.0000
  O   O15       1.0  0.83400  0.66200  0.59700  1.0000
  O   O16       1.0  0.27700  0.55800  0.61200  1.0000
  O   O17       1.0  0.63600  0.17300  0.62800  1.0000
  O   O18       1.0  0.79700  0.93500  0.65500  1.0000
  O   O19       1.0  0.16000  0.35700  0.76900  1.0000
  O   O20       1.0  0.04300  0.80200  0.81400  1.0000
  O   O21       1.0  0.51300  0.43000  0.82200  1.0000
  O   O22       1.0  0.27500  0.60000  0.89100  1.0000
  O   O23       1.0  0.85900  0.23500  0.90800  1.0000
  O   O24       1.0  0.92300  0.56400  0.91300  1.0000
  P   P1        1.0  0.91800  0.17100  0.06290  1.0000
  P   P2        1.0  0.69000  0.97100  0.22500  1.0000
  P   P3        1.0  0.06360  0.30200  0.36400  1.0000
  P   P4        1.0  0.36000  0.53100  0.45300  1.0000
  P   P5        1.0  0.64000  0.03080  0.54700  1.0000
  P   P6        1.0  0.93600  0.80200  0.63600  1.0000
  P   P7        1.0  0.31000  0.47100  0.77500  1.0000
  P   P8        1.0  0.08240  0.67100  0.93700  1.0000
