data_image0
_chemical_formula_structural       Br12Cd4H16N4
_chemical_formula_sum              "Br12 Cd4 H16 N4"
_cell_length_a       9.23156
_cell_length_b       4.26935
_cell_length_c       15.7456
_cell_angle_alpha    90
_cell_angle_beta     90
_cell_angle_gamma    90

_space_group_name_H-M_alt    "P 1"
_space_group_IT_number       1

loop_
  _space_group_symop_operation_xyz
  'x, y, z'

loop_
  _atom_site_type_symbol
  _atom_site_label
  _atom_site_symmetry_multiplicity
  _atom_site_fract_x
  _atom_site_fract_y
  _atom_site_fract_z
  _atom_site_occupancy
  Br  Br1       1.0  0.33700  0.75000  0.00234  1.0000
  Br  Br2       1.0  0.03190  0.25000  0.10200  1.0000
  Br  Br3       1.0  0.71300  0.75000  0.21400  1.0000
  Br  Br4       1.0  0.21300  0.75000  0.28600  1.0000
  Br  Br5       1.0  0.53200  0.25000  0.39800  1.0000
  Br  Br6       1.0  0.83700  0.75000  0.49800  1.0000
  Br  Br7       1.0  0.16300  0.25000  0.50200  1.0000
  Br  Br8       1.0  0.46800  0.75000  0.60200  1.0000
  Br  Br9       1.0  0.78700  0.25000  0.71400  1.0000
  Br  Br10      1.0  0.28700  0.25000  0.78600  1.0000
  Br  Br11      1.0  0.96800  0.75000  0.89800  1.0000
  Br  Br12      1.0  0.66300  0.25000  0.99800  1.0000
  Cd  Cd1       1.0  0.83200  0.75000  0.05910  1.0000
  Cd  Cd2       1.0  0.33200  0.75000  0.44100  1.0000
  Cd  Cd3       1.0  0.66800  0.25000  0.55900  1.0000
  Cd  Cd4       1.0  0.16800  0.25000  0.94100  1.0000
  H   H1        1.0  0.48800  0.25000  0.11300  1.0000
  H   H2        1.0  0.32200  0.25000  0.16300  1.0000
  H   H3        1.0  0.46300  0.05500  0.20600  1.0000
  H   H4        1.0  0.46300  0.44500  0.20600  1.0000
  H   H5        1.0  0.96300  0.05500  0.29400  1.0000
  H   H6        1.0  0.96300  0.44500  0.29400  1.0000
  H   H7        1.0  0.82200  0.25000  0.33700  1.0000
  H   H8        1.0  0.98800  0.25000  0.38700  1.0000
  H   H9        1.0  0.01200  0.75000  0.61300  1.0000
  H   H10       1.0  0.17800  0.75000  0.66300  1.0000
  H   H11       1.0  0.03660  0.55500  0.70600  1.0000
  H   H12       1.0  0.03660  0.94500  0.70600  1.0000
  H   H13       1.0  0.53700  0.55500  0.79400  1.0000
  H   H14       1.0  0.53700  0.94500  0.79400  1.0000
  H   H15       1.0  0.67800  0.75000  0.83700  1.0000
  H   H16       1.0  0.51200  0.75000  0.88700  1.0000
  N   N1        1.0  0.43300  0.25000  0.17100  1.0000
  N   N2        1.0  0.93300  0.25000  0.32900  1.0000
  N   N3        1.0  0.06730  0.75000  0.67100  1.0000
  N   N4        1.0  0.56700  0.75000  0.82900  1.0000
