data_image0
_chemical_formula_structural       La8Mo4O24
_chemical_formula_sum              "La8 Mo4 O24"
_cell_length_a       16.4319
_cell_length_b       16.4319
_cell_length_c       16.4319
_cell_angle_alpha    160.12
_cell_angle_beta     160.12
_cell_angle_gamma    28.2592

_space_group_name_H-M_alt    "P 1"
_space_group_IT_number       1

loop_
  _space_group_symop_operation_xyz
  'x, y, z'

loop_
  _atom_site_type_symbol
  _atom_site_label
  _atom_site_symmetry_multiplicity
  _atom_site_fract_x
  _atom_site_fract_y
  _atom_site_fract_z
  _atom_site_occupancy
  La  La1       1.0  0.41400  0.91400  0.50000  1.0000
  La  La2       1.0  0.58600  0.08610  0.50000  1.0000
  La  La3       1.0  0.91400  0.41400  0.50000  1.0000
  La  La4       1.0  0.08610  0.58600  0.50000  1.0000
  La  La5       1.0  0.66400  0.66400  0.00000  1.0000
  La  La6       1.0  0.83600  0.83600  0.00000  1.0000
  La  La7       1.0  0.16400  0.16400  0.00000  1.0000
  La  La8       1.0  0.33600  0.33600  0.00000  1.0000
  Mo  Mo1       1.0  0.75000  0.25000  0.50000  1.0000
  Mo  Mo2       1.0  0.25000  0.75000  0.50000  1.0000
  Mo  Mo3       1.0  0.00000  0.00000  0.00000  1.0000
  Mo  Mo4       1.0  0.50000  0.50000  0.00000  1.0000
  O   O1        1.0  0.29100  0.29100  0.65400  1.0000
  O   O2        1.0  0.63700  0.63700  0.34600  1.0000
  O   O3        1.0  0.20900  0.20900  0.34600  1.0000
  O   O4        1.0  0.86300  0.86300  0.65400  1.0000
  O   O5        1.0  0.79100  0.13700  0.00036  1.0000
  O   O6        1.0  0.13700  0.79100  1.00000  1.0000
  O   O7        1.0  0.36300  0.70900  0.00000  1.0000
  O   O8        1.0  0.70900  0.36300  0.00036  1.0000
  O   O9        1.0  0.95900  0.45900  0.84600  1.0000
  O   O10       1.0  0.61300  0.11300  0.15400  1.0000
  O   O11       1.0  0.04100  0.54100  0.15400  1.0000
  O   O12       1.0  0.38700  0.88700  0.84600  1.0000
  O   O13       1.0  0.45900  0.61300  0.50000  1.0000
  O   O14       1.0  0.11300  0.95900  0.50000  1.0000
  O   O15       1.0  0.88700  0.04130  0.50000  1.0000
  O   O16       1.0  0.54100  0.38700  0.50000  1.0000
  O   O17       1.0  0.37500  0.37900  0.50400  1.0000
  O   O18       1.0  0.87500  0.87100  0.49600  1.0000
  O   O19       1.0  0.12100  0.12500  0.49600  1.0000
  O   O20       1.0  0.62900  0.62500  0.50400  1.0000
  O   O21       1.0  0.87500  0.37100  0.99600  1.0000
  O   O22       1.0  0.37500  0.87900  0.00418  1.0000
  O   O23       1.0  0.12900  0.62500  0.00418  1.0000
  O   O24       1.0  0.62100  0.12500  0.99600  1.0000
