data_image0
_chemical_formula_structural       B8Be4Ca4O20
_chemical_formula_sum              "B8 Be4 Ca4 O20"
_cell_length_a       5.18006
_cell_length_b       3.70833
_cell_length_c       16.9848
_cell_angle_alpha    90
_cell_angle_beta     97.9319
_cell_angle_gamma    90

_space_group_name_H-M_alt    "P 1"
_space_group_IT_number       1

loop_
  _space_group_symop_operation_xyz
  'x, y, z'

loop_
  _atom_site_type_symbol
  _atom_site_label
  _atom_site_symmetry_multiplicity
  _atom_site_fract_x
  _atom_site_fract_y
  _atom_site_fract_z
  _atom_site_occupancy
  B   B1        1.0  0.29900  0.98600  0.09480  1.0000
  B   B2        1.0  0.11500  0.27800  0.21200  1.0000
  B   B3        1.0  0.38500  0.77800  0.28800  1.0000
  B   B4        1.0  0.20100  0.48600  0.40500  1.0000
  B   B5        1.0  0.79900  0.51400  0.59500  1.0000
  B   B6        1.0  0.61500  0.22200  0.71200  1.0000
  B   B7        1.0  0.88500  0.72200  0.78800  1.0000
  B   B8        1.0  0.70100  0.01350  0.90500  1.0000
  Be  Be1       1.0  0.60500  0.26200  0.21000  1.0000
  Be  Be2       1.0  0.89500  0.76200  0.29000  1.0000
  Be  Be3       1.0  0.10500  0.23800  0.71000  1.0000
  Be  Be4       1.0  0.39500  0.73800  0.79000  1.0000
  Ca  Ca1       1.0  0.79700  0.63800  0.07230  1.0000
  Ca  Ca2       1.0  0.70300  0.13800  0.42800  1.0000
  Ca  Ca3       1.0  0.29700  0.86200  0.57200  1.0000
  Ca  Ca4       1.0  0.20300  0.36200  0.92800  1.0000
  O   O1        1.0  0.24200  0.76900  0.03050  1.0000
  O   O2        1.0  0.54800  0.09390  0.12300  1.0000
  O   O3        1.0  0.08880  0.11200  0.13200  1.0000
  O   O4        1.0  0.87600  0.47800  0.21600  1.0000
  O   O5        1.0  0.35100  0.51000  0.22200  1.0000
  O   O6        1.0  0.14900  0.00958  0.27800  1.0000
  O   O7        1.0  0.62400  0.97800  0.28400  1.0000
  O   O8        1.0  0.41100  0.61200  0.36800  1.0000
  O   O9        1.0  0.95200  0.59400  0.37700  1.0000
  O   O10       1.0  0.25800  0.26900  0.47000  1.0000
  O   O11       1.0  0.74200  0.73100  0.53000  1.0000
  O   O12       1.0  0.04780  0.40600  0.62300  1.0000
  O   O13       1.0  0.58900  0.38800  0.63200  1.0000
  O   O14       1.0  0.37600  0.02180  0.71600  1.0000
  O   O15       1.0  0.85100  0.99000  0.72200  1.0000
  O   O16       1.0  0.64900  0.49000  0.77800  1.0000
  O   O17       1.0  0.12400  0.52200  0.78400  1.0000
  O   O18       1.0  0.91100  0.88800  0.86800  1.0000
  O   O19       1.0  0.45200  0.90600  0.87700  1.0000
  O   O20       1.0  0.75800  0.23100  0.97000  1.0000
