data_image0
_chemical_formula_structural       F4H16Mo2N4O10
_chemical_formula_sum              "F4 H16 Mo2 N4 O10"
_cell_length_a       7.51944
_cell_length_b       7.20556
_cell_length_c       5.80082
_cell_angle_alpha    87.6143
_cell_angle_beta     109.134
_cell_angle_gamma    94.1584

_space_group_name_H-M_alt    "P 1"
_space_group_IT_number       1

loop_
  _space_group_symop_operation_xyz
  'x, y, z'

loop_
  _atom_site_type_symbol
  _atom_site_label
  _atom_site_symmetry_multiplicity
  _atom_site_fract_x
  _atom_site_fract_y
  _atom_site_fract_z
  _atom_site_occupancy
  F   F1        1.0  0.52500  0.30400  0.19600  1.0000
  F   F2        1.0  0.25000  0.38400  0.38200  1.0000
  F   F3        1.0  0.75000  0.61600  0.61800  1.0000
  F   F4        1.0  0.47500  0.69600  0.80400  1.0000
  H   H1        1.0  0.42500  0.69500  0.08460  1.0000
  H   H2        1.0  0.33500  0.58400  0.28900  1.0000
  H   H3        1.0  0.38800  0.82100  0.30400  1.0000
  H   H4        1.0  0.84700  0.14800  0.33600  1.0000
  H   H5        1.0  0.82700  0.37900  0.34000  1.0000
  H   H6        1.0  0.56100  0.67100  0.38200  1.0000
  H   H7        1.0  0.06860  0.73800  0.39400  1.0000
  H   H8        1.0  0.04240  0.30000  0.39700  1.0000
  H   H9        1.0  0.95800  0.70000  0.60300  1.0000
  H   H10       1.0  0.93100  0.26200  0.60600  1.0000
  H   H11       1.0  0.43900  0.32900  0.61800  1.0000
  H   H12       1.0  0.17300  0.62100  0.66000  1.0000
  H   H13       1.0  0.15300  0.85200  0.66400  1.0000
  H   H14       1.0  0.61200  0.17900  0.69600  1.0000
  H   H15       1.0  0.66500  0.41600  0.71100  1.0000
  H   H16       1.0  0.57500  0.30500  0.91500  1.0000
  Mo  Mo1       1.0  0.26100  0.19500  0.08910  1.0000
  Mo  Mo2       1.0  0.73900  0.80500  0.91100  1.0000
  N   N1        1.0  0.42600  0.69300  0.26300  1.0000
  N   N2        1.0  0.91100  0.27100  0.42000  1.0000
  N   N3        1.0  0.08930  0.72900  0.58000  1.0000
  N   N4        1.0  0.57400  0.30700  0.73700  1.0000
  O   O1        1.0  0.97200  0.68400  0.08470  1.0000
  O   O2        1.0  0.80600  0.57300  0.09930  1.0000
  O   O3        1.0  0.71900  0.95000  0.12800  1.0000
  O   O4        1.0  0.12400  0.02940  0.25500  1.0000
  O   O5        1.0  0.32800  0.02860  0.38100  1.0000
  O   O6        1.0  0.67200  0.97100  0.61900  1.0000
  O   O7        1.0  0.87600  0.97100  0.74500  1.0000
  O   O8        1.0  0.28100  0.05000  0.87200  1.0000
  O   O9        1.0  0.19400  0.42700  0.90100  1.0000
  O   O10       1.0  0.02770  0.31600  0.91500  1.0000
