data_image0
_chemical_formula_structural       Br24Ga6K6
_chemical_formula_sum              "Br24 Ga6 K6"
_cell_length_a       9.02791
_cell_length_b       13.4647
_cell_length_c       13.4647
_cell_angle_alpha    115.155
_cell_angle_beta     102.914
_cell_angle_gamma    102.914

_space_group_name_H-M_alt    "P 1"
_space_group_IT_number       1

loop_
  _space_group_symop_operation_xyz
  'x, y, z'

loop_
  _atom_site_type_symbol
  _atom_site_label
  _atom_site_symmetry_multiplicity
  _atom_site_fract_x
  _atom_site_fract_y
  _atom_site_fract_z
  _atom_site_occupancy
  Br  Br1       1.0  0.46500  0.84400  0.05910  1.0000
  Br  Br2       1.0  0.36200  0.37100  0.05980  1.0000
  Br  Br3       1.0  0.13600  0.61500  0.07350  1.0000
  Br  Br4       1.0  0.62200  0.21500  0.15600  1.0000
  Br  Br5       1.0  0.12200  0.15600  0.21500  1.0000
  Br  Br6       1.0  0.82600  0.54100  0.24800  1.0000
  Br  Br7       1.0  0.57800  0.75200  0.29300  1.0000
  Br  Br8       1.0  0.30200  0.94000  0.31200  1.0000
  Br  Br9       1.0  0.86200  0.05980  0.37100  1.0000
  Br  Br10      1.0  0.52200  0.45900  0.38500  1.0000
  Br  Br11      1.0  0.28500  0.70700  0.45900  1.0000
  Br  Br12      1.0  0.02190  0.38500  0.45900  1.0000
  Br  Br13      1.0  0.06290  0.92600  0.54100  1.0000
  Br  Br14      1.0  0.32600  0.24800  0.54100  1.0000
  Br  Br15      1.0  0.63600  0.07350  0.61500  1.0000
  Br  Br16      1.0  0.99100  0.68800  0.62900  1.0000
  Br  Br17      1.0  0.49100  0.62900  0.68800  1.0000
  Br  Br18      1.0  0.78500  0.45900  0.70700  1.0000
  Br  Br19      1.0  0.07820  0.29300  0.75200  1.0000
  Br  Br20      1.0  0.40600  0.94100  0.78500  1.0000
  Br  Br21      1.0  0.96500  0.05910  0.84400  1.0000
  Br  Br22      1.0  0.56300  0.54100  0.92600  1.0000
  Br  Br23      1.0  0.80200  0.31200  0.94000  1.0000
  Br  Br24      1.0  0.90600  0.78500  0.94100  1.0000
  Ga  Ga1       1.0  0.37300  0.78800  0.18500  1.0000
  Ga  Ga2       1.0  0.58400  0.39700  0.21200  1.0000
  Ga  Ga3       1.0  0.08450  0.21200  0.39700  1.0000
  Ga  Ga4       1.0  0.18800  0.81500  0.60300  1.0000
  Ga  Ga5       1.0  0.87300  0.18500  0.78800  1.0000
  Ga  Ga6       1.0  0.68800  0.60300  0.81500  1.0000
  K   K1        1.0  0.88300  0.78400  0.19000  1.0000
  K   K2        1.0  0.09840  0.40600  0.21600  1.0000
  K   K3        1.0  0.59800  0.21600  0.40600  1.0000
  K   K4        1.0  0.69300  0.81000  0.59400  1.0000
  K   K5        1.0  0.38300  0.19000  0.78400  1.0000
  K   K6        1.0  0.19300  0.59400  0.81000  1.0000
