data_image0
_chemical_formula_structural       Ba4O24P4V4
_chemical_formula_sum              "Ba4 O24 P4 V4"
_cell_length_a       5.57756
_cell_length_b       10.0455
_cell_length_c       8.69414
_cell_angle_alpha    90
_cell_angle_beta     90.5779
_cell_angle_gamma    90

_space_group_name_H-M_alt    "P 1"
_space_group_IT_number       1

loop_
  _space_group_symop_operation_xyz
  'x, y, z'

loop_
  _atom_site_type_symbol
  _atom_site_label
  _atom_site_symmetry_multiplicity
  _atom_site_fract_x
  _atom_site_fract_y
  _atom_site_fract_z
  _atom_site_occupancy
  Ba  Ba1       1.0  0.15700  0.68900  0.08570  1.0000
  Ba  Ba2       1.0  0.84300  0.18900  0.41400  1.0000
  Ba  Ba3       1.0  0.15700  0.81100  0.58600  1.0000
  Ba  Ba4       1.0  0.84300  0.31100  0.91400  1.0000
  O   O1        1.0  0.31000  0.93000  0.01300  1.0000
  O   O2        1.0  0.72200  0.82900  0.11500  1.0000
  O   O3        1.0  0.12100  0.41400  0.12600  1.0000
  O   O4        1.0  0.50800  0.27300  0.14900  1.0000
  O   O5        1.0  0.08810  0.13000  0.16200  1.0000
  O   O6        1.0  0.49300  0.51500  0.22900  1.0000
  O   O7        1.0  0.50700  0.01490  0.27100  1.0000
  O   O8        1.0  0.91200  0.63000  0.33800  1.0000
  O   O9        1.0  0.49200  0.77300  0.35100  1.0000
  O   O10       1.0  0.87900  0.91400  0.37400  1.0000
  O   O11       1.0  0.27800  0.32900  0.38500  1.0000
  O   O12       1.0  0.69000  0.43000  0.48700  1.0000
  O   O13       1.0  0.31000  0.57000  0.51300  1.0000
  O   O14       1.0  0.72200  0.67100  0.61500  1.0000
  O   O15       1.0  0.12100  0.08630  0.62600  1.0000
  O   O16       1.0  0.50800  0.22700  0.64900  1.0000
  O   O17       1.0  0.08810  0.37000  0.66200  1.0000
  O   O18       1.0  0.49300  0.98500  0.72900  1.0000
  O   O19       1.0  0.50700  0.48500  0.77100  1.0000
  O   O20       1.0  0.91200  0.87000  0.83800  1.0000
  O   O21       1.0  0.49200  0.72700  0.85100  1.0000
  O   O22       1.0  0.87900  0.58600  0.87400  1.0000
  O   O23       1.0  0.27800  0.17100  0.88500  1.0000
  O   O24       1.0  0.69000  0.06980  0.98700  1.0000
  P   P1        1.0  0.34400  0.38200  0.22000  1.0000
  P   P2        1.0  0.65600  0.88200  0.28000  1.0000
  P   P3        1.0  0.34400  0.11800  0.72000  1.0000
  P   P4        1.0  0.65600  0.61800  0.78000  1.0000
  V   V1        1.0  0.34700  0.08750  0.08620  1.0000
  V   V2        1.0  0.65300  0.58700  0.41400  1.0000
  V   V3        1.0  0.34700  0.41300  0.58600  1.0000
  V   V4        1.0  0.65300  0.91300  0.91400  1.0000
