data_image0
_chemical_formula_structural       Ba4Cu4O20Tm8
_chemical_formula_sum              "Ba4 Cu4 O20 Tm8"
_cell_length_a       12.0292
_cell_length_b       5.60393
_cell_length_c       7.03305
_cell_angle_alpha    90
_cell_angle_beta     90
_cell_angle_gamma    90

_space_group_name_H-M_alt    "P 1"
_space_group_IT_number       1

loop_
  _space_group_symop_operation_xyz
  'x, y, z'

loop_
  _atom_site_type_symbol
  _atom_site_label
  _atom_site_symmetry_multiplicity
  _atom_site_fract_x
  _atom_site_fract_y
  _atom_site_fract_z
  _atom_site_occupancy
  Ba  Ba1       1.0  0.09610  0.75000  0.07100  1.0000
  Ba  Ba2       1.0  0.59600  0.75000  0.42900  1.0000
  Ba  Ba3       1.0  0.40400  0.25000  0.57100  1.0000
  Ba  Ba4       1.0  0.90400  0.25000  0.92900  1.0000
  Cu  Cu1       1.0  0.84000  0.75000  0.21300  1.0000
  Cu  Cu2       1.0  0.34000  0.75000  0.28700  1.0000
  Cu  Cu3       1.0  0.66000  0.25000  0.71300  1.0000
  Cu  Cu4       1.0  0.16000  0.25000  0.78700  1.0000
  O   O1        1.0  0.10200  0.25000  0.08460  1.0000
  O   O2        1.0  0.72700  0.50200  0.14100  1.0000
  O   O3        1.0  0.72700  0.99800  0.14100  1.0000
  O   O4        1.0  0.43300  0.50400  0.16300  1.0000
  O   O5        1.0  0.43300  0.99600  0.16300  1.0000
  O   O6        1.0  0.93300  0.50400  0.33700  1.0000
  O   O7        1.0  0.93300  0.99600  0.33700  1.0000
  O   O8        1.0  0.22700  0.50200  0.35900  1.0000
  O   O9        1.0  0.22700  0.99800  0.35900  1.0000
  O   O10       1.0  0.60200  0.25000  0.41500  1.0000
  O   O11       1.0  0.39800  0.75000  0.58500  1.0000
  O   O12       1.0  0.77300  0.00233  0.64100  1.0000
  O   O13       1.0  0.77300  0.49800  0.64100  1.0000
  O   O14       1.0  0.06710  0.00433  0.66300  1.0000
  O   O15       1.0  0.06710  0.49600  0.66300  1.0000
  O   O16       1.0  0.56700  0.00433  0.83700  1.0000
  O   O17       1.0  0.56700  0.49600  0.83700  1.0000
  O   O18       1.0  0.27300  0.00233  0.85900  1.0000
  O   O19       1.0  0.27300  0.49800  0.85900  1.0000
  O   O20       1.0  0.89800  0.75000  0.91500  1.0000
  Tm  Tm1       1.0  0.57400  0.25000  0.10200  1.0000
  Tm  Tm2       1.0  0.28800  0.25000  0.11600  1.0000
  Tm  Tm3       1.0  0.78800  0.25000  0.38400  1.0000
  Tm  Tm4       1.0  0.07400  0.25000  0.39800  1.0000
  Tm  Tm5       1.0  0.92600  0.75000  0.60200  1.0000
  Tm  Tm6       1.0  0.21200  0.75000  0.61600  1.0000
  Tm  Tm7       1.0  0.71200  0.75000  0.88400  1.0000
  Tm  Tm8       1.0  0.42600  0.75000  0.89800  1.0000
