data_image0
_chemical_formula_structural       H4Ni6O20Se6
_chemical_formula_sum              "H4 Ni6 O20 Se6"
_cell_length_a       7.94887
_cell_length_b       8.01091
_cell_length_c       8.27729
_cell_angle_alpha    70.0655
_cell_angle_beta     62.6909
_cell_angle_gamma    67.8334

_space_group_name_H-M_alt    "P 1"
_space_group_IT_number       1

loop_
  _space_group_symop_operation_xyz
  'x, y, z'

loop_
  _atom_site_type_symbol
  _atom_site_label
  _atom_site_symmetry_multiplicity
  _atom_site_fract_x
  _atom_site_fract_y
  _atom_site_fract_z
  _atom_site_occupancy
  H   H1        1.0  0.95700  0.12600  0.31500  1.0000
  H   H2        1.0  0.05660  0.19600  0.40600  1.0000
  H   H3        1.0  0.94300  0.80400  0.59400  1.0000
  H   H4        1.0  0.04280  0.87400  0.68500  1.0000
  Ni  Ni1       1.0  0.00000  0.00000  0.00000  1.0000
  Ni  Ni2       1.0  0.34700  0.96200  0.20000  1.0000
  Ni  Ni3       1.0  0.71200  0.86500  0.38900  1.0000
  Ni  Ni4       1.0  0.50000  0.50000  0.50000  1.0000
  Ni  Ni5       1.0  0.28800  0.13500  0.61100  1.0000
  Ni  Ni6       1.0  0.65300  0.03850  0.80000  1.0000
  O   O1        1.0  0.59400  0.82300  0.02050  1.0000
  O   O2        1.0  0.19900  0.85700  0.11600  1.0000
  O   O3        1.0  0.87200  0.78000  0.14200  1.0000
  O   O4        1.0  0.71100  0.50000  0.23800  1.0000
  O   O5        1.0  0.79600  0.10200  0.24300  1.0000
  O   O6        1.0  0.08320  0.13100  0.30800  1.0000
  O   O7        1.0  0.46400  0.05000  0.32900  1.0000
  O   O8        1.0  0.30400  0.71200  0.39000  1.0000
  O   O9        1.0  0.44000  0.31500  0.43900  1.0000
  O   O10       1.0  0.94400  0.71600  0.45600  1.0000
  O   O11       1.0  0.05560  0.28400  0.54400  1.0000
  O   O12       1.0  0.56000  0.68500  0.56100  1.0000
  O   O13       1.0  0.69600  0.28800  0.61000  1.0000
  O   O14       1.0  0.53600  0.95000  0.67100  1.0000
  O   O15       1.0  0.91700  0.86900  0.69200  1.0000
  O   O16       1.0  0.20400  0.89800  0.75700  1.0000
  O   O17       1.0  0.28900  0.50000  0.76200  1.0000
  O   O18       1.0  0.12800  0.22000  0.85800  1.0000
  O   O19       1.0  0.80100  0.14300  0.88400  1.0000
  O   O20       1.0  0.40600  0.17700  0.98000  1.0000
  Se  Se1       1.0  0.80200  0.66000  0.05090  1.0000
  Se  Se2       1.0  0.56900  0.24000  0.23100  1.0000
  Se  Se3       1.0  0.18000  0.66100  0.29600  1.0000
  Se  Se4       1.0  0.82000  0.33900  0.70400  1.0000
  Se  Se5       1.0  0.43100  0.76000  0.76900  1.0000
  Se  Se6       1.0  0.19800  0.34000  0.94900  1.0000
