data_image0
_chemical_formula_structural       Ba4O20Tb8Zn4
_chemical_formula_sum              "Ba4 O20 Tb8 Zn4"
_cell_length_a       12.3902
_cell_length_b       5.73652
_cell_length_c       7.09762
_cell_angle_alpha    90
_cell_angle_beta     90
_cell_angle_gamma    90

_space_group_name_H-M_alt    "P 1"
_space_group_IT_number       1

loop_
  _space_group_symop_operation_xyz
  'x, y, z'

loop_
  _atom_site_type_symbol
  _atom_site_label
  _atom_site_symmetry_multiplicity
  _atom_site_fract_x
  _atom_site_fract_y
  _atom_site_fract_z
  _atom_site_occupancy
  Ba  Ba1       1.0  0.10000  0.75000  0.07660  1.0000
  Ba  Ba2       1.0  0.60000  0.75000  0.42300  1.0000
  Ba  Ba3       1.0  0.40000  0.25000  0.57700  1.0000
  Ba  Ba4       1.0  0.90000  0.25000  0.92300  1.0000
  O   O1        1.0  0.10000  0.25000  0.07400  1.0000
  O   O2        1.0  0.72400  0.50200  0.14300  1.0000
  O   O3        1.0  0.72400  0.99800  0.14300  1.0000
  O   O4        1.0  0.43500  0.50200  0.16600  1.0000
  O   O5        1.0  0.43500  0.99800  0.16600  1.0000
  O   O6        1.0  0.93500  0.50200  0.33400  1.0000
  O   O7        1.0  0.93500  0.99800  0.33400  1.0000
  O   O8        1.0  0.22400  0.50200  0.35700  1.0000
  O   O9        1.0  0.22400  0.99800  0.35700  1.0000
  O   O10       1.0  0.60000  0.25000  0.42600  1.0000
  O   O11       1.0  0.40000  0.75000  0.57400  1.0000
  O   O12       1.0  0.77600  0.00152  0.64300  1.0000
  O   O13       1.0  0.77600  0.49800  0.64300  1.0000
  O   O14       1.0  0.06520  0.00248  0.66600  1.0000
  O   O15       1.0  0.06520  0.49800  0.66600  1.0000
  O   O16       1.0  0.56500  0.00248  0.83400  1.0000
  O   O17       1.0  0.56500  0.49800  0.83400  1.0000
  O   O18       1.0  0.27600  0.00152  0.85700  1.0000
  O   O19       1.0  0.27600  0.49800  0.85700  1.0000
  O   O20       1.0  0.90000  0.75000  0.92600  1.0000
  Tb  Tb1       1.0  0.57400  0.25000  0.10000  1.0000
  Tb  Tb2       1.0  0.29200  0.25000  0.11900  1.0000
  Tb  Tb3       1.0  0.79200  0.25000  0.38100  1.0000
  Tb  Tb4       1.0  0.07440  0.25000  0.40000  1.0000
  Tb  Tb5       1.0  0.92600  0.75000  0.60000  1.0000
  Tb  Tb6       1.0  0.20800  0.75000  0.61900  1.0000
  Tb  Tb7       1.0  0.70800  0.75000  0.88100  1.0000
  Tb  Tb8       1.0  0.42600  0.75000  0.90000  1.0000
  Zn  Zn1       1.0  0.84900  0.75000  0.19200  1.0000
  Zn  Zn2       1.0  0.34900  0.75000  0.30800  1.0000
  Zn  Zn3       1.0  0.65100  0.25000  0.69200  1.0000
  Zn  Zn4       1.0  0.15100  0.25000  0.80800  1.0000
