data_image0
_chemical_formula_structural       Fe12Na4O20
_chemical_formula_sum              "Fe12 Na4 O20"
_cell_length_a       10.3698
_cell_length_b       12.3297
_cell_length_c       3.02023
_cell_angle_alpha    90
_cell_angle_beta     90
_cell_angle_gamma    90

_space_group_name_H-M_alt    "P 1"
_space_group_IT_number       1

loop_
  _space_group_symop_operation_xyz
  'x, y, z'

loop_
  _atom_site_type_symbol
  _atom_site_label
  _atom_site_symmetry_multiplicity
  _atom_site_fract_x
  _atom_site_fract_y
  _atom_site_fract_z
  _atom_site_occupancy
  Fe  Fe1       1.0  0.00000  0.00000  0.00000  1.0000
  Fe  Fe2       1.0  0.50000  0.00000  0.00000  1.0000
  Fe  Fe3       1.0  0.23300  0.36400  0.00000  1.0000
  Fe  Fe4       1.0  0.71500  0.38400  0.00000  1.0000
  Fe  Fe5       1.0  0.28500  0.61600  0.00000  1.0000
  Fe  Fe6       1.0  0.76700  0.63600  0.00000  1.0000
  Fe  Fe7       1.0  0.21500  0.11600  0.50000  1.0000
  Fe  Fe8       1.0  0.73300  0.13600  0.50000  1.0000
  Fe  Fe9       1.0  0.00000  0.50000  0.50000  1.0000
  Fe  Fe10      1.0  0.50000  0.50000  0.50000  1.0000
  Fe  Fe11      1.0  0.26700  0.86400  0.50000  1.0000
  Fe  Fe12      1.0  0.78500  0.88400  0.50000  1.0000
  Na  Na1       1.0  0.47100  0.24000  0.00000  1.0000
  Na  Na2       1.0  0.52900  0.76000  0.00000  1.0000
  Na  Na3       1.0  0.97100  0.26000  0.50000  1.0000
  Na  Na4       1.0  0.02890  0.74000  0.50000  1.0000
  O   O1        1.0  0.32900  0.07200  0.00000  1.0000
  O   O2        1.0  0.08670  0.14600  0.00000  1.0000
  O   O3        1.0  0.77700  0.22400  0.00000  1.0000
  O   O4        1.0  0.05780  0.39700  0.00000  1.0000
  O   O5        1.0  0.37500  0.46300  0.00000  1.0000
  O   O6        1.0  0.62500  0.53700  0.00000  1.0000
  O   O7        1.0  0.94200  0.60300  0.00000  1.0000
  O   O8        1.0  0.22300  0.77600  0.00000  1.0000
  O   O9        1.0  0.91300  0.85400  0.00000  1.0000
  O   O10       1.0  0.67100  0.92800  0.00000  1.0000
  O   O11       1.0  0.87500  0.03730  0.50000  1.0000
  O   O12       1.0  0.55800  0.10300  0.50000  1.0000
  O   O13       1.0  0.27700  0.27600  0.50000  1.0000
  O   O14       1.0  0.58700  0.35400  0.50000  1.0000
  O   O15       1.0  0.82900  0.42800  0.50000  1.0000
  O   O16       1.0  0.17100  0.57200  0.50000  1.0000
  O   O17       1.0  0.41300  0.64600  0.50000  1.0000
  O   O18       1.0  0.72300  0.72400  0.50000  1.0000
  O   O19       1.0  0.44200  0.89700  0.50000  1.0000
  O   O20       1.0  0.12500  0.96300  0.50000  1.0000
