data_image0
_chemical_formula_structural       Ba4Co4Ho8O20
_chemical_formula_sum              "Ba4 Co4 Ho8 O20"
_cell_length_a       12.2216
_cell_length_b       5.69393
_cell_length_c       7.02885
_cell_angle_alpha    90
_cell_angle_beta     90
_cell_angle_gamma    90

_space_group_name_H-M_alt    "P 1"
_space_group_IT_number       1

loop_
  _space_group_symop_operation_xyz
  'x, y, z'

loop_
  _atom_site_type_symbol
  _atom_site_label
  _atom_site_symmetry_multiplicity
  _atom_site_fract_x
  _atom_site_fract_y
  _atom_site_fract_z
  _atom_site_occupancy
  Ba  Ba1       1.0  0.09970  0.75000  0.07880  1.0000
  Ba  Ba2       1.0  0.60000  0.75000  0.42100  1.0000
  Ba  Ba3       1.0  0.40000  0.25000  0.57900  1.0000
  Ba  Ba4       1.0  0.90000  0.25000  0.92100  1.0000
  Co  Co1       1.0  0.84700  0.75000  0.19300  1.0000
  Co  Co2       1.0  0.34700  0.75000  0.30700  1.0000
  Co  Co3       1.0  0.65300  0.25000  0.69300  1.0000
  Co  Co4       1.0  0.15300  0.25000  0.80700  1.0000
  Ho  Ho1       1.0  0.57400  0.25000  0.09790  1.0000
  Ho  Ho2       1.0  0.29200  0.25000  0.12000  1.0000
  Ho  Ho3       1.0  0.79200  0.25000  0.38000  1.0000
  Ho  Ho4       1.0  0.07450  0.25000  0.40200  1.0000
  Ho  Ho5       1.0  0.92600  0.75000  0.59800  1.0000
  Ho  Ho6       1.0  0.20800  0.75000  0.62000  1.0000
  Ho  Ho7       1.0  0.70800  0.75000  0.88000  1.0000
  Ho  Ho8       1.0  0.42600  0.75000  0.90200  1.0000
  O   O1        1.0  0.10200  0.25000  0.07620  1.0000
  O   O2        1.0  0.72500  0.50100  0.13900  1.0000
  O   O3        1.0  0.72500  0.99900  0.13900  1.0000
  O   O4        1.0  0.43500  0.50300  0.16700  1.0000
  O   O5        1.0  0.43500  0.99700  0.16700  1.0000
  O   O6        1.0  0.93500  0.50300  0.33300  1.0000
  O   O7        1.0  0.93500  0.99700  0.33300  1.0000
  O   O8        1.0  0.22500  0.50100  0.36100  1.0000
  O   O9        1.0  0.22500  0.99900  0.36100  1.0000
  O   O10       1.0  0.60200  0.25000  0.42400  1.0000
  O   O11       1.0  0.39800  0.75000  0.57600  1.0000
  O   O12       1.0  0.77500  0.00069  0.63900  1.0000
  O   O13       1.0  0.77500  0.49900  0.63900  1.0000
  O   O14       1.0  0.06490  0.00335  0.66700  1.0000
  O   O15       1.0  0.06490  0.49700  0.66700  1.0000
  O   O16       1.0  0.56500  0.00335  0.83300  1.0000
  O   O17       1.0  0.56500  0.49700  0.83300  1.0000
  O   O18       1.0  0.27500  0.00069  0.86100  1.0000
  O   O19       1.0  0.27500  0.49900  0.86100  1.0000
  O   O20       1.0  0.89800  0.75000  0.92400  1.0000
