data_image0
_chemical_formula_structural       As6K2O24Zr4
_chemical_formula_sum              "As6 K2 O24 Zr4"
_cell_length_a       9.11203
_cell_length_b       9.11254
_cell_length_c       9.73426
_cell_angle_alpha    90.0003
_cell_angle_beta     117.905
_cell_angle_gamma    59.9952

_space_group_name_H-M_alt    "P 1"
_space_group_IT_number       1

loop_
  _space_group_symop_operation_xyz
  'x, y, z'

loop_
  _atom_site_type_symbol
  _atom_site_label
  _atom_site_symmetry_multiplicity
  _atom_site_fract_x
  _atom_site_fract_y
  _atom_site_fract_z
  _atom_site_occupancy
  As  As1       1.0  0.21500  0.53500  0.25000  1.0000
  As  As2       1.0  0.50000  0.96500  0.25000  1.0000
  As  As3       1.0  0.78500  0.25000  0.25000  1.0000
  As  As4       1.0  0.21500  0.75000  0.75000  1.0000
  As  As5       1.0  0.50000  0.03480  0.75000  1.0000
  As  As6       1.0  0.78500  0.46500  0.75000  1.0000
  K   K1        1.0  0.00000  0.00000  0.00000  1.0000
  K   K2        1.0  1.00000  0.50000  0.50000  1.0000
  O   O1        1.0  0.34000  0.14600  0.08150  1.0000
  O   O2        1.0  0.22700  0.51500  0.08150  1.0000
  O   O3        1.0  0.59600  0.25800  0.08160  1.0000
  O   O4        1.0  0.65300  0.78100  0.22100  1.0000
  O   O5        1.0  0.78600  0.43300  0.22100  1.0000
  O   O6        1.0  0.00222  0.56500  0.22100  1.0000
  O   O7        1.0  0.99800  0.06740  0.27900  1.0000
  O   O8        1.0  0.21400  0.71900  0.27900  1.0000
  O   O9        1.0  0.34700  0.93500  0.27900  1.0000
  O   O10       1.0  0.40400  0.35400  0.41800  1.0000
  O   O11       1.0  0.77300  0.24200  0.41800  1.0000
  O   O12       1.0  0.66000  0.98500  0.41800  1.0000
  O   O13       1.0  0.34000  0.01460  0.58200  1.0000
  O   O14       1.0  0.22700  0.75800  0.58200  1.0000
  O   O15       1.0  0.59600  0.64600  0.58200  1.0000
  O   O16       1.0  0.65300  0.06510  0.72100  1.0000
  O   O17       1.0  0.78600  0.28100  0.72100  1.0000
  O   O18       1.0  0.00222  0.93300  0.72100  1.0000
  O   O19       1.0  0.99800  0.43500  0.77900  1.0000
  O   O20       1.0  0.21400  0.56700  0.77900  1.0000
  O   O21       1.0  0.34700  0.21900  0.77900  1.0000
  O   O22       1.0  0.40400  0.74200  0.91800  1.0000
  O   O23       1.0  0.77300  0.48500  0.91800  1.0000
  O   O24       1.0  0.66000  0.85400  0.91800  1.0000
  Zr  Zr1       1.0  0.70500  0.64700  0.05810  1.0000
  Zr  Zr2       1.0  0.29500  0.85300  0.44200  1.0000
  Zr  Zr3       1.0  0.70500  0.14700  0.55800  1.0000
  Zr  Zr4       1.0  0.29500  0.35300  0.94200  1.0000
