data_image0
_chemical_formula_structural       O24P8Rb2Sm2
_chemical_formula_sum              "O24 P8 Rb2 Sm2"
_cell_length_a       7.38506
_cell_length_b       7.38506
_cell_length_c       10.5152
_cell_angle_alpha    101.018
_cell_angle_beta     101.018
_cell_angle_gamma    116.465

_space_group_name_H-M_alt    "P 1"
_space_group_IT_number       1

loop_
  _space_group_symop_operation_xyz
  'x, y, z'

loop_
  _atom_site_type_symbol
  _atom_site_label
  _atom_site_symmetry_multiplicity
  _atom_site_fract_x
  _atom_site_fract_y
  _atom_site_fract_z
  _atom_site_occupancy
  O   O1        1.0  0.27700  0.52900  0.06930  1.0000
  O   O2        1.0  0.86200  0.84900  0.07560  1.0000
  O   O3        1.0  0.51100  0.36800  0.09450  1.0000
  O   O4        1.0  0.82500  0.31700  0.10400  1.0000
  O   O5        1.0  0.51000  0.91200  0.10800  1.0000
  O   O6        1.0  0.20200  0.25500  0.18600  1.0000
  O   O7        1.0  0.74500  0.79800  0.31400  1.0000
  O   O8        1.0  0.08760  0.49000  0.39200  1.0000
  O   O9        1.0  0.68300  0.17500  0.39600  1.0000
  O   O10       1.0  0.63200  0.48900  0.40500  1.0000
  O   O11       1.0  0.15100  0.13800  0.42400  1.0000
  O   O12       1.0  0.47100  0.72300  0.43100  1.0000
  O   O13       1.0  0.52900  0.27700  0.56900  1.0000
  O   O14       1.0  0.84900  0.86200  0.57600  1.0000
  O   O15       1.0  0.36800  0.51100  0.59500  1.0000
  O   O16       1.0  0.31700  0.82500  0.60400  1.0000
  O   O17       1.0  0.91200  0.51000  0.60800  1.0000
  O   O18       1.0  0.25500  0.20200  0.68600  1.0000
  O   O19       1.0  0.79800  0.74500  0.81400  1.0000
  O   O20       1.0  0.49000  0.08760  0.89200  1.0000
  O   O21       1.0  0.17500  0.68300  0.89600  1.0000
  O   O22       1.0  0.48900  0.63200  0.90500  1.0000
  O   O23       1.0  0.13800  0.15100  0.92400  1.0000
  O   O24       1.0  0.72300  0.47100  0.93100  1.0000
  P   P1        1.0  0.63300  0.29300  0.00584  1.0000
  P   P2        1.0  0.26400  0.30500  0.06540  1.0000
  P   P3        1.0  0.69500  0.73600  0.43500  1.0000
  P   P4        1.0  0.70700  0.36700  0.49400  1.0000
  P   P5        1.0  0.29300  0.63300  0.50600  1.0000
  P   P6        1.0  0.30500  0.26400  0.56500  1.0000
  P   P7        1.0  0.73600  0.69500  0.93500  1.0000
  P   P8        1.0  0.36700  0.70700  0.99400  1.0000
  Rb  Rb1       1.0  0.18300  0.81700  0.25000  1.0000
  Rb  Rb2       1.0  0.81700  0.18300  0.75000  1.0000
  Sm  Sm1       1.0  0.87900  0.12100  0.25000  1.0000
  Sm  Sm2       1.0  0.12100  0.87900  0.75000  1.0000
