data_image0
_chemical_formula_structural       F4O20Pr8Sb4
_chemical_formula_sum              "F4 O20 Pr8 Sb4"
_cell_length_a       10.1361
_cell_length_b       6.99417
_cell_length_c       6.61077
_cell_angle_alpha    90
_cell_angle_beta     90
_cell_angle_gamma    93.8903

_space_group_name_H-M_alt    "P 1"
_space_group_IT_number       1

loop_
  _space_group_symop_operation_xyz
  'x, y, z'

loop_
  _atom_site_type_symbol
  _atom_site_label
  _atom_site_symmetry_multiplicity
  _atom_site_fract_x
  _atom_site_fract_y
  _atom_site_fract_z
  _atom_site_occupancy
  F   F1        1.0  0.10600  0.82600  0.22500  1.0000
  F   F2        1.0  0.39400  0.68300  0.45900  1.0000
  F   F3        1.0  0.89400  0.17400  0.72500  1.0000
  F   F4        1.0  0.60600  0.31700  0.95900  1.0000
  O   O1        1.0  0.04190  0.19100  0.07570  1.0000
  O   O2        1.0  0.53900  0.68600  0.10600  1.0000
  O   O3        1.0  0.82500  0.69800  0.18700  1.0000
  O   O4        1.0  0.23300  0.46700  0.25800  1.0000
  O   O5        1.0  0.53500  0.04820  0.27400  1.0000
  O   O6        1.0  0.81400  0.08160  0.28700  1.0000
  O   O7        1.0  0.68900  0.41200  0.38100  1.0000
  O   O8        1.0  0.96600  0.44700  0.40700  1.0000
  O   O9        1.0  0.27300  0.05380  0.41300  1.0000
  O   O10       1.0  0.67600  0.79800  0.49100  1.0000
  O   O11       1.0  0.95800  0.80900  0.57600  1.0000
  O   O12       1.0  0.46100  0.31400  0.60600  1.0000
  O   O13       1.0  0.17500  0.30200  0.68700  1.0000
  O   O14       1.0  0.76700  0.53300  0.75800  1.0000
  O   O15       1.0  0.46500  0.95200  0.77400  1.0000
  O   O16       1.0  0.18600  0.91800  0.78700  1.0000
  O   O17       1.0  0.31100  0.58800  0.88100  1.0000
  O   O18       1.0  0.03380  0.55300  0.90700  1.0000
  O   O19       1.0  0.72700  0.94600  0.91300  1.0000
  O   O20       1.0  0.32400  0.20200  0.99100  1.0000
  Pr  Pr1       1.0  0.83800  0.36800  0.05960  1.0000
  Pr  Pr2       1.0  0.33800  0.86800  0.12100  1.0000
  Pr  Pr3       1.0  0.46400  0.37200  0.25000  1.0000
  Pr  Pr4       1.0  0.03570  0.12300  0.43200  1.0000
  Pr  Pr5       1.0  0.16200  0.63200  0.56000  1.0000
  Pr  Pr6       1.0  0.66200  0.13200  0.62100  1.0000
  Pr  Pr7       1.0  0.53600  0.62800  0.75000  1.0000
  Pr  Pr8       1.0  0.96400  0.87700  0.93200  1.0000
  Sb  Sb1       1.0  0.67700  0.88600  0.19200  1.0000
  Sb  Sb2       1.0  0.82300  0.60800  0.48600  1.0000
  Sb  Sb3       1.0  0.32300  0.11400  0.69200  1.0000
  Sb  Sb4       1.0  0.17700  0.39200  0.98600  1.0000
