data_image0
_chemical_formula_structural       B10Ba4Li2O20
_chemical_formula_sum              "B10 Ba4 Li2 O20"
_cell_length_a       4.41031
_cell_length_b       14.5166
_cell_length_c       6.66054
_cell_angle_alpha    90
_cell_angle_beta     104.014
_cell_angle_gamma    90

_space_group_name_H-M_alt    "P 1"
_space_group_IT_number       1

loop_
  _space_group_symop_operation_xyz
  'x, y, z'

loop_
  _atom_site_type_symbol
  _atom_site_label
  _atom_site_symmetry_multiplicity
  _atom_site_fract_x
  _atom_site_fract_y
  _atom_site_fract_z
  _atom_site_occupancy
  B   B1        1.0  0.55800  0.16300  0.17500  1.0000
  B   B2        1.0  0.55800  0.33700  0.17500  1.0000
  B   B3        1.0  0.04660  0.07820  0.17700  1.0000
  B   B4        1.0  0.04660  0.42200  0.17700  1.0000
  B   B5        1.0  0.23000  0.75000  0.49700  1.0000
  B   B6        1.0  0.77000  0.25000  0.50300  1.0000
  B   B7        1.0  0.95300  0.57800  0.82300  1.0000
  B   B8        1.0  0.95300  0.92200  0.82300  1.0000
  B   B9        1.0  0.44200  0.66300  0.82500  1.0000
  B   B10       1.0  0.44200  0.83700  0.82500  1.0000
  Ba  Ba1       1.0  0.66600  0.59000  0.30500  1.0000
  Ba  Ba2       1.0  0.66600  0.91000  0.30500  1.0000
  Ba  Ba3       1.0  0.33400  0.09040  0.69500  1.0000
  Ba  Ba4       1.0  0.33400  0.41000  0.69500  1.0000
  Li  Li1       1.0  0.01160  0.75000  0.02180  1.0000
  Li  Li2       1.0  0.98800  0.25000  0.97800  1.0000
  O   O1        1.0  0.62100  0.25000  0.08070  1.0000
  O   O2        1.0  0.71900  0.08520  0.10100  1.0000
  O   O3        1.0  0.71900  0.41500  0.10100  1.0000
  O   O4        1.0  0.21800  0.14500  0.10400  1.0000
  O   O5        1.0  0.21800  0.35500  0.10400  1.0000
  O   O6        1.0  0.04270  0.75000  0.30500  1.0000
  O   O7        1.0  0.17000  0.01150  0.31100  1.0000
  O   O8        1.0  0.17000  0.48900  0.31100  1.0000
  O   O9        1.0  0.66700  0.16700  0.40400  1.0000
  O   O10       1.0  0.66700  0.33300  0.40400  1.0000
  O   O11       1.0  0.33300  0.66700  0.59600  1.0000
  O   O12       1.0  0.33300  0.83300  0.59600  1.0000
  O   O13       1.0  0.83000  0.51100  0.68900  1.0000
  O   O14       1.0  0.83000  0.98900  0.68900  1.0000
  O   O15       1.0  0.95700  0.25000  0.69500  1.0000
  O   O16       1.0  0.78200  0.64500  0.89600  1.0000
  O   O17       1.0  0.78200  0.85500  0.89600  1.0000
  O   O18       1.0  0.28100  0.58500  0.89900  1.0000
  O   O19       1.0  0.28100  0.91500  0.89900  1.0000
  O   O20       1.0  0.37900  0.75000  0.91900  1.0000
