data_image0
_chemical_formula_structural       Ag4H4Li2O20P6
_chemical_formula_sum              "Ag4 H4 Li2 O20 P6"
_cell_length_a       8.33996
_cell_length_b       7.55719
_cell_length_c       7.50568
_cell_angle_alpha    107.827
_cell_angle_beta     105.725
_cell_angle_gamma    72.3761

_space_group_name_H-M_alt    "P 1"
_space_group_IT_number       1

loop_
  _space_group_symop_operation_xyz
  'x, y, z'

loop_
  _atom_site_type_symbol
  _atom_site_label
  _atom_site_symmetry_multiplicity
  _atom_site_fract_x
  _atom_site_fract_y
  _atom_site_fract_z
  _atom_site_occupancy
  Ag  Ag1       1.0  0.59900  0.44000  0.34100  1.0000
  Ag  Ag2       1.0  0.00846  0.70900  0.41600  1.0000
  Ag  Ag3       1.0  0.99200  0.29100  0.58400  1.0000
  Ag  Ag4       1.0  0.40100  0.56000  0.65900  1.0000
  H   H1        1.0  0.81700  0.99400  0.22100  1.0000
  H   H2        1.0  0.72100  0.01310  0.37600  1.0000
  H   H3        1.0  0.27900  0.98700  0.62400  1.0000
  H   H4        1.0  0.18300  0.00550  0.77900  1.0000
  Li  Li1       1.0  0.66400  0.71200  0.08850  1.0000
  Li  Li2       1.0  0.33600  0.28800  0.91200  1.0000
  O   O1        1.0  0.11200  0.20800  0.09330  1.0000
  O   O2        1.0  0.85300  0.49500  0.11300  1.0000
  O   O3        1.0  0.14600  0.83500  0.11900  1.0000
  O   O4        1.0  0.47000  0.70100  0.16700  1.0000
  O   O5        1.0  0.40200  0.26300  0.17400  1.0000
  O   O6        1.0  0.86600  0.20500  0.23400  1.0000
  O   O7        1.0  0.77100  0.91500  0.26900  1.0000
  O   O8        1.0  0.34000  0.04510  0.33000  1.0000
  O   O9        1.0  0.20800  0.39300  0.43200  1.0000
  O   O10       1.0  0.30400  0.78600  0.44100  1.0000
  O   O11       1.0  0.69600  0.21400  0.55900  1.0000
  O   O12       1.0  0.79200  0.60700  0.56800  1.0000
  O   O13       1.0  0.66000  0.95500  0.67000  1.0000
  O   O14       1.0  0.22900  0.08540  0.73100  1.0000
  O   O15       1.0  0.13400  0.79500  0.76600  1.0000
  O   O16       1.0  0.59800  0.73700  0.82600  1.0000
  O   O17       1.0  0.53000  0.29900  0.83300  1.0000
  O   O18       1.0  0.85400  0.16500  0.88100  1.0000
  O   O19       1.0  0.14700  0.50500  0.88700  1.0000
  O   O20       1.0  0.88800  0.79200  0.90700  1.0000
  P   P1        1.0  0.90900  0.28500  0.09600  1.0000
  P   P2        1.0  0.27100  0.24200  0.26400  1.0000
  P   P3        1.0  0.32700  0.82600  0.26600  1.0000
  P   P4        1.0  0.67300  0.17400  0.73400  1.0000
  P   P5        1.0  0.72900  0.75800  0.73600  1.0000
  P   P6        1.0  0.09130  0.71500  0.90400  1.0000
