data_image0
_chemical_formula_structural       Ba4Cu4Ho8O20
_chemical_formula_sum              "Ba4 Cu4 Ho8 O20"
_cell_length_a       12.1205
_cell_length_b       5.64118
_cell_length_c       7.09379
_cell_angle_alpha    90
_cell_angle_beta     90
_cell_angle_gamma    90

_space_group_name_H-M_alt    "P 1"
_space_group_IT_number       1

loop_
  _space_group_symop_operation_xyz
  'x, y, z'

loop_
  _atom_site_type_symbol
  _atom_site_label
  _atom_site_symmetry_multiplicity
  _atom_site_fract_x
  _atom_site_fract_y
  _atom_site_fract_z
  _atom_site_occupancy
  Ba  Ba1       1.0  0.09590  0.75000  0.07010  1.0000
  Ba  Ba2       1.0  0.59600  0.75000  0.43000  1.0000
  Ba  Ba3       1.0  0.40400  0.25000  0.57000  1.0000
  Ba  Ba4       1.0  0.90400  0.25000  0.93000  1.0000
  Cu  Cu1       1.0  0.84000  0.75000  0.21300  1.0000
  Cu  Cu2       1.0  0.34000  0.75000  0.28700  1.0000
  Cu  Cu3       1.0  0.66000  0.25000  0.71300  1.0000
  Cu  Cu4       1.0  0.16000  0.25000  0.78700  1.0000
  Ho  Ho1       1.0  0.57400  0.25000  0.10300  1.0000
  Ho  Ho2       1.0  0.28800  0.25000  0.11500  1.0000
  Ho  Ho3       1.0  0.78800  0.25000  0.38500  1.0000
  Ho  Ho4       1.0  0.07400  0.25000  0.39700  1.0000
  Ho  Ho5       1.0  0.92600  0.75000  0.60300  1.0000
  Ho  Ho6       1.0  0.21200  0.75000  0.61500  1.0000
  Ho  Ho7       1.0  0.71200  0.75000  0.88500  1.0000
  Ho  Ho8       1.0  0.42600  0.75000  0.89700  1.0000
  O   O1        1.0  0.10100  0.25000  0.08230  1.0000
  O   O2        1.0  0.72700  0.50400  0.14300  1.0000
  O   O3        1.0  0.72700  0.99600  0.14300  1.0000
  O   O4        1.0  0.43300  0.50600  0.16500  1.0000
  O   O5        1.0  0.43300  0.99400  0.16500  1.0000
  O   O6        1.0  0.93300  0.50600  0.33500  1.0000
  O   O7        1.0  0.93300  0.99400  0.33500  1.0000
  O   O8        1.0  0.22700  0.50400  0.35700  1.0000
  O   O9        1.0  0.22700  0.99600  0.35700  1.0000
  O   O10       1.0  0.60100  0.25000  0.41800  1.0000
  O   O11       1.0  0.39900  0.75000  0.58200  1.0000
  O   O12       1.0  0.77300  0.00354  0.64300  1.0000
  O   O13       1.0  0.77300  0.49600  0.64300  1.0000
  O   O14       1.0  0.06710  0.00608  0.66500  1.0000
  O   O15       1.0  0.06710  0.49400  0.66500  1.0000
  O   O16       1.0  0.56700  0.00608  0.83500  1.0000
  O   O17       1.0  0.56700  0.49400  0.83500  1.0000
  O   O18       1.0  0.27300  0.00354  0.85700  1.0000
  O   O19       1.0  0.27300  0.49600  0.85700  1.0000
  O   O20       1.0  0.89900  0.75000  0.91800  1.0000
