data_image0
_chemical_formula_structural       Cr4Cu4F24K4
_chemical_formula_sum              "Cr4 Cu4 F24 K4"
_cell_length_a       7.11668
_cell_length_b       9.67655
_cell_length_c       6.55567
_cell_angle_alpha    90
_cell_angle_beta     91.9116
_cell_angle_gamma    90

_space_group_name_H-M_alt    "P 1"
_space_group_IT_number       1

loop_
  _space_group_symop_operation_xyz
  'x, y, z'

loop_
  _atom_site_type_symbol
  _atom_site_label
  _atom_site_symmetry_multiplicity
  _atom_site_fract_x
  _atom_site_fract_y
  _atom_site_fract_z
  _atom_site_occupancy
  Cr  Cr1       1.0  0.00000  0.00000  0.00000  1.0000
  Cr  Cr2       1.0  0.50000  0.00000  0.00000  1.0000
  Cr  Cr3       1.0  0.50000  0.50000  0.50000  1.0000
  Cr  Cr4       1.0  0.00000  0.50000  0.50000  1.0000
  Cu  Cu1       1.0  0.74700  0.73600  0.17600  1.0000
  Cu  Cu2       1.0  0.25300  0.23600  0.32400  1.0000
  Cu  Cu3       1.0  0.74700  0.76400  0.67600  1.0000
  Cu  Cu4       1.0  0.25300  0.26400  0.82400  1.0000
  F   F1        1.0  0.24700  0.34400  0.08650  1.0000
  F   F2        1.0  0.48600  0.81700  0.09540  1.0000
  F   F3        1.0  0.75300  0.01160  0.09820  1.0000
  F   F4        1.0  0.03200  0.82500  0.12000  1.0000
  F   F5        1.0  0.56000  0.56000  0.23800  1.0000
  F   F6        1.0  0.93400  0.57800  0.24600  1.0000
  F   F7        1.0  0.06570  0.07770  0.25400  1.0000
  F   F8        1.0  0.44000  0.06010  0.26200  1.0000
  F   F9        1.0  0.96800  0.32500  0.38000  1.0000
  F   F10       1.0  0.24700  0.51200  0.40200  1.0000
  F   F11       1.0  0.51400  0.31700  0.40500  1.0000
  F   F12       1.0  0.75300  0.84400  0.41300  1.0000
  F   F13       1.0  0.24700  0.15600  0.58700  1.0000
  F   F14       1.0  0.48600  0.68300  0.59500  1.0000
  F   F15       1.0  0.75300  0.48800  0.59800  1.0000
  F   F16       1.0  0.03200  0.67500  0.62000  1.0000
  F   F17       1.0  0.56000  0.94000  0.73800  1.0000
  F   F18       1.0  0.93400  0.92200  0.74600  1.0000
  F   F19       1.0  0.06570  0.42200  0.75400  1.0000
  F   F20       1.0  0.44000  0.44000  0.76200  1.0000
  F   F21       1.0  0.96800  0.17500  0.88000  1.0000
  F   F22       1.0  0.24700  0.98800  0.90200  1.0000
  F   F23       1.0  0.51400  0.18300  0.90500  1.0000
  F   F24       1.0  0.75300  0.65600  0.91300  1.0000
  K   K1        1.0  0.75700  0.38200  0.01230  1.0000
  K   K2        1.0  0.24300  0.88200  0.48800  1.0000
  K   K3        1.0  0.75700  0.11800  0.51200  1.0000
  K   K4        1.0  0.24300  0.61800  0.98800  1.0000
