data_image0
_chemical_formula_structural       I20In12Sn4
_chemical_formula_sum              "I20 In12 Sn4"
_cell_length_a       8.98751
_cell_length_b       8.98751
_cell_length_c       17.7424
_cell_angle_alpha    97.7963
_cell_angle_beta     97.7963
_cell_angle_gamma    90.3472

_space_group_name_H-M_alt    "P 1"
_space_group_IT_number       1

loop_
  _space_group_symop_operation_xyz
  'x, y, z'

loop_
  _atom_site_type_symbol
  _atom_site_label
  _atom_site_symmetry_multiplicity
  _atom_site_fract_x
  _atom_site_fract_y
  _atom_site_fract_z
  _atom_site_occupancy
  I   I1        1.0  0.51600  0.37600  0.10200  1.0000
  I   I2        1.0  0.05180  0.23200  0.10400  1.0000
  I   I3        1.0  0.68000  0.90500  0.10500  1.0000
  I   I4        1.0  0.19400  0.74800  0.11400  1.0000
  I   I5        1.0  0.89300  0.59600  0.23900  1.0000
  I   I6        1.0  0.40400  0.10700  0.26100  1.0000
  I   I7        1.0  0.25200  0.80600  0.38600  1.0000
  I   I8        1.0  0.09510  0.32000  0.39500  1.0000
  I   I9        1.0  0.76800  0.94800  0.39600  1.0000
  I   I10       1.0  0.62400  0.48400  0.39800  1.0000
  I   I11       1.0  0.37600  0.51600  0.60200  1.0000
  I   I12       1.0  0.23200  0.05180  0.60400  1.0000
  I   I13       1.0  0.90500  0.68000  0.60500  1.0000
  I   I14       1.0  0.74800  0.19400  0.61400  1.0000
  I   I15       1.0  0.59600  0.89300  0.73900  1.0000
  I   I16       1.0  0.10700  0.40400  0.76100  1.0000
  I   I17       1.0  0.80600  0.25200  0.88600  1.0000
  I   I18       1.0  0.32000  0.09510  0.89500  1.0000
  I   I19       1.0  0.94800  0.76800  0.89600  1.0000
  I   I20       1.0  0.48400  0.62400  0.89800  1.0000
  In  In1       1.0  0.80300  0.55400  0.03100  1.0000
  In  In2       1.0  0.25800  0.46600  0.24900  1.0000
  In  In3       1.0  0.75800  0.24200  0.25000  1.0000
  In  In4       1.0  0.03610  0.96400  0.25000  1.0000
  In  In5       1.0  0.53400  0.74200  0.25100  1.0000
  In  In6       1.0  0.44600  0.19700  0.46900  1.0000
  In  In7       1.0  0.55400  0.80300  0.53100  1.0000
  In  In8       1.0  0.46600  0.25800  0.74900  1.0000
  In  In9       1.0  0.96400  0.03610  0.75000  1.0000
  In  In10      1.0  0.24200  0.75800  0.75000  1.0000
  In  In11      1.0  0.74200  0.53400  0.75100  1.0000
  In  In12      1.0  0.19700  0.44600  0.96900  1.0000
  Sn  Sn1       1.0  0.34400  0.05810  0.08370  1.0000
  Sn  Sn2       1.0  0.94200  0.65600  0.41600  1.0000
  Sn  Sn3       1.0  0.05810  0.34400  0.58400  1.0000
  Sn  Sn4       1.0  0.65600  0.94200  0.91600  1.0000
