data_image0
_chemical_formula_structural       B4Be8F8Na4O12
_chemical_formula_sum              "B4 Be8 F8 Na4 O12"
_cell_length_a       7.56328
_cell_length_b       7.35366
_cell_length_c       7.35366
_cell_angle_alpha    71.8546
_cell_angle_beta     110.027
_cell_angle_gamma    110.027

_space_group_name_H-M_alt    "P 1"
_space_group_IT_number       1

loop_
  _space_group_symop_operation_xyz
  'x, y, z'

loop_
  _atom_site_type_symbol
  _atom_site_label
  _atom_site_symmetry_multiplicity
  _atom_site_fract_x
  _atom_site_fract_y
  _atom_site_fract_z
  _atom_site_occupancy
  B   B1        1.0  0.98200  0.39100  0.05390  1.0000
  B   B2        1.0  0.47100  0.11500  0.29600  1.0000
  B   B3        1.0  0.01760  0.94600  0.60900  1.0000
  B   B4        1.0  0.52900  0.70400  0.88500  1.0000
  Be  Be1       1.0  0.69300  0.42800  0.13900  1.0000
  Be  Be2       1.0  0.79500  0.08070  0.28100  1.0000
  Be  Be3       1.0  0.19400  0.20600  0.34800  1.0000
  Be  Be4       1.0  0.30700  0.86100  0.57200  1.0000
  Be  Be5       1.0  0.70700  0.00139  0.65000  1.0000
  Be  Be6       1.0  0.80600  0.65200  0.79400  1.0000
  Be  Be7       1.0  0.20500  0.71900  0.91900  1.0000
  Be  Be8       1.0  0.29300  0.35000  0.99900  1.0000
  F   F1        1.0  0.26300  0.79100  0.11100  1.0000
  F   F2        1.0  0.73700  0.88900  0.20900  1.0000
  F   F3        1.0  0.80400  0.51700  0.31900  1.0000
  F   F4        1.0  0.31100  0.37900  0.44500  1.0000
  F   F5        1.0  0.19600  0.68100  0.48300  1.0000
  F   F6        1.0  0.68900  0.55500  0.62100  1.0000
  F   F7        1.0  0.76200  0.17600  0.74800  1.0000
  F   F8        1.0  0.23800  0.25200  0.82400  1.0000
  Na  Na1       1.0  0.00000  0.81500  0.18500  1.0000
  Na  Na2       1.0  0.50000  0.66300  0.33700  1.0000
  Na  Na3       1.0  0.00000  0.39900  0.60100  1.0000
  Na  Na4       1.0  0.50000  0.25400  0.74600  1.0000
  O   O1        1.0  0.50600  0.51900  0.01110  1.0000
  O   O2        1.0  0.61900  0.18700  0.20300  1.0000
  O   O3        1.0  0.30800  0.18400  0.20800  1.0000
  O   O4        1.0  0.98200  0.22900  0.20800  1.0000
  O   O5        1.0  0.49400  0.98900  0.48100  1.0000
  O   O6        1.0  0.16500  0.00451  0.51700  1.0000
  O   O7        1.0  0.86400  0.03250  0.52800  1.0000
  O   O8        1.0  0.01750  0.79200  0.77100  1.0000
  O   O9        1.0  0.38100  0.79700  0.81300  1.0000
  O   O10       1.0  0.69200  0.79200  0.81600  1.0000
  O   O11       1.0  0.13600  0.47200  0.96800  1.0000
  O   O12       1.0  0.83500  0.48300  0.99500  1.0000
