data_image0
_chemical_formula_structural       O24P6Rb2Ti4
_chemical_formula_sum              "O24 P6 Rb2 Ti4"
_cell_length_a       8.3025
_cell_length_b       8.3025
_cell_length_c       9.22635
_cell_angle_alpha    116.739
_cell_angle_beta     90
_cell_angle_gamma    60

_space_group_name_H-M_alt    "P 1"
_space_group_IT_number       1

loop_
  _space_group_symop_operation_xyz
  'x, y, z'

loop_
  _atom_site_type_symbol
  _atom_site_label
  _atom_site_symmetry_multiplicity
  _atom_site_fract_x
  _atom_site_fract_y
  _atom_site_fract_z
  _atom_site_occupancy
  O   O1        1.0  0.51600  0.25400  0.09790  1.0000
  O   O2        1.0  0.15600  0.32800  0.09790  1.0000
  O   O3        1.0  0.23000  0.61400  0.09790  1.0000
  O   O4        1.0  0.80300  0.62800  0.19500  1.0000
  O   O5        1.0  0.43300  0.76400  0.19500  1.0000
  O   O6        1.0  0.56900  0.99700  0.19500  1.0000
  O   O7        1.0  0.06680  0.00268  0.30500  1.0000
  O   O8        1.0  0.69700  0.23600  0.30500  1.0000
  O   O9        1.0  0.93100  0.37200  0.30500  1.0000
  O   O10       1.0  0.34400  0.38600  0.40200  1.0000
  O   O11       1.0  0.98400  0.67200  0.40200  1.0000
  O   O12       1.0  0.27000  0.74600  0.40200  1.0000
  O   O13       1.0  0.73000  0.25400  0.59800  1.0000
  O   O14       1.0  0.01560  0.32800  0.59800  1.0000
  O   O15       1.0  0.65600  0.61400  0.59800  1.0000
  O   O16       1.0  0.06940  0.62800  0.69500  1.0000
  O   O17       1.0  0.30300  0.76400  0.69500  1.0000
  O   O18       1.0  0.93300  0.99700  0.69500  1.0000
  O   O19       1.0  0.43100  0.00268  0.80500  1.0000
  O   O20       1.0  0.56700  0.23600  0.80500  1.0000
  O   O21       1.0  0.19700  0.37200  0.80500  1.0000
  O   O22       1.0  0.77000  0.38600  0.90200  1.0000
  O   O23       1.0  0.84400  0.67200  0.90200  1.0000
  O   O24       1.0  0.48400  0.74600  0.90200  1.0000
  P   P1        1.0  0.52800  0.22200  0.25000  1.0000
  P   P2        1.0  0.97200  0.50000  0.25000  1.0000
  P   P3        1.0  0.25000  0.77800  0.25000  1.0000
  P   P4        1.0  0.75000  0.22200  0.75000  1.0000
  P   P5        1.0  0.02830  0.50000  0.75000  1.0000
  P   P6        1.0  0.47200  0.77800  0.75000  1.0000
  Rb  Rb1       1.0  0.00000  0.00000  0.00000  1.0000
  Rb  Rb2       1.0  0.50000  0.00000  0.50000  1.0000
  Ti  Ti1       1.0  0.65100  0.69800  0.04720  1.0000
  Ti  Ti2       1.0  0.84900  0.30200  0.45300  1.0000
  Ti  Ti3       1.0  0.15100  0.69800  0.54700  1.0000
  Ti  Ti4       1.0  0.34900  0.30200  0.95300  1.0000
