data_image0
_chemical_formula_structural       Ba4Be4Nd8O20
_chemical_formula_sum              "Ba4 Be4 Nd8 O20"
_cell_length_a       7.42155
_cell_length_b       6.67312
_cell_length_c       9.73087
_cell_angle_alpha    90
_cell_angle_beta     90.6882
_cell_angle_gamma    90

_space_group_name_H-M_alt    "P 1"
_space_group_IT_number       1

loop_
  _space_group_symop_operation_xyz
  'x, y, z'

loop_
  _atom_site_type_symbol
  _atom_site_label
  _atom_site_symmetry_multiplicity
  _atom_site_fract_x
  _atom_site_fract_y
  _atom_site_fract_z
  _atom_site_occupancy
  Ba  Ba1       1.0  0.97900  0.91800  0.17300  1.0000
  Ba  Ba2       1.0  0.02070  0.41800  0.32700  1.0000
  Ba  Ba3       1.0  0.97900  0.58200  0.67300  1.0000
  Ba  Ba4       1.0  0.02070  0.08230  0.82700  1.0000
  Be  Be1       1.0  0.26100  0.19200  0.09710  1.0000
  Be  Be2       1.0  0.73900  0.69200  0.40300  1.0000
  Be  Be3       1.0  0.26100  0.30800  0.59700  1.0000
  Be  Be4       1.0  0.73900  0.80800  0.90300  1.0000
  Nd  Nd1       1.0  0.74400  0.40700  0.02270  1.0000
  Nd  Nd2       1.0  0.52200  0.91700  0.17600  1.0000
  Nd  Nd3       1.0  0.47800  0.41700  0.32400  1.0000
  Nd  Nd4       1.0  0.25600  0.90700  0.47700  1.0000
  Nd  Nd5       1.0  0.74400  0.09350  0.52300  1.0000
  Nd  Nd6       1.0  0.52200  0.58300  0.67600  1.0000
  Nd  Nd7       1.0  0.47800  0.08350  0.82400  1.0000
  Nd  Nd8       1.0  0.25600  0.59300  0.97700  1.0000
  O   O1        1.0  0.27900  0.97900  0.00967  1.0000
  O   O2        1.0  0.06850  0.30800  0.06190  1.0000
  O   O3        1.0  0.44100  0.31900  0.06500  1.0000
  O   O4        1.0  0.28400  0.66600  0.21700  1.0000
  O   O5        1.0  0.72100  0.63000  0.23100  1.0000
  O   O6        1.0  0.27900  0.13000  0.26900  1.0000
  O   O7        1.0  0.71600  0.16600  0.28300  1.0000
  O   O8        1.0  0.55900  0.81900  0.43500  1.0000
  O   O9        1.0  0.93200  0.80800  0.43800  1.0000
  O   O10       1.0  0.72100  0.47900  0.49000  1.0000
  O   O11       1.0  0.27900  0.52100  0.51000  1.0000
  O   O12       1.0  0.06850  0.19200  0.56200  1.0000
  O   O13       1.0  0.44100  0.18100  0.56500  1.0000
  O   O14       1.0  0.28400  0.83400  0.71700  1.0000
  O   O15       1.0  0.72100  0.87000  0.73100  1.0000
  O   O16       1.0  0.27900  0.37000  0.76900  1.0000
  O   O17       1.0  0.71600  0.33400  0.78300  1.0000
  O   O18       1.0  0.55900  0.68100  0.93500  1.0000
  O   O19       1.0  0.93200  0.69200  0.93800  1.0000
  O   O20       1.0  0.72100  0.02080  0.99000  1.0000
