data_image0
_chemical_formula_structural       BaCoDy2O5
_chemical_formula_sum              "Ba1 Co1 Dy2 O5"
_cell_length_a       3.74703
_cell_length_b       5.77051
_cell_length_c       6.68488
_cell_angle_alpha    115.57
_cell_angle_beta     106.276
_cell_angle_gamma    90

_space_group_name_H-M_alt    "P 1"
_space_group_IT_number       1

loop_
  _space_group_symop_operation_xyz
  'x, y, z'

loop_
  _atom_site_type_symbol
  _atom_site_label
  _atom_site_symmetry_multiplicity
  _atom_site_fract_x
  _atom_site_fract_y
  _atom_site_fract_z
  _atom_site_occupancy
  Ba  Ba1       1.0  0.00000  0.00000  0.00000  1.0000
  Co  Co1       1.0  0.50000  0.50000  0.00000  1.0000
  Dy  Dy1       1.0  0.20300  0.70300  0.40700  1.0000
  Dy  Dy2       1.0  0.79700  0.29700  0.59300  1.0000
  O   O1        1.0  0.00000  0.50000  0.00000  1.0000
  O   O2        1.0  0.65100  0.89300  0.30100  1.0000
  O   O3        1.0  0.65100  0.40800  0.30100  1.0000
  O   O4        1.0  0.34900  0.59200  0.69900  1.0000
  O   O5        1.0  0.34900  0.10700  0.69900  1.0000
