data_image0
_chemical_formula_structural       B4Co12O20
_chemical_formula_sum              "B4 Co12 O20"
_cell_length_a       9.28541
_cell_length_b       12.2592
_cell_length_c       3.00329
_cell_angle_alpha    90
_cell_angle_beta     90
_cell_angle_gamma    90

_space_group_name_H-M_alt    "P 1"
_space_group_IT_number       1

loop_
  _space_group_symop_operation_xyz
  'x, y, z'

loop_
  _atom_site_type_symbol
  _atom_site_label
  _atom_site_symmetry_multiplicity
  _atom_site_fract_x
  _atom_site_fract_y
  _atom_site_fract_z
  _atom_site_occupancy
  B   B1        1.0  0.77200  0.13900  0.00000  1.0000
  B   B2        1.0  0.27200  0.36100  0.00000  1.0000
  B   B3        1.0  0.72800  0.63900  0.00000  1.0000
  B   B4        1.0  0.22800  0.86100  0.00000  1.0000
  Co  Co1       1.0  0.50000  0.00000  0.00000  1.0000
  Co  Co2       1.0  0.24000  0.11400  0.00000  1.0000
  Co  Co3       1.0  0.74000  0.38600  0.00000  1.0000
  Co  Co4       1.0  0.00000  0.50000  0.00000  1.0000
  Co  Co5       1.0  0.26000  0.61400  0.00000  1.0000
  Co  Co6       1.0  0.76000  0.88600  0.00000  1.0000
  Co  Co7       1.0  0.00000  0.00000  0.50000  1.0000
  Co  Co8       1.0  0.50000  0.21900  0.50000  1.0000
  Co  Co9       1.0  0.00031  0.28100  0.50000  1.0000
  Co  Co10      1.0  0.50000  0.50000  0.50000  1.0000
  Co  Co11      1.0  0.00000  0.71900  0.50000  1.0000
  Co  Co12      1.0  0.50000  0.78100  0.50000  1.0000
  O   O1        1.0  0.84900  0.04250  0.00000  1.0000
  O   O2        1.0  0.62400  0.14000  0.00000  1.0000
  O   O3        1.0  0.84500  0.23700  0.00000  1.0000
  O   O4        1.0  0.34500  0.26300  0.00000  1.0000
  O   O5        1.0  0.12400  0.36000  0.00000  1.0000
  O   O6        1.0  0.34900  0.45700  0.00000  1.0000
  O   O7        1.0  0.65100  0.54300  0.00000  1.0000
  O   O8        1.0  0.87600  0.64000  0.00000  1.0000
  O   O9        1.0  0.65500  0.73700  0.00000  1.0000
  O   O10       1.0  0.15500  0.76300  0.00000  1.0000
  O   O11       1.0  0.37600  0.86000  0.00000  1.0000
  O   O12       1.0  0.15100  0.95700  0.00000  1.0000
  O   O13       1.0  0.38200  0.07800  0.50000  1.0000
  O   O14       1.0  0.10900  0.14300  0.50000  1.0000
  O   O15       1.0  0.60900  0.35700  0.50000  1.0000
  O   O16       1.0  0.88200  0.42200  0.50000  1.0000
  O   O17       1.0  0.11800  0.57800  0.50000  1.0000
  O   O18       1.0  0.39100  0.64300  0.50000  1.0000
  O   O19       1.0  0.89100  0.85700  0.50000  1.0000
  O   O20       1.0  0.61800  0.92200  0.50000  1.0000
