data_image0
_chemical_formula_structural       Br6Cl18Cs6Re6
_chemical_formula_sum              "Br6 Cl18 Cs6 Re6"
_cell_length_a       10.1297
_cell_length_b       10.1297
_cell_length_c       10.8976
_cell_angle_alpha    90
_cell_angle_beta     90
_cell_angle_gamma    90.232

_space_group_name_H-M_alt    "P 1"
_space_group_IT_number       1

loop_
  _space_group_symop_operation_xyz
  'x, y, z'

loop_
  _atom_site_type_symbol
  _atom_site_label
  _atom_site_symmetry_multiplicity
  _atom_site_fract_x
  _atom_site_fract_y
  _atom_site_fract_z
  _atom_site_occupancy
  Br  Br1       1.0  0.08400  0.35900  0.01420  1.0000
  Br  Br2       1.0  0.88700  0.75000  0.25000  1.0000
  Br  Br3       1.0  0.08400  0.35900  0.48600  1.0000
  Br  Br4       1.0  0.35900  0.08400  0.51400  1.0000
  Br  Br5       1.0  0.75000  0.88700  0.75000  1.0000
  Br  Br6       1.0  0.35900  0.08400  0.98600  1.0000
  Cl  Cl1       1.0  0.66300  0.93500  0.07320  1.0000
  Cl  Cl2       1.0  0.77400  0.47200  0.10100  1.0000
  Cl  Cl3       1.0  0.18000  0.67400  0.10200  1.0000
  Cl  Cl4       1.0  0.19500  0.13200  0.25000  1.0000
  Cl  Cl5       1.0  0.90100  0.22300  0.25000  1.0000
  Cl  Cl6       1.0  0.30400  0.42700  0.25000  1.0000
  Cl  Cl7       1.0  0.18000  0.67400  0.39800  1.0000
  Cl  Cl8       1.0  0.77400  0.47200  0.39900  1.0000
  Cl  Cl9       1.0  0.66300  0.93500  0.42700  1.0000
  Cl  Cl10      1.0  0.93500  0.66300  0.57300  1.0000
  Cl  Cl11      1.0  0.47200  0.77400  0.60100  1.0000
  Cl  Cl12      1.0  0.67400  0.18000  0.60200  1.0000
  Cl  Cl13      1.0  0.13200  0.19500  0.75000  1.0000
  Cl  Cl14      1.0  0.42700  0.30400  0.75000  1.0000
  Cl  Cl15      1.0  0.22300  0.90100  0.75000  1.0000
  Cl  Cl16      1.0  0.67400  0.18000  0.89800  1.0000
  Cl  Cl17      1.0  0.47200  0.77400  0.89900  1.0000
  Cl  Cl18      1.0  0.93500  0.66300  0.92700  1.0000
  Cs  Cs1       1.0  0.99600  0.99600  0.00000  1.0000
  Cs  Cs2       1.0  0.56700  0.20600  0.25000  1.0000
  Cs  Cs3       1.0  0.51200  0.70200  0.25000  1.0000
  Cs  Cs4       1.0  0.99600  0.99600  0.50000  1.0000
  Cs  Cs5       1.0  0.70200  0.51200  0.75000  1.0000
  Cs  Cs6       1.0  0.20600  0.56700  0.75000  1.0000
  Re  Re1       1.0  0.98800  0.55200  0.13700  1.0000
  Re  Re2       1.0  0.08220  0.36500  0.25000  1.0000
  Re  Re3       1.0  0.98800  0.55200  0.36300  1.0000
  Re  Re4       1.0  0.55200  0.98800  0.63700  1.0000
  Re  Re5       1.0  0.36500  0.08220  0.75000  1.0000
  Re  Re6       1.0  0.55200  0.98800  0.86300  1.0000
