data_image0
_chemical_formula_structural       CsGe4Li12Na3O16
_chemical_formula_sum              "Cs1 Ge4 Li12 Na3 O16"
_cell_length_a       6.47282
_cell_length_b       8.51027
_cell_length_c       8.51027
_cell_angle_alpha    98.3155
_cell_angle_beta     67.6481
_cell_angle_gamma    112.352

_space_group_name_H-M_alt    "P 1"
_space_group_IT_number       1

loop_
  _space_group_symop_operation_xyz
  'x, y, z'

loop_
  _atom_site_type_symbol
  _atom_site_label
  _atom_site_symmetry_multiplicity
  _atom_site_fract_x
  _atom_site_fract_y
  _atom_site_fract_z
  _atom_site_occupancy
  Cs  Cs1       1.0  0.00000  0.00000  0.00000  1.0000
  Ge  Ge1       1.0  0.58100  0.36200  0.19900  1.0000
  Ge  Ge2       1.0  0.21900  0.80100  0.36200  1.0000
  Ge  Ge3       1.0  0.78100  0.19900  0.63800  1.0000
  Ge  Ge4       1.0  0.41900  0.63800  0.80100  1.0000
  Li  Li1       1.0  0.02180  0.66700  0.13300  1.0000
  Li  Li2       1.0  0.51200  0.66700  0.13300  1.0000
  Li  Li3       1.0  0.07970  0.36100  0.20200  1.0000
  Li  Li4       1.0  0.15500  0.13300  0.33300  1.0000
  Li  Li5       1.0  0.64500  0.13300  0.33300  1.0000
  Li  Li6       1.0  0.71800  0.79800  0.36100  1.0000
  Li  Li7       1.0  0.28200  0.20200  0.63900  1.0000
  Li  Li8       1.0  0.35500  0.86700  0.66700  1.0000
  Li  Li9       1.0  0.84500  0.86700  0.66700  1.0000
  Li  Li10      1.0  0.92000  0.63900  0.79800  1.0000
  Li  Li11      1.0  0.48800  0.33300  0.86700  1.0000
  Li  Li12      1.0  0.97800  0.33300  0.86700  1.0000
  Na  Na1       1.0  0.50000  0.00000  0.00000  1.0000
  Na  Na2       1.0  0.25000  0.50000  0.50000  1.0000
  Na  Na3       1.0  0.75000  0.50000  0.50000  1.0000
  O   O1        1.0  0.36200  0.28100  0.10400  1.0000
  O   O2        1.0  0.81500  0.28100  0.10400  1.0000
  O   O3        1.0  0.68000  0.58400  0.22500  1.0000
  O   O4        1.0  0.16200  0.59300  0.26900  1.0000
  O   O5        1.0  0.08110  0.89600  0.28100  1.0000
  O   O6        1.0  0.53400  0.89600  0.28100  1.0000
  O   O7        1.0  0.43100  0.26900  0.40700  1.0000
  O   O8        1.0  0.90400  0.22500  0.41600  1.0000
  O   O9        1.0  0.09550  0.77500  0.58400  1.0000
  O   O10       1.0  0.56900  0.73100  0.59300  1.0000
  O   O11       1.0  0.46600  0.10400  0.71900  1.0000
  O   O12       1.0  0.91900  0.10400  0.71900  1.0000
  O   O13       1.0  0.83800  0.40700  0.73100  1.0000
  O   O14       1.0  0.32000  0.41600  0.77500  1.0000
  O   O15       1.0  0.18500  0.71900  0.89600  1.0000
  O   O16       1.0  0.63800  0.71900  0.89600  1.0000
