data_image0
_chemical_formula_structural       F16H8K4Mn4O4
_chemical_formula_sum              "F16 H8 K4 Mn4 O4"
_cell_length_a       5.94613
_cell_length_b       7.36376
_cell_length_c       9.92375
_cell_angle_alpha    101.863
_cell_angle_beta     90
_cell_angle_gamma    113.812

_space_group_name_H-M_alt    "P 1"
_space_group_IT_number       1

loop_
  _space_group_symop_operation_xyz
  'x, y, z'

loop_
  _atom_site_type_symbol
  _atom_site_label
  _atom_site_symmetry_multiplicity
  _atom_site_fract_x
  _atom_site_fract_y
  _atom_site_fract_z
  _atom_site_occupancy
  F   F1        1.0  0.70400  0.50500  0.04160  1.0000
  F   F2        1.0  0.16700  0.81700  0.05240  1.0000
  F   F3        1.0  0.09850  0.14900  0.18700  1.0000
  F   F4        1.0  0.55900  0.15900  0.19400  1.0000
  F   F5        1.0  0.40000  0.84100  0.30600  1.0000
  F   F6        1.0  0.94900  0.85100  0.31300  1.0000
  F   F7        1.0  0.35000  0.18300  0.44800  1.0000
  F   F8        1.0  0.19900  0.49500  0.45800  1.0000
  F   F9        1.0  0.80100  0.50500  0.54200  1.0000
  F   F10       1.0  0.65000  0.81700  0.55200  1.0000
  F   F11       1.0  0.05100  0.14900  0.68700  1.0000
  F   F12       1.0  0.60000  0.15900  0.69400  1.0000
  F   F13       1.0  0.44100  0.84100  0.80600  1.0000
  F   F14       1.0  0.90200  0.85100  0.81300  1.0000
  F   F15       1.0  0.83300  0.18300  0.94800  1.0000
  F   F16       1.0  0.29600  0.49500  0.95800  1.0000
  H   H1        1.0  0.08570  0.35800  0.19900  1.0000
  H   H2        1.0  0.20400  0.60000  0.24900  1.0000
  H   H3        1.0  0.60400  0.40000  0.25100  1.0000
  H   H4        1.0  0.72800  0.64200  0.30100  1.0000
  H   H5        1.0  0.27200  0.35800  0.69900  1.0000
  H   H6        1.0  0.39600  0.60000  0.74900  1.0000
  H   H7        1.0  0.79600  0.40000  0.75100  1.0000
  H   H8        1.0  0.91400  0.64200  0.80100  1.0000
  K   K1        1.0  0.66600  0.84600  0.05930  1.0000
  K   K2        1.0  0.82000  0.15400  0.44100  1.0000
  K   K3        1.0  0.18000  0.84600  0.55900  1.0000
  K   K4        1.0  0.33400  0.15400  0.94100  1.0000
  Mn  Mn1       1.0  0.00000  0.50000  0.00000  1.0000
  Mn  Mn2       1.0  0.25200  0.00000  0.25000  1.0000
  Mn  Mn3       1.0  0.50000  0.50000  0.50000  1.0000
  Mn  Mn4       1.0  0.74800  0.00000  0.75000  1.0000
  O   O1        1.0  0.05810  0.48200  0.19600  1.0000
  O   O2        1.0  0.57600  0.51800  0.30400  1.0000
  O   O3        1.0  0.42400  0.48200  0.69600  1.0000
  O   O4        1.0  0.94200  0.51800  0.80400  1.0000
