data_image0
_chemical_formula_structural       Ir4Na8O16Rb8
_chemical_formula_sum              "Ir4 Na8 O16 Rb8"
_cell_length_a       6.18493
_cell_length_b       11.0675
_cell_length_c       9.66189
_cell_angle_alpha    90
_cell_angle_beta     114.841
_cell_angle_gamma    90

_space_group_name_H-M_alt    "P 1"
_space_group_IT_number       1

loop_
  _space_group_symop_operation_xyz
  'x, y, z'

loop_
  _atom_site_type_symbol
  _atom_site_label
  _atom_site_symmetry_multiplicity
  _atom_site_fract_x
  _atom_site_fract_y
  _atom_site_fract_z
  _atom_site_occupancy
  Ir  Ir1       1.0  0.99000  0.86800  0.23600  1.0000
  Ir  Ir2       1.0  0.01030  0.36800  0.26400  1.0000
  Ir  Ir3       1.0  0.99000  0.63200  0.73600  1.0000
  Ir  Ir4       1.0  0.01030  0.13200  0.76400  1.0000
  Na  Na1       1.0  0.43400  0.39100  0.08990  1.0000
  Na  Na2       1.0  0.06380  0.61200  0.09150  1.0000
  Na  Na3       1.0  0.93600  0.11200  0.40800  1.0000
  Na  Na4       1.0  0.56600  0.89100  0.41000  1.0000
  Na  Na5       1.0  0.43400  0.10900  0.59000  1.0000
  Na  Na6       1.0  0.06380  0.88800  0.59200  1.0000
  Na  Na7       1.0  0.93600  0.38800  0.90800  1.0000
  Na  Na8       1.0  0.56600  0.60900  0.91000  1.0000
  O   O1        1.0  0.78100  0.77000  0.06720  1.0000
  O   O2        1.0  0.79200  0.45900  0.08850  1.0000
  O   O3        1.0  0.72400  0.95700  0.23900  1.0000
  O   O4        1.0  0.25700  0.77600  0.23900  1.0000
  O   O5        1.0  0.74300  0.27600  0.26100  1.0000
  O   O6        1.0  0.27600  0.45700  0.26100  1.0000
  O   O7        1.0  0.20800  0.95900  0.41100  1.0000
  O   O8        1.0  0.21900  0.27000  0.43300  1.0000
  O   O9        1.0  0.78100  0.73000  0.56700  1.0000
  O   O10       1.0  0.79200  0.04140  0.58900  1.0000
  O   O11       1.0  0.72400  0.54300  0.73900  1.0000
  O   O12       1.0  0.25700  0.72400  0.73900  1.0000
  O   O13       1.0  0.74300  0.22400  0.76100  1.0000
  O   O14       1.0  0.27600  0.04300  0.76100  1.0000
  O   O15       1.0  0.20800  0.54100  0.91100  1.0000
  O   O16       1.0  0.21900  0.23000  0.93300  1.0000
  Rb  Rb1       1.0  0.68100  0.13400  0.00622  1.0000
  Rb  Rb2       1.0  0.34300  0.13100  0.22300  1.0000
  Rb  Rb3       1.0  0.65700  0.63100  0.27700  1.0000
  Rb  Rb4       1.0  0.31900  0.63400  0.49400  1.0000
  Rb  Rb5       1.0  0.68100  0.36600  0.50600  1.0000
  Rb  Rb6       1.0  0.34300  0.36900  0.72300  1.0000
  Rb  Rb7       1.0  0.65700  0.86900  0.77700  1.0000
  Rb  Rb8       1.0  0.31900  0.86600  0.99400  1.0000
