data_image0
_chemical_formula_structural       Ir4K8Na8O16
_chemical_formula_sum              "Ir4 K8 Na8 O16"
_cell_length_a       5.96641
_cell_length_b       11.1088
_cell_length_c       9.29031
_cell_angle_alpha    90
_cell_angle_beta     112.737
_cell_angle_gamma    90

_space_group_name_H-M_alt    "P 1"
_space_group_IT_number       1

loop_
  _space_group_symop_operation_xyz
  'x, y, z'

loop_
  _atom_site_type_symbol
  _atom_site_label
  _atom_site_symmetry_multiplicity
  _atom_site_fract_x
  _atom_site_fract_y
  _atom_site_fract_z
  _atom_site_occupancy
  Ir  Ir1       1.0  0.98500  0.87100  0.22800  1.0000
  Ir  Ir2       1.0  0.01450  0.37100  0.27200  1.0000
  Ir  Ir3       1.0  0.98500  0.62900  0.72800  1.0000
  Ir  Ir4       1.0  0.01450  0.12900  0.77200  1.0000
  K   K1        1.0  0.67000  0.13700  0.00411  1.0000
  K   K2        1.0  0.34200  0.13300  0.22100  1.0000
  K   K3        1.0  0.65800  0.63300  0.27900  1.0000
  K   K4        1.0  0.33000  0.63700  0.49600  1.0000
  K   K5        1.0  0.67000  0.36300  0.50400  1.0000
  K   K6        1.0  0.34200  0.36700  0.72100  1.0000
  K   K7        1.0  0.65800  0.86700  0.77900  1.0000
  K   K8        1.0  0.33000  0.86300  0.99600  1.0000
  Na  Na1       1.0  0.06920  0.61300  0.09270  1.0000
  Na  Na2       1.0  0.43300  0.39200  0.09410  1.0000
  Na  Na3       1.0  0.56700  0.89200  0.40600  1.0000
  Na  Na4       1.0  0.93100  0.11300  0.40700  1.0000
  Na  Na5       1.0  0.06920  0.88700  0.59300  1.0000
  Na  Na6       1.0  0.43300  0.10800  0.59400  1.0000
  Na  Na7       1.0  0.56700  0.60800  0.90600  1.0000
  Na  Na8       1.0  0.93100  0.38700  0.90700  1.0000
  O   O1        1.0  0.77600  0.76900  0.06330  1.0000
  O   O2        1.0  0.79600  0.46600  0.09840  1.0000
  O   O3        1.0  0.71300  0.96700  0.22300  1.0000
  O   O4        1.0  0.26000  0.77400  0.23900  1.0000
  O   O5        1.0  0.74000  0.27400  0.26100  1.0000
  O   O6        1.0  0.28700  0.46700  0.27700  1.0000
  O   O7        1.0  0.20400  0.96600  0.40200  1.0000
  O   O8        1.0  0.22400  0.26900  0.43700  1.0000
  O   O9        1.0  0.77600  0.73100  0.56300  1.0000
  O   O10       1.0  0.79600  0.03390  0.59800  1.0000
  O   O11       1.0  0.71300  0.53300  0.72300  1.0000
  O   O12       1.0  0.26000  0.72600  0.73900  1.0000
  O   O13       1.0  0.74000  0.22600  0.76100  1.0000
  O   O14       1.0  0.28700  0.03280  0.77700  1.0000
  O   O15       1.0  0.20400  0.53400  0.90200  1.0000
  O   O16       1.0  0.22400  0.23100  0.93700  1.0000
