data_image0
_chemical_formula_structural       Cd2O6Sn2
_chemical_formula_sum              "Cd2 O6 Sn2"
_cell_length_a       5.9112
_cell_length_b       5.9112
_cell_length_c       5.9112
_cell_angle_alpha    55.498
_cell_angle_beta     55.498
_cell_angle_gamma    55.498

_space_group_name_H-M_alt    "P 1"
_space_group_IT_number       1

loop_
  _space_group_symop_operation_xyz
  'x, y, z'

loop_
  _atom_site_type_symbol
  _atom_site_label
  _atom_site_symmetry_multiplicity
  _atom_site_fract_x
  _atom_site_fract_y
  _atom_site_fract_z
  _atom_site_occupancy
  Cd  Cd1       1.0  0.36800  0.36800  0.36800  1.0000
  Cd  Cd2       1.0  0.63200  0.63200  0.63200  1.0000
  O   O1        1.0  0.78700  0.44300  0.03660  1.0000
  O   O2        1.0  0.55700  0.96300  0.21300  1.0000
  O   O3        1.0  0.03660  0.78700  0.44300  1.0000
  O   O4        1.0  0.96300  0.21300  0.55700  1.0000
  O   O5        1.0  0.44300  0.03660  0.78700  1.0000
  O   O6        1.0  0.21300  0.55700  0.96300  1.0000
  Sn  Sn1       1.0  0.15400  0.15400  0.15400  1.0000
  Sn  Sn2       1.0  0.84600  0.84600  0.84600  1.0000
