data_image0
_chemical_formula_structural       Fe19P12Th5
_chemical_formula_sum              "Fe19 P12 Th5"
_cell_length_a       3.75113
_cell_length_b       9.20135
_cell_length_c       14.5287
_cell_angle_alpha    102.964
_cell_angle_beta     97.4172
_cell_angle_gamma    90

_space_group_name_H-M_alt    "P 1"
_space_group_IT_number       1

loop_
  _space_group_symop_operation_xyz
  'x, y, z'

loop_
  _atom_site_type_symbol
  _atom_site_label
  _atom_site_symmetry_multiplicity
  _atom_site_fract_x
  _atom_site_fract_y
  _atom_site_fract_z
  _atom_site_occupancy
  Fe  Fe1       1.0  0.00000  0.00000  0.00000  1.0000
  Fe  Fe2       1.0  0.52700  0.85400  0.05470  1.0000
  Fe  Fe3       1.0  0.06630  0.70700  0.13300  1.0000
  Fe  Fe4       1.0  0.08810  0.45600  0.17600  1.0000
  Fe  Fe5       1.0  0.61600  0.89000  0.23200  1.0000
  Fe  Fe6       1.0  0.15300  0.09840  0.30700  1.0000
  Fe  Fe7       1.0  0.65700  0.49300  0.31400  1.0000
  Fe  Fe8       1.0  0.70600  0.28000  0.41200  1.0000
  Fe  Fe9       1.0  0.22000  0.50500  0.44000  1.0000
  Fe  Fe10      1.0  0.24200  0.10100  0.48300  1.0000
  Fe  Fe11      1.0  0.75800  0.89900  0.51700  1.0000
  Fe  Fe12      1.0  0.78000  0.49500  0.56000  1.0000
  Fe  Fe13      1.0  0.29400  0.72000  0.58800  1.0000
  Fe  Fe14      1.0  0.34300  0.50700  0.68600  1.0000
  Fe  Fe15      1.0  0.84700  0.90200  0.69300  1.0000
  Fe  Fe16      1.0  0.38400  0.11000  0.76800  1.0000
  Fe  Fe17      1.0  0.91200  0.54400  0.82400  1.0000
  Fe  Fe18      1.0  0.93400  0.29300  0.86700  1.0000
  Fe  Fe19      1.0  0.47300  0.14600  0.94500  1.0000
  P   P1        1.0  0.01300  0.26900  0.02600  1.0000
  P   P2        1.0  0.08070  0.95000  0.16100  1.0000
  P   P3        1.0  0.60100  0.62700  0.20300  1.0000
  P   P4        1.0  0.15300  0.34600  0.30600  1.0000
  P   P5        1.0  0.69500  0.03050  0.39000  1.0000
  P   P6        1.0  0.73300  0.64700  0.46700  1.0000
  P   P7        1.0  0.26700  0.35300  0.53300  1.0000
  P   P8        1.0  0.30500  0.96900  0.61000  1.0000
  P   P9        1.0  0.84700  0.65400  0.69400  1.0000
  P   P10       1.0  0.39900  0.37300  0.79700  1.0000
  P   P11       1.0  0.91900  0.05010  0.83900  1.0000
  P   P12       1.0  0.98700  0.73100  0.97400  1.0000
  Th  Th1       1.0  0.50000  0.50000  0.00000  1.0000
  Th  Th2       1.0  0.58200  0.19100  0.16300  1.0000
  Th  Th3       1.0  0.17700  0.77500  0.35400  1.0000
  Th  Th4       1.0  0.82300  0.22500  0.64600  1.0000
  Th  Th5       1.0  0.41800  0.80900  0.83700  1.0000
