data_image0
_chemical_formula_structural       B12Cs2Li2O20
_chemical_formula_sum              "B12 Cs2 Li2 O20"
_cell_length_a       8.55711
_cell_length_b       8.55711
_cell_length_c       8.55711
_cell_angle_alpha    105.117
_cell_angle_beta     118.582
_cell_angle_gamma    105.117

_space_group_name_H-M_alt    "P 1"
_space_group_IT_number       1

loop_
  _space_group_symop_operation_xyz
  'x, y, z'

loop_
  _atom_site_type_symbol
  _atom_site_label
  _atom_site_symmetry_multiplicity
  _atom_site_fract_x
  _atom_site_fract_y
  _atom_site_fract_z
  _atom_site_occupancy
  B   B1        1.0  0.34500  0.72000  0.12500  1.0000
  B   B2        1.0  0.20000  0.61200  0.29200  1.0000
  B   B3        1.0  0.70800  0.90800  0.31900  1.0000
  B   B4        1.0  0.04240  0.11200  0.45000  1.0000
  B   B5        1.0  0.68100  0.38800  0.58900  1.0000
  B   B6        1.0  0.87500  0.22000  0.59500  1.0000
  B   B7        1.0  0.40500  0.28000  0.62500  1.0000
  B   B8        1.0  0.37500  0.78000  0.65500  1.0000
  B   B9        1.0  0.55000  0.59200  0.66100  1.0000
  B   B10       1.0  0.41100  0.09200  0.80000  1.0000
  B   B11       1.0  0.33900  0.88800  0.93100  1.0000
  B   B12       1.0  0.06950  0.40800  0.95800  1.0000
  Cs  Cs1       1.0  0.00000  0.00000  0.00000  1.0000
  Cs  Cs2       1.0  0.75000  0.50000  0.25000  1.0000
  Li  Li1       1.0  0.50000  0.00000  0.50000  1.0000
  Li  Li2       1.0  0.25000  0.50000  0.75000  1.0000
  O   O1        1.0  0.30700  0.86000  0.06420  1.0000
  O   O2        1.0  0.06650  0.44200  0.12500  1.0000
  O   O3        1.0  0.54600  0.74300  0.18600  1.0000
  O   O4        1.0  0.32700  0.74600  0.29100  1.0000
  O   O5        1.0  0.87500  0.94200  0.31700  1.0000
  O   O6        1.0  0.20400  0.14000  0.44700  1.0000
  O   O7        1.0  0.19700  0.64000  0.45400  1.0000
  O   O8        1.0  0.70900  0.03630  0.45500  1.0000
  O   O9        1.0  0.81400  0.36000  0.55700  1.0000
  O   O10       1.0  0.04050  0.24600  0.57700  1.0000
  O   O11       1.0  0.54500  0.25400  0.58100  1.0000
  O   O12       1.0  0.68300  0.55800  0.62500  1.0000
  O   O13       1.0  0.42300  0.46400  0.66900  1.0000
  O   O14       1.0  0.41900  0.96400  0.67300  1.0000
  O   O15       1.0  0.55300  0.75700  0.69300  1.0000
  O   O16       1.0  0.33100  0.75400  0.79500  1.0000
  O   O17       1.0  0.93600  0.24300  0.79600  1.0000
  O   O18       1.0  0.44300  0.25700  0.80300  1.0000
  O   O19       1.0  0.37500  0.05850  0.93300  1.0000
  O   O20       1.0  0.20500  0.53600  0.95900  1.0000
