data_image0
_chemical_formula_structural       F16H8Mn4O4Rb4
_chemical_formula_sum              "F16 H8 Mn4 O4 Rb4"
_cell_length_a       6.19602
_cell_length_b       7.44093
_cell_length_c       9.98561
_cell_angle_alpha    101.03
_cell_angle_beta     90
_cell_angle_gamma    114.604

_space_group_name_H-M_alt    "P 1"
_space_group_IT_number       1

loop_
  _space_group_symop_operation_xyz
  'x, y, z'

loop_
  _atom_site_type_symbol
  _atom_site_label
  _atom_site_symmetry_multiplicity
  _atom_site_fract_x
  _atom_site_fract_y
  _atom_site_fract_z
  _atom_site_occupancy
  F   F1        1.0  0.78700  0.50000  0.04120  1.0000
  F   F2        1.0  0.65400  0.81300  0.05520  1.0000
  F   F3        1.0  0.04390  0.15400  0.18900  1.0000
  F   F4        1.0  0.61500  0.16100  0.19500  1.0000
  F   F5        1.0  0.45300  0.83900  0.30500  1.0000
  F   F6        1.0  0.89000  0.84600  0.31100  1.0000
  F   F7        1.0  0.84100  0.18700  0.44500  1.0000
  F   F8        1.0  0.28700  0.50000  0.45900  1.0000
  F   F9        1.0  0.71300  0.50000  0.54100  1.0000
  F   F10       1.0  0.15900  0.81300  0.55500  1.0000
  F   F11       1.0  0.11000  0.15400  0.68900  1.0000
  F   F12       1.0  0.54700  0.16100  0.69500  1.0000
  F   F13       1.0  0.38500  0.83900  0.80500  1.0000
  F   F14       1.0  0.95600  0.84600  0.81100  1.0000
  F   F15       1.0  0.34600  0.18700  0.94500  1.0000
  F   F16       1.0  0.21300  0.50000  0.95900  1.0000
  H   H1        1.0  0.26600  0.36000  0.19800  1.0000
  H   H2        1.0  0.40500  0.59900  0.25000  1.0000
  H   H3        1.0  0.80700  0.40100  0.25000  1.0000
  H   H4        1.0  0.90600  0.64000  0.30200  1.0000
  H   H5        1.0  0.09410  0.36000  0.69800  1.0000
  H   H6        1.0  0.19300  0.59900  0.75000  1.0000
  H   H7        1.0  0.59500  0.40100  0.75000  1.0000
  H   H8        1.0  0.73400  0.64000  0.80200  1.0000
  Mn  Mn1       1.0  0.50000  0.50000  0.00000  1.0000
  Mn  Mn2       1.0  0.75000  0.00000  0.25000  1.0000
  Mn  Mn3       1.0  0.00000  0.50000  0.50000  1.0000
  Mn  Mn4       1.0  0.25000  0.00000  0.75000  1.0000
  O   O1        1.0  0.42000  0.47800  0.19500  1.0000
  O   O2        1.0  0.94200  0.52200  0.30500  1.0000
  O   O3        1.0  0.05780  0.47800  0.69500  1.0000
  O   O4        1.0  0.58000  0.52200  0.80500  1.0000
  Rb  Rb1       1.0  0.17900  0.84600  0.06780  1.0000
  Rb  Rb2       1.0  0.33300  0.15400  0.43200  1.0000
  Rb  Rb3       1.0  0.66700  0.84600  0.56800  1.0000
  Rb  Rb4       1.0  0.82100  0.15400  0.93200  1.0000
