data_image0
_chemical_formula_structural       F14Sn2Y2
_chemical_formula_sum              "F14 Sn2 Y2"
_cell_length_a       5.67782
_cell_length_b       5.38958
_cell_length_c       7.89023
_cell_angle_alpha    90
_cell_angle_beta     101.585
_cell_angle_gamma    90

_space_group_name_H-M_alt    "P 1"
_space_group_IT_number       1

loop_
  _space_group_symop_operation_xyz
  'x, y, z'

loop_
  _atom_site_type_symbol
  _atom_site_label
  _atom_site_symmetry_multiplicity
  _atom_site_fract_x
  _atom_site_fract_y
  _atom_site_fract_z
  _atom_site_occupancy
  F   F1        1.0  0.59300  0.74400  0.01900  1.0000
  F   F2        1.0  0.07480  0.58800  0.03300  1.0000
  F   F3        1.0  0.82200  0.39600  0.25100  1.0000
  F   F4        1.0  0.00112  0.89500  0.27200  1.0000
  F   F5        1.0  0.50600  0.04110  0.29300  1.0000
  F   F6        1.0  0.40100  0.55800  0.31800  1.0000
  F   F7        1.0  0.18700  0.23400  0.47400  1.0000
  F   F8        1.0  0.81300  0.73400  0.52600  1.0000
  F   F9        1.0  0.59900  0.05840  0.68200  1.0000
  F   F10       1.0  0.49400  0.54100  0.70700  1.0000
  F   F11       1.0  0.99900  0.39500  0.72800  1.0000
  F   F12       1.0  0.17800  0.89600  0.74900  1.0000
  F   F13       1.0  0.92500  0.08840  0.96700  1.0000
  F   F14       1.0  0.40700  0.24400  0.98100  1.0000
  Sn  Sn1       1.0  0.69000  0.73300  0.27600  1.0000
  Sn  Sn2       1.0  0.31000  0.23300  0.72400  1.0000
  Y   Y1        1.0  0.16500  0.24900  0.18700  1.0000
  Y   Y2        1.0  0.83500  0.74900  0.81300  1.0000
