data_image0
_chemical_formula_structural       H4N4S28
_chemical_formula_sum              "H4 N4 S28"
_cell_length_a       8.09019
_cell_length_b       13.5711
_cell_length_c       7.77078
_cell_angle_alpha    90
_cell_angle_beta     90
_cell_angle_gamma    90

_space_group_name_H-M_alt    "P 1"
_space_group_IT_number       1

loop_
  _space_group_symop_operation_xyz
  'x, y, z'

loop_
  _atom_site_type_symbol
  _atom_site_label
  _atom_site_symmetry_multiplicity
  _atom_site_fract_x
  _atom_site_fract_y
  _atom_site_fract_z
  _atom_site_occupancy
  H   H1        1.0  0.96000  0.25000  0.20100  1.0000
  H   H2        1.0  0.46000  0.25000  0.29900  1.0000
  H   H3        1.0  0.54000  0.75000  0.70100  1.0000
  H   H4        1.0  0.03990  0.75000  0.79900  1.0000
  N   N1        1.0  0.07980  0.25000  0.24600  1.0000
  N   N2        1.0  0.58000  0.25000  0.25400  1.0000
  N   N3        1.0  0.42000  0.75000  0.74600  1.0000
  N   N4        1.0  0.92000  0.75000  0.75400  1.0000
  S   S1        1.0  0.25800  0.09970  0.01270  1.0000
  S   S2        1.0  0.25800  0.40000  0.01270  1.0000
  S   S3        1.0  0.93700  0.62400  0.15200  1.0000
  S   S4        1.0  0.93700  0.87600  0.15200  1.0000
  S   S5        1.0  0.37300  0.75000  0.21700  1.0000
  S   S6        1.0  0.66600  0.13800  0.24100  1.0000
  S   S7        1.0  0.66600  0.36200  0.24100  1.0000
  S   S8        1.0  0.16600  0.13800  0.25900  1.0000
  S   S9        1.0  0.16600  0.36200  0.25900  1.0000
  S   S10       1.0  0.87300  0.75000  0.28300  1.0000
  S   S11       1.0  0.43700  0.62400  0.34800  1.0000
  S   S12       1.0  0.43700  0.87600  0.34800  1.0000
  S   S13       1.0  0.75800  0.09970  0.48700  1.0000
  S   S14       1.0  0.75800  0.40000  0.48700  1.0000
  S   S15       1.0  0.24200  0.60000  0.51300  1.0000
  S   S16       1.0  0.24200  0.90000  0.51300  1.0000
  S   S17       1.0  0.56300  0.12400  0.65200  1.0000
  S   S18       1.0  0.56300  0.37600  0.65200  1.0000
  S   S19       1.0  0.12700  0.25000  0.71700  1.0000
  S   S20       1.0  0.83400  0.63800  0.74100  1.0000
  S   S21       1.0  0.83400  0.86200  0.74100  1.0000
  S   S22       1.0  0.33400  0.63800  0.75900  1.0000
  S   S23       1.0  0.33400  0.86200  0.75900  1.0000
  S   S24       1.0  0.62700  0.25000  0.78300  1.0000
  S   S25       1.0  0.06270  0.12400  0.84800  1.0000
  S   S26       1.0  0.06270  0.37600  0.84800  1.0000
  S   S27       1.0  0.74200  0.60000  0.98700  1.0000
  S   S28       1.0  0.74200  0.90000  0.98700  1.0000
