data_image0
_chemical_formula_structural       CsKLi12Na2O16Si4
_chemical_formula_sum              "Cs1 K1 Li12 Na2 O16 Si4"
_cell_length_a       6.36426
_cell_length_b       8.38962
_cell_length_c       8.38962
_cell_angle_alpha    98.2715
_cell_angle_beta     67.7101
_cell_angle_gamma    112.29

_space_group_name_H-M_alt    "P 1"
_space_group_IT_number       1

loop_
  _space_group_symop_operation_xyz
  'x, y, z'

loop_
  _atom_site_type_symbol
  _atom_site_label
  _atom_site_symmetry_multiplicity
  _atom_site_fract_x
  _atom_site_fract_y
  _atom_site_fract_z
  _atom_site_occupancy
  Cs  Cs1       1.0  0.00000  0.00000  0.00000  1.0000
  K   K1        1.0  0.50000  0.00000  0.00000  1.0000
  Li  Li1       1.0  0.01710  0.64600  0.12900  1.0000
  Li  Li2       1.0  0.50000  0.64600  0.12900  1.0000
  Li  Li3       1.0  0.07500  0.36200  0.21200  1.0000
  Li  Li4       1.0  0.14600  0.12900  0.35400  1.0000
  Li  Li5       1.0  0.62900  0.12900  0.35400  1.0000
  Li  Li6       1.0  0.71300  0.78800  0.36200  1.0000
  Li  Li7       1.0  0.28700  0.21200  0.63800  1.0000
  Li  Li8       1.0  0.37100  0.87100  0.64600  1.0000
  Li  Li9       1.0  0.85400  0.87100  0.64600  1.0000
  Li  Li10      1.0  0.92500  0.63800  0.78800  1.0000
  Li  Li11      1.0  0.50000  0.35400  0.87100  1.0000
  Li  Li12      1.0  0.98300  0.35400  0.87100  1.0000
  Na  Na1       1.0  0.25000  0.50000  0.50000  1.0000
  Na  Na2       1.0  0.75000  0.50000  0.50000  1.0000
  O   O1        1.0  0.37700  0.29800  0.11000  1.0000
  O   O2        1.0  0.81100  0.29800  0.11000  1.0000
  O   O3        1.0  0.67200  0.57400  0.22900  1.0000
  O   O4        1.0  0.16200  0.59900  0.27600  1.0000
  O   O5        1.0  0.07880  0.89000  0.29800  1.0000
  O   O6        1.0  0.51300  0.89000  0.29800  1.0000
  O   O7        1.0  0.43700  0.27600  0.40100  1.0000
  O   O8        1.0  0.90100  0.22900  0.42600  1.0000
  O   O9        1.0  0.09870  0.77100  0.57400  1.0000
  O   O10       1.0  0.56300  0.72400  0.59900  1.0000
  O   O11       1.0  0.48700  0.11000  0.70200  1.0000
  O   O12       1.0  0.92100  0.11000  0.70200  1.0000
  O   O13       1.0  0.83800  0.40100  0.72400  1.0000
  O   O14       1.0  0.32800  0.42600  0.77100  1.0000
  O   O15       1.0  0.18900  0.70200  0.89000  1.0000
  O   O16       1.0  0.62300  0.70200  0.89000  1.0000
  Si  Si1       1.0  0.57800  0.36300  0.20600  1.0000
  Si  Si2       1.0  0.21500  0.79400  0.36300  1.0000
  Si  Si3       1.0  0.78500  0.20600  0.63700  1.0000
  Si  Si4       1.0  0.42200  0.63700  0.79400  1.0000
