data_image0
_chemical_formula_structural       C4Cu4O20Sr8
_chemical_formula_sum              "C4 Cu4 O20 Sr8"
_cell_length_a       7.76609
_cell_length_b       7.76609
_cell_length_c       9.27894
_cell_angle_alpha    114.739
_cell_angle_beta     114.739
_cell_angle_gamma    90

_space_group_name_H-M_alt    "P 1"
_space_group_IT_number       1

loop_
  _space_group_symop_operation_xyz
  'x, y, z'

loop_
  _atom_site_type_symbol
  _atom_site_label
  _atom_site_symmetry_multiplicity
  _atom_site_fract_x
  _atom_site_fract_y
  _atom_site_fract_z
  _atom_site_occupancy
  C   C1        1.0  0.01260  0.00553  0.49600  1.0000
  C   C2        1.0  0.48400  0.49100  0.49600  1.0000
  C   C3        1.0  0.99400  0.51600  0.50400  1.0000
  C   C4        1.0  0.50900  0.98700  0.50400  1.0000
  Cu  Cu1       1.0  0.25000  0.25000  0.00022  1.0000
  Cu  Cu2       1.0  0.75000  0.75100  0.00022  1.0000
  Cu  Cu3       1.0  0.75000  0.25000  0.00000  1.0000
  Cu  Cu4       1.0  0.24900  0.75000  0.00000  1.0000
  O   O1        1.0  0.50900  0.25800  0.01640  1.0000
  O   O2        1.0  0.50800  0.75800  0.01640  1.0000
  O   O3        1.0  0.26100  0.01070  0.02250  1.0000
  O   O4        1.0  0.76100  0.01180  0.02250  1.0000
  O   O5        1.0  0.40700  0.48000  0.33900  1.0000
  O   O6        1.0  0.93200  0.85900  0.33900  1.0000
  O   O7        1.0  0.01820  0.44600  0.36200  1.0000
  O   O8        1.0  0.34300  0.91500  0.36200  1.0000
  O   O9        1.0  0.81900  0.51000  0.48800  1.0000
  O   O10       1.0  0.66900  0.97800  0.48800  1.0000
  O   O11       1.0  0.02190  0.18100  0.51200  1.0000
  O   O12       1.0  0.49000  0.33100  0.51200  1.0000
  O   O13       1.0  0.55400  0.65700  0.63800  1.0000
  O   O14       1.0  0.08490  0.98200  0.63800  1.0000
  O   O15       1.0  0.52000  0.06850  0.66100  1.0000
  O   O16       1.0  0.14100  0.59300  0.66100  1.0000
  O   O17       1.0  0.98900  0.23900  0.97700  1.0000
  O   O18       1.0  0.98800  0.73900  0.97700  1.0000
  O   O19       1.0  0.24200  0.49100  0.98400  1.0000
  O   O20       1.0  0.74200  0.49200  0.98400  1.0000
  Sr  Sr1       1.0  0.10300  0.60300  0.20600  1.0000
  Sr  Sr2       1.0  0.61400  0.61400  0.22800  1.0000
  Sr  Sr3       1.0  0.11500  0.11500  0.23100  1.0000
  Sr  Sr4       1.0  0.62200  0.12200  0.24400  1.0000
  Sr  Sr5       1.0  0.87800  0.37800  0.75600  1.0000
  Sr  Sr6       1.0  0.88500  0.88500  0.76900  1.0000
  Sr  Sr7       1.0  0.38600  0.38600  0.77200  1.0000
  Sr  Sr8       1.0  0.39700  0.89700  0.79400  1.0000
