data_image0
_chemical_formula_structural       Li12Na2O16Rb2Si4
_chemical_formula_sum              "Li12 Na2 O16 Rb2 Si4"
_cell_length_a       6.29815
_cell_length_b       7.76425
_cell_length_c       8.42924
_cell_angle_alpha    90.5312
_cell_angle_beta     111.937
_cell_angle_gamma    90

_space_group_name_H-M_alt    "P 1"
_space_group_IT_number       1

loop_
  _space_group_symop_operation_xyz
  'x, y, z'

loop_
  _atom_site_type_symbol
  _atom_site_label
  _atom_site_symmetry_multiplicity
  _atom_site_fract_x
  _atom_site_fract_y
  _atom_site_fract_z
  _atom_site_occupancy
  Li  Li1       1.0  0.06810  0.28500  0.13600  1.0000
  Li  Li2       1.0  0.32600  0.62700  0.14500  1.0000
  Li  Li3       1.0  0.81900  0.62700  0.14500  1.0000
  Li  Li4       1.0  0.64200  0.86400  0.28400  1.0000
  Li  Li5       1.0  0.44400  0.13900  0.37400  1.0000
  Li  Li6       1.0  0.93000  0.13900  0.37400  1.0000
  Li  Li7       1.0  0.07020  0.86100  0.62600  1.0000
  Li  Li8       1.0  0.55600  0.86100  0.62600  1.0000
  Li  Li9       1.0  0.35800  0.13600  0.71600  1.0000
  Li  Li10      1.0  0.18100  0.37300  0.85500  1.0000
  Li  Li11      1.0  0.67400  0.37300  0.85500  1.0000
  Li  Li12      1.0  0.93200  0.71500  0.86400  1.0000
  Na  Na1       1.0  0.25100  0.00000  0.00000  1.0000
  Na  Na2       1.0  0.74900  0.00000  0.00000  1.0000
  O   O1        1.0  0.53300  0.74200  0.06520  1.0000
  O   O2        1.0  0.05140  0.76200  0.10300  1.0000
  O   O3        1.0  0.38200  0.39000  0.20400  1.0000
  O   O4        1.0  0.82200  0.39000  0.20400  1.0000
  O   O5        1.0  0.61600  0.10000  0.23200  1.0000
  O   O6        1.0  0.13100  0.06840  0.26300  1.0000
  O   O7        1.0  0.41500  0.79900  0.39000  1.0000
  O   O8        1.0  0.97400  0.79900  0.39000  1.0000
  O   O9        1.0  0.02550  0.20100  0.61000  1.0000
  O   O10       1.0  0.58500  0.20100  0.61000  1.0000
  O   O11       1.0  0.86900  0.93200  0.73700  1.0000
  O   O12       1.0  0.38400  0.90000  0.76800  1.0000
  O   O13       1.0  0.17800  0.61000  0.79600  1.0000
  O   O14       1.0  0.61800  0.61000  0.79600  1.0000
  O   O15       1.0  0.94900  0.23800  0.89700  1.0000
  O   O16       1.0  0.46700  0.25800  0.93500  1.0000
  Rb  Rb1       1.0  0.24500  0.47000  0.49000  1.0000
  Rb  Rb2       1.0  0.75500  0.53000  0.51000  1.0000
  Si  Si1       1.0  0.57100  0.29200  0.14300  1.0000
  Si  Si2       1.0  0.14600  0.85800  0.29200  1.0000
  Si  Si3       1.0  0.85400  0.14200  0.70800  1.0000
  Si  Si4       1.0  0.42900  0.70800  0.85700  1.0000
