data_image0
_chemical_formula_structural       Li12Na3O16RbSi4
_chemical_formula_sum              "Li12 Na3 O16 Rb1 Si4"
_cell_length_a       6.29233
_cell_length_b       8.28373
_cell_length_c       8.28373
_cell_angle_alpha    98.2938
_cell_angle_beta     67.6787
_cell_angle_gamma    112.321

_space_group_name_H-M_alt    "P 1"
_space_group_IT_number       1

loop_
  _space_group_symop_operation_xyz
  'x, y, z'

loop_
  _atom_site_type_symbol
  _atom_site_label
  _atom_site_symmetry_multiplicity
  _atom_site_fract_x
  _atom_site_fract_y
  _atom_site_fract_z
  _atom_site_occupancy
  Li  Li1       1.0  0.02290  0.66000  0.12800  1.0000
  Li  Li2       1.0  0.50900  0.66000  0.12800  1.0000
  Li  Li3       1.0  0.07370  0.35700  0.20900  1.0000
  Li  Li4       1.0  0.15000  0.12800  0.34000  1.0000
  Li  Li5       1.0  0.63700  0.12800  0.34000  1.0000
  Li  Li6       1.0  0.71700  0.79100  0.35700  1.0000
  Li  Li7       1.0  0.28300  0.20900  0.64300  1.0000
  Li  Li8       1.0  0.36300  0.87200  0.66000  1.0000
  Li  Li9       1.0  0.85000  0.87200  0.66000  1.0000
  Li  Li10      1.0  0.92600  0.64300  0.79100  1.0000
  Li  Li11      1.0  0.49100  0.34000  0.87200  1.0000
  Li  Li12      1.0  0.97700  0.34000  0.87200  1.0000
  Na  Na1       1.0  0.50000  0.00000  0.00000  1.0000
  Na  Na2       1.0  0.25000  0.50000  0.50000  1.0000
  Na  Na3       1.0  0.75000  0.50000  0.50000  1.0000
  O   O1        1.0  0.36600  0.27900  0.11200  1.0000
  O   O2        1.0  0.80100  0.27900  0.11200  1.0000
  O   O3        1.0  0.67500  0.56800  0.21800  1.0000
  O   O4        1.0  0.16000  0.59400  0.27400  1.0000
  O   O5        1.0  0.08730  0.88800  0.27900  1.0000
  O   O6        1.0  0.52200  0.88800  0.27900  1.0000
  O   O7        1.0  0.43400  0.27400  0.40600  1.0000
  O   O8        1.0  0.89300  0.21800  0.43200  1.0000
  O   O9        1.0  0.10700  0.78200  0.56800  1.0000
  O   O10       1.0  0.56600  0.72600  0.59400  1.0000
  O   O11       1.0  0.47800  0.11200  0.72100  1.0000
  O   O12       1.0  0.91300  0.11200  0.72100  1.0000
  O   O13       1.0  0.84000  0.40600  0.72600  1.0000
  O   O14       1.0  0.32500  0.43200  0.78200  1.0000
  O   O15       1.0  0.19900  0.72100  0.88800  1.0000
  O   O16       1.0  0.63400  0.72100  0.88800  1.0000
  Rb  Rb1       1.0  0.00000  0.00000  0.00000  1.0000
  Si  Si1       1.0  0.57500  0.35500  0.20500  1.0000
  Si  Si2       1.0  0.22000  0.79500  0.35500  1.0000
  Si  Si3       1.0  0.78000  0.20500  0.64500  1.0000
  Si  Si4       1.0  0.42500  0.64500  0.79500  1.0000
