data_image0
_chemical_formula_structural       Ag2F8H16Mn2O8
_chemical_formula_sum              "Ag2 F8 H16 Mn2 O8"
_cell_length_a       6.64194
_cell_length_b       7.11277
_cell_length_c       7.22539
_cell_angle_alpha    90
_cell_angle_beta     106.304
_cell_angle_gamma    90

_space_group_name_H-M_alt    "P 1"
_space_group_IT_number       1

loop_
  _space_group_symop_operation_xyz
  'x, y, z'

loop_
  _atom_site_type_symbol
  _atom_site_label
  _atom_site_symmetry_multiplicity
  _atom_site_fract_x
  _atom_site_fract_y
  _atom_site_fract_z
  _atom_site_occupancy
  Ag  Ag1       1.0  0.04190  0.25000  0.05360  1.0000
  Ag  Ag2       1.0  0.95800  0.75000  0.94600  1.0000
  F   F1        1.0  0.59100  0.55500  0.26200  1.0000
  F   F2        1.0  0.59100  0.94500  0.26200  1.0000
  F   F3        1.0  0.16000  0.06280  0.37400  1.0000
  F   F4        1.0  0.16000  0.43700  0.37400  1.0000
  F   F5        1.0  0.84000  0.56300  0.62600  1.0000
  F   F6        1.0  0.84000  0.93700  0.62600  1.0000
  F   F7        1.0  0.40900  0.05500  0.73800  1.0000
  F   F8        1.0  0.40900  0.44500  0.73800  1.0000
  H   H1        1.0  0.71400  0.50500  0.10300  1.0000
  H   H2        1.0  0.71400  0.99500  0.10300  1.0000
  H   H3        1.0  0.35200  0.54700  0.11800  1.0000
  H   H4        1.0  0.35200  0.95300  0.11800  1.0000
  H   H5        1.0  0.06580  0.63600  0.35700  1.0000
  H   H6        1.0  0.06580  0.86400  0.35700  1.0000
  H   H7        1.0  0.57200  0.13800  0.38100  1.0000
  H   H8        1.0  0.57200  0.36200  0.38100  1.0000
  H   H9        1.0  0.42800  0.63800  0.61900  1.0000
  H   H10       1.0  0.42800  0.86200  0.61900  1.0000
  H   H11       1.0  0.93400  0.13600  0.64300  1.0000
  H   H12       1.0  0.93400  0.36400  0.64300  1.0000
  H   H13       1.0  0.64800  0.04650  0.88200  1.0000
  H   H14       1.0  0.64800  0.45300  0.88200  1.0000
  H   H15       1.0  0.28600  0.00504  0.89700  1.0000
  H   H16       1.0  0.28600  0.49500  0.89700  1.0000
  Mn  Mn1       1.0  0.72000  0.75000  0.44500  1.0000
  Mn  Mn2       1.0  0.28000  0.25000  0.55500  1.0000
  O   O1        1.0  0.22900  0.52100  0.00643  1.0000
  O   O2        1.0  0.22900  0.97900  0.00643  1.0000
  O   O3        1.0  0.97600  0.75000  0.32300  1.0000
  O   O4        1.0  0.55700  0.25000  0.45600  1.0000
  O   O5        1.0  0.44300  0.75000  0.54400  1.0000
  O   O6        1.0  0.02440  0.25000  0.67700  1.0000
  O   O7        1.0  0.77100  0.02080  0.99400  1.0000
  O   O8        1.0  0.77100  0.47900  0.99400  1.0000
