data_image0
_chemical_formula_structural       Cs12Fe8S16
_chemical_formula_sum              "Cs12 Fe8 S16"
_cell_length_a       7.5935
_cell_length_b       11.0454
_cell_length_c       13.0229
_cell_angle_alpha    90
_cell_angle_beta     90
_cell_angle_gamma    90

_space_group_name_H-M_alt    "P 1"
_space_group_IT_number       1

loop_
  _space_group_symop_operation_xyz
  'x, y, z'

loop_
  _atom_site_type_symbol
  _atom_site_label
  _atom_site_symmetry_multiplicity
  _atom_site_fract_x
  _atom_site_fract_y
  _atom_site_fract_z
  _atom_site_occupancy
  Cs  Cs1       1.0  0.98800  0.75000  0.05210  1.0000
  Cs  Cs2       1.0  0.10900  0.03080  0.21300  1.0000
  Cs  Cs3       1.0  0.10900  0.46900  0.21300  1.0000
  Cs  Cs4       1.0  0.60900  0.03080  0.28700  1.0000
  Cs  Cs5       1.0  0.60900  0.46900  0.28700  1.0000
  Cs  Cs6       1.0  0.48800  0.75000  0.44800  1.0000
  Cs  Cs7       1.0  0.51200  0.25000  0.55200  1.0000
  Cs  Cs8       1.0  0.39100  0.53100  0.71300  1.0000
  Cs  Cs9       1.0  0.39100  0.96900  0.71300  1.0000
  Cs  Cs10      1.0  0.89100  0.53100  0.78700  1.0000
  Cs  Cs11      1.0  0.89100  0.96900  0.78700  1.0000
  Cs  Cs12      1.0  0.01230  0.25000  0.94800  1.0000
  Fe  Fe1       1.0  0.50900  0.62700  0.00679  1.0000
  Fe  Fe2       1.0  0.50900  0.87300  0.00679  1.0000
  Fe  Fe3       1.0  0.00915  0.62700  0.49300  1.0000
  Fe  Fe4       1.0  0.00915  0.87300  0.49300  1.0000
  Fe  Fe5       1.0  0.99100  0.12700  0.50700  1.0000
  Fe  Fe6       1.0  0.99100  0.37300  0.50700  1.0000
  Fe  Fe7       1.0  0.49100  0.12700  0.99300  1.0000
  Fe  Fe8       1.0  0.49100  0.37300  0.99300  1.0000
  S   S1        1.0  0.72700  0.01070  0.03740  1.0000
  S   S2        1.0  0.72700  0.48900  0.03740  1.0000
  S   S3        1.0  0.40400  0.25000  0.12400  1.0000
  S   S4        1.0  0.45800  0.75000  0.14300  1.0000
  S   S5        1.0  0.95800  0.75000  0.35700  1.0000
  S   S6        1.0  0.90400  0.25000  0.37600  1.0000
  S   S7        1.0  0.22700  0.01070  0.46300  1.0000
  S   S8        1.0  0.22700  0.48900  0.46300  1.0000
  S   S9        1.0  0.77300  0.51100  0.53700  1.0000
  S   S10       1.0  0.77300  0.98900  0.53700  1.0000
  S   S11       1.0  0.09600  0.75000  0.62400  1.0000
  S   S12       1.0  0.04190  0.25000  0.64300  1.0000
  S   S13       1.0  0.54200  0.25000  0.85700  1.0000
  S   S14       1.0  0.59600  0.75000  0.87600  1.0000
  S   S15       1.0  0.27300  0.51100  0.96300  1.0000
  S   S16       1.0  0.27300  0.98900  0.96300  1.0000
