data_image0
_chemical_formula_structural       Na4O16Rb12Ti4
_chemical_formula_sum              "Na4 O16 Rb12 Ti4"
_cell_length_a       10.7153
_cell_length_b       6.38032
_cell_length_c       10.8502
_cell_angle_alpha    90
_cell_angle_beta     112.754
_cell_angle_gamma    90

_space_group_name_H-M_alt    "P 1"
_space_group_IT_number       1

loop_
  _space_group_symop_operation_xyz
  'x, y, z'

loop_
  _atom_site_type_symbol
  _atom_site_label
  _atom_site_symmetry_multiplicity
  _atom_site_fract_x
  _atom_site_fract_y
  _atom_site_fract_z
  _atom_site_occupancy
  Na  Na1       1.0  0.12700  0.61300  0.10800  1.0000
  Na  Na2       1.0  0.87300  0.11300  0.39200  1.0000
  Na  Na3       1.0  0.12700  0.88700  0.60800  1.0000
  Na  Na4       1.0  0.87300  0.38700  0.89200  1.0000
  O   O1        1.0  0.88900  0.65700  0.04020  1.0000
  O   O2        1.0  0.41300  0.25300  0.04730  1.0000
  O   O3        1.0  0.23600  0.92500  0.10200  1.0000
  O   O4        1.0  0.79200  0.98000  0.18000  1.0000
  O   O5        1.0  0.20800  0.48000  0.32000  1.0000
  O   O6        1.0  0.76400  0.42500  0.39800  1.0000
  O   O7        1.0  0.58700  0.75300  0.45300  1.0000
  O   O8        1.0  0.11100  0.15700  0.46000  1.0000
  O   O9        1.0  0.88900  0.84300  0.54000  1.0000
  O   O10       1.0  0.41300  0.24700  0.54700  1.0000
  O   O11       1.0  0.23600  0.57500  0.60200  1.0000
  O   O12       1.0  0.79200  0.52000  0.68000  1.0000
  O   O13       1.0  0.20800  0.02040  0.82000  1.0000
  O   O14       1.0  0.76400  0.07540  0.89800  1.0000
  O   O15       1.0  0.58700  0.74700  0.95300  1.0000
  O   O16       1.0  0.11100  0.34300  0.96000  1.0000
  Rb  Rb1       1.0  0.68100  0.37800  0.10600  1.0000
  Rb  Rb2       1.0  0.03690  0.15400  0.16900  1.0000
  Rb  Rb3       1.0  0.54300  0.88300  0.19000  1.0000
  Rb  Rb4       1.0  0.45700  0.38300  0.31000  1.0000
  Rb  Rb5       1.0  0.96300  0.65400  0.33100  1.0000
  Rb  Rb6       1.0  0.31900  0.87800  0.39400  1.0000
  Rb  Rb7       1.0  0.68100  0.12200  0.60600  1.0000
  Rb  Rb8       1.0  0.03690  0.34600  0.66900  1.0000
  Rb  Rb9       1.0  0.54300  0.61700  0.69000  1.0000
  Rb  Rb10      1.0  0.45700  0.11700  0.81000  1.0000
  Rb  Rb11      1.0  0.96300  0.84600  0.83100  1.0000
  Rb  Rb12      1.0  0.31900  0.62200  0.89400  1.0000
  Ti  Ti1       1.0  0.75800  0.86300  0.01380  1.0000
  Ti  Ti2       1.0  0.24200  0.36300  0.48600  1.0000
  Ti  Ti3       1.0  0.75800  0.63700  0.51400  1.0000
  Ti  Ti4       1.0  0.24200  0.13700  0.98600  1.0000
