data_image0
_chemical_formula_structural       Ba4Co4Lu8O20
_chemical_formula_sum              "Ba4 Co4 Lu8 O20"
_cell_length_a       12.0687
_cell_length_b       5.62503
_cell_length_c       6.92444
_cell_angle_alpha    90
_cell_angle_beta     90
_cell_angle_gamma    90

_space_group_name_H-M_alt    "P 1"
_space_group_IT_number       1

loop_
  _space_group_symop_operation_xyz
  'x, y, z'

loop_
  _atom_site_type_symbol
  _atom_site_label
  _atom_site_symmetry_multiplicity
  _atom_site_fract_x
  _atom_site_fract_y
  _atom_site_fract_z
  _atom_site_occupancy
  Ba  Ba1       1.0  0.09940  0.75000  0.07930  1.0000
  Ba  Ba2       1.0  0.59900  0.75000  0.42100  1.0000
  Ba  Ba3       1.0  0.40100  0.25000  0.57900  1.0000
  Ba  Ba4       1.0  0.90100  0.25000  0.92100  1.0000
  Co  Co1       1.0  0.84600  0.75000  0.19300  1.0000
  Co  Co2       1.0  0.34600  0.75000  0.30700  1.0000
  Co  Co3       1.0  0.65400  0.25000  0.69300  1.0000
  Co  Co4       1.0  0.15400  0.25000  0.80700  1.0000
  Lu  Lu1       1.0  0.57400  0.25000  0.09730  1.0000
  Lu  Lu2       1.0  0.29200  0.25000  0.12100  1.0000
  Lu  Lu3       1.0  0.79200  0.25000  0.37900  1.0000
  Lu  Lu4       1.0  0.07420  0.25000  0.40300  1.0000
  Lu  Lu5       1.0  0.92600  0.75000  0.59700  1.0000
  Lu  Lu6       1.0  0.20800  0.75000  0.62100  1.0000
  Lu  Lu7       1.0  0.70800  0.75000  0.87900  1.0000
  Lu  Lu8       1.0  0.42600  0.75000  0.90300  1.0000
  O   O1        1.0  0.10400  0.25000  0.08110  1.0000
  O   O2        1.0  0.72400  0.00138  0.13500  1.0000
  O   O3        1.0  0.72400  0.49900  0.13500  1.0000
  O   O4        1.0  0.43500  0.50000  0.16500  1.0000
  O   O5        1.0  0.43500  0.00000  0.16500  1.0000
  O   O6        1.0  0.93500  0.50000  0.33500  1.0000
  O   O7        1.0  0.93500  0.00000  0.33500  1.0000
  O   O8        1.0  0.22400  0.00138  0.36500  1.0000
  O   O9        1.0  0.22400  0.49900  0.36500  1.0000
  O   O10       1.0  0.60400  0.25000  0.41900  1.0000
  O   O11       1.0  0.39600  0.75000  0.58100  1.0000
  O   O12       1.0  0.77600  0.50100  0.63500  1.0000
  O   O13       1.0  0.77600  0.99900  0.63500  1.0000
  O   O14       1.0  0.06520  0.00034  0.66500  1.0000
  O   O15       1.0  0.06520  0.50000  0.66500  1.0000
  O   O16       1.0  0.56500  0.00034  0.83500  1.0000
  O   O17       1.0  0.56500  0.50000  0.83500  1.0000
  O   O18       1.0  0.27600  0.50100  0.86500  1.0000
  O   O19       1.0  0.27600  0.99900  0.86500  1.0000
  O   O20       1.0  0.89600  0.75000  0.91900  1.0000
