data_image0
_chemical_formula_structural       Cs4Na12O16Ti4
_chemical_formula_sum              "Cs4 Na12 O16 Ti4"
_cell_length_a       11.5695
_cell_length_b       8.50876
_cell_length_c       6.48235
_cell_angle_alpha    100.615
_cell_angle_beta     108.728
_cell_angle_gamma    91.8602

_space_group_name_H-M_alt    "P 1"
_space_group_IT_number       1

loop_
  _space_group_symop_operation_xyz
  'x, y, z'

loop_
  _atom_site_type_symbol
  _atom_site_label
  _atom_site_symmetry_multiplicity
  _atom_site_fract_x
  _atom_site_fract_y
  _atom_site_fract_z
  _atom_site_occupancy
  Cs  Cs1       1.0  0.12400  0.38200  0.09470  1.0000
  Cs  Cs2       1.0  0.37400  0.13800  0.32600  1.0000
  Cs  Cs3       1.0  0.62600  0.86200  0.67400  1.0000
  Cs  Cs4       1.0  0.87600  0.61800  0.90500  1.0000
  Na  Na1       1.0  0.89600  0.05780  0.09580  1.0000
  Na  Na2       1.0  0.60800  0.66600  0.10400  1.0000
  Na  Na3       1.0  0.62500  0.04320  0.19400  1.0000
  Na  Na4       1.0  0.87400  0.42900  0.33700  1.0000
  Na  Na5       1.0  0.14700  0.83500  0.35200  1.0000
  Na  Na6       1.0  0.60200  0.44200  0.41600  1.0000
  Na  Na7       1.0  0.39800  0.55800  0.58400  1.0000
  Na  Na8       1.0  0.85300  0.16500  0.64800  1.0000
  Na  Na9       1.0  0.12600  0.57100  0.66300  1.0000
  Na  Na10      1.0  0.37500  0.95700  0.80600  1.0000
  Na  Na11      1.0  0.39200  0.33400  0.89600  1.0000
  Na  Na12      1.0  0.10400  0.94200  0.90400  1.0000
  O   O1        1.0  0.19300  0.71400  0.01200  1.0000
  O   O2        1.0  0.46100  0.83800  0.10600  1.0000
  O   O3        1.0  0.41200  0.51400  0.21100  1.0000
  O   O4        1.0  0.78500  0.88800  0.21300  1.0000
  O   O5        1.0  0.10200  0.08090  0.27700  1.0000
  O   O6        1.0  0.99700  0.68800  0.40700  1.0000
  O   O7        1.0  0.75100  0.62000  0.42200  1.0000
  O   O8        1.0  0.35500  0.80100  0.47200  1.0000
  O   O9        1.0  0.64500  0.19900  0.52800  1.0000
  O   O10       1.0  0.24900  0.38000  0.57800  1.0000
  O   O11       1.0  0.00263  0.31200  0.59300  1.0000
  O   O12       1.0  0.89800  0.91900  0.72300  1.0000
  O   O13       1.0  0.21500  0.11200  0.78700  1.0000
  O   O14       1.0  0.58800  0.48600  0.78900  1.0000
  O   O15       1.0  0.53900  0.16200  0.89400  1.0000
  O   O16       1.0  0.80700  0.28600  0.98800  1.0000
  Ti  Ti1       1.0  0.35500  0.71400  0.18800  1.0000
  Ti  Ti2       1.0  0.86300  0.78800  0.44400  1.0000
  Ti  Ti3       1.0  0.13700  0.21200  0.55600  1.0000
  Ti  Ti4       1.0  0.64500  0.28600  0.81200  1.0000
