data_image0
_chemical_formula_structural       Co2Li2O6
_chemical_formula_sum              "Co2 Li2 O6"
_cell_length_a       4.84644
_cell_length_b       4.84644
_cell_length_c       5.00446
_cell_angle_alpha    99.9756
_cell_angle_beta     99.9756
_cell_angle_gamma    120.073

_space_group_name_H-M_alt    "P 1"
_space_group_IT_number       1

loop_
  _space_group_symop_operation_xyz
  'x, y, z'

loop_
  _atom_site_type_symbol
  _atom_site_label
  _atom_site_symmetry_multiplicity
  _atom_site_fract_x
  _atom_site_fract_y
  _atom_site_fract_z
  _atom_site_occupancy
  Co  Co1       1.0  0.83500  0.16500  0.00000  1.0000
  Co  Co2       1.0  0.16500  0.83500  0.00000  1.0000
  Li  Li1       1.0  0.50000  0.50000  0.00000  1.0000
  Li  Li2       1.0  0.00018  0.00018  0.50000  1.0000
  O   O1        1.0  0.94500  0.59100  0.21100  1.0000
  O   O2        1.0  0.59100  0.94500  0.21100  1.0000
  O   O3        1.0  0.20800  0.20800  0.22000  1.0000
  O   O4        1.0  0.79200  0.79200  0.78000  1.0000
  O   O5        1.0  0.40900  0.05510  0.78900  1.0000
  O   O6        1.0  0.05510  0.40900  0.78900  1.0000
