data_image0
_chemical_formula_structural       Ag20Cs4Te12
_chemical_formula_sum              "Ag20 Cs4 Te12"
_cell_length_a       14.713
_cell_length_b       14.713
_cell_length_c       4.60641
_cell_angle_alpha    90
_cell_angle_beta     90
_cell_angle_gamma    90

_space_group_name_H-M_alt    "P 1"
_space_group_IT_number       1

loop_
  _space_group_symop_operation_xyz
  'x, y, z'

loop_
  _atom_site_type_symbol
  _atom_site_label
  _atom_site_symmetry_multiplicity
  _atom_site_fract_x
  _atom_site_fract_y
  _atom_site_fract_z
  _atom_site_occupancy
  Ag  Ag1       1.0  0.28600  0.08140  0.00000  1.0000
  Ag  Ag2       1.0  0.48300  0.10400  0.00000  1.0000
  Ag  Ag3       1.0  0.08140  0.28600  0.00000  1.0000
  Ag  Ag4       1.0  0.67700  0.32300  0.00000  1.0000
  Ag  Ag5       1.0  0.10400  0.48300  0.00000  1.0000
  Ag  Ag6       1.0  0.89600  0.51700  0.00000  1.0000
  Ag  Ag7       1.0  0.32300  0.67700  0.00000  1.0000
  Ag  Ag8       1.0  0.91900  0.71400  0.00000  1.0000
  Ag  Ag9       1.0  0.51700  0.89600  0.00000  1.0000
  Ag  Ag10      1.0  0.71400  0.91900  0.00000  1.0000
  Ag  Ag11      1.0  0.60400  0.01680  0.50000  1.0000
  Ag  Ag12      1.0  0.17700  0.17700  0.50000  1.0000
  Ag  Ag13      1.0  0.58100  0.21400  0.50000  1.0000
  Ag  Ag14      1.0  0.98300  0.39600  0.50000  1.0000
  Ag  Ag15      1.0  0.78600  0.41900  0.50000  1.0000
  Ag  Ag16      1.0  0.21400  0.58100  0.50000  1.0000
  Ag  Ag17      1.0  0.01680  0.60400  0.50000  1.0000
  Ag  Ag18      1.0  0.41900  0.78600  0.50000  1.0000
  Ag  Ag19      1.0  0.82300  0.82300  0.50000  1.0000
  Ag  Ag20      1.0  0.39600  0.98300  0.50000  1.0000
  Cs  Cs1       1.0  0.38700  0.38700  0.00000  1.0000
  Cs  Cs2       1.0  0.61300  0.61300  0.00000  1.0000
  Cs  Cs3       1.0  0.88700  0.11300  0.50000  1.0000
  Cs  Cs4       1.0  0.11300  0.88700  0.50000  1.0000
  Te  Te1       1.0  0.09800  0.09800  0.00000  1.0000
  Te  Te2       1.0  0.67400  0.11800  0.00000  1.0000
  Te  Te3       1.0  0.88200  0.32600  0.00000  1.0000
  Te  Te4       1.0  0.11800  0.67400  0.00000  1.0000
  Te  Te5       1.0  0.32600  0.88200  0.00000  1.0000
  Te  Te6       1.0  0.90200  0.90200  0.00000  1.0000
  Te  Te7       1.0  0.38200  0.17400  0.50000  1.0000
  Te  Te8       1.0  0.17400  0.38200  0.50000  1.0000
  Te  Te9       1.0  0.59800  0.40200  0.50000  1.0000
  Te  Te10      1.0  0.40200  0.59800  0.50000  1.0000
  Te  Te11      1.0  0.82600  0.61800  0.50000  1.0000
  Te  Te12      1.0  0.61800  0.82600  0.50000  1.0000
