data_image0
_chemical_formula_structural       Er4F28Pt4
_chemical_formula_sum              "Er4 F28 Pt4"
_cell_length_a       10.8057
_cell_length_b       5.2078
_cell_length_c       8.54802
_cell_angle_alpha    90
_cell_angle_beta     106.962
_cell_angle_gamma    90

_space_group_name_H-M_alt    "P 1"
_space_group_IT_number       1

loop_
  _space_group_symop_operation_xyz
  'x, y, z'

loop_
  _atom_site_type_symbol
  _atom_site_label
  _atom_site_symmetry_multiplicity
  _atom_site_fract_x
  _atom_site_fract_y
  _atom_site_fract_z
  _atom_site_occupancy
  Er  Er1       1.0  0.26300  0.73600  0.07750  1.0000
  Er  Er2       1.0  0.23700  0.23600  0.42300  1.0000
  Er  Er3       1.0  0.76300  0.76400  0.57700  1.0000
  Er  Er4       1.0  0.73700  0.26400  0.92300  1.0000
  F   F1        1.0  0.04780  0.74900  0.06210  1.0000
  F   F2        1.0  0.81500  0.93000  0.07360  1.0000
  F   F3        1.0  0.40800  0.07630  0.10600  1.0000
  F   F4        1.0  0.63900  0.29300  0.11300  1.0000
  F   F5        1.0  0.86600  0.43800  0.15600  1.0000
  F   F6        1.0  0.22800  0.38700  0.18900  1.0000
  F   F7        1.0  0.46100  0.58800  0.19400  1.0000
  F   F8        1.0  0.03860  0.08830  0.30600  1.0000
  F   F9        1.0  0.27200  0.88700  0.31100  1.0000
  F   F10       1.0  0.63400  0.93800  0.34400  1.0000
  F   F11       1.0  0.86100  0.79300  0.38700  1.0000
  F   F12       1.0  0.09200  0.57600  0.39400  1.0000
  F   F13       1.0  0.68500  0.43000  0.42600  1.0000
  F   F14       1.0  0.45200  0.24900  0.43800  1.0000
  F   F15       1.0  0.54800  0.75100  0.56200  1.0000
  F   F16       1.0  0.31500  0.57000  0.57400  1.0000
  F   F17       1.0  0.90800  0.42400  0.60600  1.0000
  F   F18       1.0  0.13900  0.20700  0.61300  1.0000
  F   F19       1.0  0.36600  0.06240  0.65600  1.0000
  F   F20       1.0  0.72800  0.11300  0.68900  1.0000
  F   F21       1.0  0.96100  0.91200  0.69400  1.0000
  F   F22       1.0  0.53900  0.41200  0.80600  1.0000
  F   F23       1.0  0.77200  0.61300  0.81100  1.0000
  F   F24       1.0  0.13400  0.56200  0.84400  1.0000
  F   F25       1.0  0.36100  0.70700  0.88700  1.0000
  F   F26       1.0  0.59200  0.92400  0.89400  1.0000
  F   F27       1.0  0.18500  0.07000  0.92600  1.0000
  F   F28       1.0  0.95200  0.25100  0.93800  1.0000
  Pt  Pt1       1.0  0.95800  0.75800  0.22900  1.0000
  Pt  Pt2       1.0  0.54200  0.25800  0.27100  1.0000
  Pt  Pt3       1.0  0.45800  0.74200  0.72900  1.0000
  Pt  Pt4       1.0  0.04200  0.24200  0.77100  1.0000
