data_image0
_chemical_formula_structural       Nd8O24W4
_chemical_formula_sum              "Nd8 O24 W4"
_cell_length_a       5.41031
_cell_length_b       9.26141
_cell_length_c       10.1427
_cell_angle_alpha    90
_cell_angle_beta     90
_cell_angle_gamma    90

_space_group_name_H-M_alt    "P 1"
_space_group_IT_number       1

loop_
  _space_group_symop_operation_xyz
  'x, y, z'

loop_
  _atom_site_type_symbol
  _atom_site_label
  _atom_site_symmetry_multiplicity
  _atom_site_fract_x
  _atom_site_fract_y
  _atom_site_fract_z
  _atom_site_occupancy
  Nd  Nd1       1.0  0.02710  0.39600  0.03650  1.0000
  Nd  Nd2       1.0  0.47000  0.71900  0.13100  1.0000
  Nd  Nd3       1.0  0.53000  0.21900  0.36900  1.0000
  Nd  Nd4       1.0  0.97300  0.89600  0.46400  1.0000
  Nd  Nd5       1.0  0.47300  0.60400  0.53600  1.0000
  Nd  Nd6       1.0  0.03020  0.28100  0.63100  1.0000
  Nd  Nd7       1.0  0.97000  0.78100  0.86900  1.0000
  Nd  Nd8       1.0  0.52700  0.10400  0.96400  1.0000
  O   O1        1.0  0.25400  0.91000  0.00897  1.0000
  O   O2        1.0  0.93500  0.15000  0.02210  1.0000
  O   O3        1.0  0.77900  0.88900  0.06380  1.0000
  O   O4        1.0  0.30700  0.13800  0.17900  1.0000
  O   O5        1.0  0.17400  0.54900  0.21400  1.0000
  O   O6        1.0  0.81300  0.36300  0.23800  1.0000
  O   O7        1.0  0.18700  0.86300  0.26200  1.0000
  O   O8        1.0  0.82600  0.04900  0.28600  1.0000
  O   O9        1.0  0.69300  0.63800  0.32100  1.0000
  O   O10       1.0  0.22100  0.38900  0.43600  1.0000
  O   O11       1.0  0.06530  0.65000  0.47800  1.0000
  O   O12       1.0  0.74600  0.41000  0.49100  1.0000
  O   O13       1.0  0.24600  0.09050  0.50900  1.0000
  O   O14       1.0  0.56500  0.85000  0.52200  1.0000
  O   O15       1.0  0.72100  0.11100  0.56400  1.0000
  O   O16       1.0  0.19300  0.86200  0.67900  1.0000
  O   O17       1.0  0.32600  0.45100  0.71400  1.0000
  O   O18       1.0  0.68700  0.63700  0.73800  1.0000
  O   O19       1.0  0.31300  0.13700  0.76200  1.0000
  O   O20       1.0  0.67400  0.95100  0.78600  1.0000
  O   O21       1.0  0.80700  0.36200  0.82100  1.0000
  O   O22       1.0  0.27900  0.61100  0.93600  1.0000
  O   O23       1.0  0.43500  0.35000  0.97800  1.0000
  O   O24       1.0  0.75400  0.59000  0.99100  1.0000
  W   W1        1.0  0.04300  0.00416  0.14900  1.0000
  W   W2        1.0  0.95700  0.50400  0.35100  1.0000
  W   W3        1.0  0.45700  0.99600  0.64900  1.0000
  W   W4        1.0  0.54300  0.49600  0.85100  1.0000
