data_image0
_chemical_formula_structural       Co4Li8O11
_chemical_formula_sum              "Co4 Li8 O11"
_cell_length_a       9.965
_cell_length_b       4.98343
_cell_length_c       4.94271
_cell_angle_alpha    99.4463
_cell_angle_beta     98.4555
_cell_angle_gamma    120.869

_space_group_name_H-M_alt    "P 1"
_space_group_IT_number       1

loop_
  _space_group_symop_operation_xyz
  'x, y, z'

loop_
  _atom_site_type_symbol
  _atom_site_label
  _atom_site_symmetry_multiplicity
  _atom_site_fract_x
  _atom_site_fract_y
  _atom_site_fract_z
  _atom_site_occupancy
  Co  Co1       1.0  0.08050  0.82200  0.98900  1.0000
  Co  Co2       1.0  0.41600  0.16300  0.99200  1.0000
  Co  Co3       1.0  0.57600  0.83400  0.99300  1.0000
  Co  Co4       1.0  0.90900  0.15500  0.99500  1.0000
  Li  Li1       1.0  0.75000  0.49500  0.00575  1.0000
  Li  Li2       1.0  0.50000  0.99800  0.49600  1.0000
  Li  Li3       1.0  0.82800  0.32500  0.49700  1.0000
  Li  Li4       1.0  0.66800  0.65200  0.50100  1.0000
  Li  Li5       1.0  0.17800  0.72300  0.50900  1.0000
  Li  Li6       1.0  0.35000  0.36000  0.51400  1.0000
  Li  Li7       1.0  0.99400  0.97500  0.52200  1.0000
  Li  Li8       1.0  0.25600  0.51800  0.97200  1.0000
  O   O1        1.0  0.47100  0.60600  0.22600  1.0000
  O   O2        1.0  0.28000  0.94200  0.22800  1.0000
  O   O3        1.0  0.61400  0.21800  0.23200  1.0000
  O   O4        1.0  0.97000  0.56800  0.23200  1.0000
  O   O5        1.0  0.82200  0.95400  0.24500  1.0000
  O   O6        1.0  0.37300  0.76200  0.73500  1.0000
  O   O7        1.0  0.69800  0.05250  0.76600  1.0000
  O   O8        1.0  0.53800  0.43200  0.77200  1.0000
  O   O9        1.0  0.19900  0.08120  0.77700  1.0000
  O   O10       1.0  0.02850  0.37500  0.78000  1.0000
  O   O11       1.0  0.88700  0.76400  0.78600  1.0000
