data_image0
_chemical_formula_structural       Al4Cd4F24Na4
_chemical_formula_sum              "Al4 Cd4 F24 Na4"
_cell_length_a       12.2841
_cell_length_b       3.60749
_cell_length_c       9.67015
_cell_angle_alpha    90
_cell_angle_beta     90
_cell_angle_gamma    90

_space_group_name_H-M_alt    "P 1"
_space_group_IT_number       1

loop_
  _space_group_symop_operation_xyz
  'x, y, z'

loop_
  _atom_site_type_symbol
  _atom_site_label
  _atom_site_symmetry_multiplicity
  _atom_site_fract_x
  _atom_site_fract_y
  _atom_site_fract_z
  _atom_site_occupancy
  Al  Al1       1.0  0.16100  0.75000  0.18000  1.0000
  Al  Al2       1.0  0.66100  0.75000  0.32000  1.0000
  Al  Al3       1.0  0.33900  0.25000  0.68000  1.0000
  Al  Al4       1.0  0.83900  0.25000  0.82000  1.0000
  Cd  Cd1       1.0  0.38200  0.75000  0.00803  1.0000
  Cd  Cd2       1.0  0.88200  0.75000  0.49200  1.0000
  Cd  Cd3       1.0  0.11800  0.25000  0.50800  1.0000
  Cd  Cd4       1.0  0.61800  0.25000  0.99200  1.0000
  F   F1        1.0  0.20100  0.75000  0.00078  1.0000
  F   F2        1.0  0.46000  0.25000  0.11000  1.0000
  F   F3        1.0  0.02150  0.75000  0.13300  1.0000
  F   F4        1.0  0.63400  0.75000  0.13600  1.0000
  F   F5        1.0  0.16300  0.25000  0.18600  1.0000
  F   F6        1.0  0.30700  0.75000  0.22400  1.0000
  F   F7        1.0  0.80700  0.75000  0.27600  1.0000
  F   F8        1.0  0.66300  0.25000  0.31400  1.0000
  F   F9        1.0  0.13400  0.75000  0.36400  1.0000
  F   F10       1.0  0.52200  0.75000  0.36700  1.0000
  F   F11       1.0  0.96000  0.25000  0.39000  1.0000
  F   F12       1.0  0.70100  0.75000  0.49900  1.0000
  F   F13       1.0  0.29900  0.25000  0.50100  1.0000
  F   F14       1.0  0.04020  0.75000  0.61000  1.0000
  F   F15       1.0  0.47800  0.25000  0.63300  1.0000
  F   F16       1.0  0.86600  0.25000  0.63600  1.0000
  F   F17       1.0  0.33700  0.75000  0.68600  1.0000
  F   F18       1.0  0.19300  0.25000  0.72400  1.0000
  F   F19       1.0  0.69300  0.25000  0.77600  1.0000
  F   F20       1.0  0.83700  0.75000  0.81400  1.0000
  F   F21       1.0  0.36600  0.25000  0.86400  1.0000
  F   F22       1.0  0.97800  0.25000  0.86700  1.0000
  F   F23       1.0  0.54000  0.75000  0.89000  1.0000
  F   F24       1.0  0.79900  0.25000  0.99900  1.0000
  Na  Na1       1.0  0.91500  0.25000  0.16700  1.0000
  Na  Na2       1.0  0.41500  0.25000  0.33300  1.0000
  Na  Na3       1.0  0.58500  0.75000  0.66700  1.0000
  Na  Na4       1.0  0.08510  0.75000  0.83300  1.0000
