data_image0
_chemical_formula_structural       F24O8Sb4
_chemical_formula_sum              "F24 O8 Sb4"
_cell_length_a       8.16517
_cell_length_b       8.16517
_cell_length_c       8.16517
_cell_angle_alpha    109.471
_cell_angle_beta     109.471
_cell_angle_gamma    109.471

_space_group_name_H-M_alt    "P 1"
_space_group_IT_number       1

loop_
  _space_group_symop_operation_xyz
  'x, y, z'

loop_
  _atom_site_type_symbol
  _atom_site_label
  _atom_site_symmetry_multiplicity
  _atom_site_fract_x
  _atom_site_fract_y
  _atom_site_fract_z
  _atom_site_occupancy
  F   F1        1.0  0.33200  0.60000  0.04930  1.0000
  F   F2        1.0  0.10000  0.26900  0.05120  1.0000
  F   F3        1.0  0.26900  0.05120  0.10000  1.0000
  F   F4        1.0  0.71800  0.76900  0.16800  1.0000
  F   F5        1.0  0.54900  0.44900  0.21800  1.0000
  F   F6        1.0  0.83200  0.28200  0.23100  1.0000
  F   F7        1.0  0.05120  0.10000  0.26900  1.0000
  F   F8        1.0  0.23100  0.83200  0.28200  1.0000
  F   F9        1.0  0.60000  0.04930  0.33200  1.0000
  F   F10       1.0  0.95100  0.66800  0.40000  1.0000
  F   F11       1.0  0.21800  0.54900  0.44900  1.0000
  F   F12       1.0  0.55100  0.78200  0.45100  1.0000
  F   F13       1.0  0.44900  0.21800  0.54900  1.0000
  F   F14       1.0  0.78200  0.45100  0.55100  1.0000
  F   F15       1.0  0.04930  0.33200  0.60000  1.0000
  F   F16       1.0  0.40000  0.95100  0.66800  1.0000
  F   F17       1.0  0.76900  0.16800  0.71800  1.0000
  F   F18       1.0  0.94900  0.90000  0.73100  1.0000
  F   F19       1.0  0.16800  0.71800  0.76900  1.0000
  F   F20       1.0  0.45100  0.55100  0.78200  1.0000
  F   F21       1.0  0.28200  0.23100  0.83200  1.0000
  F   F22       1.0  0.73100  0.94900  0.90000  1.0000
  F   F23       1.0  0.90000  0.73100  0.94900  1.0000
  F   F24       1.0  0.66800  0.40000  0.95100  1.0000
  O   O1        1.0  0.50000  0.07120  0.00000  1.0000
  O   O2        1.0  0.50000  0.92900  0.00000  1.0000
  O   O3        1.0  0.00000  0.50000  0.07120  1.0000
  O   O4        1.0  0.42900  0.42900  0.42900  1.0000
  O   O5        1.0  0.07120  0.00000  0.50000  1.0000
  O   O6        1.0  0.92900  0.00000  0.50000  1.0000
  O   O7        1.0  0.57100  0.57100  0.57100  1.0000
  O   O8        1.0  0.00000  0.50000  0.92900  1.0000
  Sb  Sb1       1.0  0.00000  0.00000  0.00000  1.0000
  Sb  Sb2       1.0  0.50000  0.50000  0.00000  1.0000
  Sb  Sb3       1.0  0.50000  0.00000  0.50000  1.0000
  Sb  Sb4       1.0  0.00000  0.50000  0.50000  1.0000
