data_image0
_chemical_formula_structural       Fe8Rb12S16
_chemical_formula_sum              "Fe8 Rb12 S16"
_cell_length_a       7.40524
_cell_length_b       10.8685
_cell_length_c       12.1173
_cell_angle_alpha    90
_cell_angle_beta     90
_cell_angle_gamma    90

_space_group_name_H-M_alt    "P 1"
_space_group_IT_number       1

loop_
  _space_group_symop_operation_xyz
  'x, y, z'

loop_
  _atom_site_type_symbol
  _atom_site_label
  _atom_site_symmetry_multiplicity
  _atom_site_fract_x
  _atom_site_fract_y
  _atom_site_fract_z
  _atom_site_occupancy
  Fe  Fe1       1.0  0.55200  0.13000  0.02670  1.0000
  Fe  Fe2       1.0  0.55200  0.37000  0.02670  1.0000
  Fe  Fe3       1.0  0.05170  0.13000  0.47300  1.0000
  Fe  Fe4       1.0  0.05170  0.37000  0.47300  1.0000
  Fe  Fe5       1.0  0.94800  0.63000  0.52700  1.0000
  Fe  Fe6       1.0  0.94800  0.87000  0.52700  1.0000
  Fe  Fe7       1.0  0.44800  0.63000  0.97300  1.0000
  Fe  Fe8       1.0  0.44800  0.87000  0.97300  1.0000
  Rb  Rb1       1.0  0.07080  0.07190  0.13800  1.0000
  Rb  Rb2       1.0  0.07080  0.42800  0.13800  1.0000
  Rb  Rb3       1.0  0.90300  0.75000  0.22900  1.0000
  Rb  Rb4       1.0  0.40300  0.75000  0.27100  1.0000
  Rb  Rb5       1.0  0.57100  0.07190  0.36200  1.0000
  Rb  Rb6       1.0  0.57100  0.42800  0.36200  1.0000
  Rb  Rb7       1.0  0.42900  0.57200  0.63800  1.0000
  Rb  Rb8       1.0  0.42900  0.92800  0.63800  1.0000
  Rb  Rb9       1.0  0.59700  0.25000  0.72900  1.0000
  Rb  Rb10      1.0  0.09670  0.25000  0.77100  1.0000
  Rb  Rb11      1.0  0.92900  0.57200  0.86200  1.0000
  Rb  Rb12      1.0  0.92900  0.92800  0.86200  1.0000
  S   S1        1.0  0.21100  0.75000  0.03210  1.0000
  S   S2        1.0  0.63900  0.55000  0.10600  1.0000
  S   S3        1.0  0.63900  0.95000  0.10600  1.0000
  S   S4        1.0  0.42300  0.25000  0.15600  1.0000
  S   S5        1.0  0.92300  0.25000  0.34400  1.0000
  S   S6        1.0  0.13900  0.55000  0.39400  1.0000
  S   S7        1.0  0.13900  0.95000  0.39400  1.0000
  S   S8        1.0  0.71100  0.75000  0.46800  1.0000
  S   S9        1.0  0.28900  0.25000  0.53200  1.0000
  S   S10       1.0  0.86100  0.04990  0.60600  1.0000
  S   S11       1.0  0.86100  0.45000  0.60600  1.0000
  S   S12       1.0  0.07740  0.75000  0.65600  1.0000
  S   S13       1.0  0.57700  0.75000  0.84400  1.0000
  S   S14       1.0  0.36100  0.04990  0.89400  1.0000
  S   S15       1.0  0.36100  0.45000  0.89400  1.0000
  S   S16       1.0  0.78900  0.25000  0.96800  1.0000
