data_image0
_chemical_formula_structural       Mo4O24Tb8
_chemical_formula_sum              "Mo4 O24 Tb8"
_cell_length_a       5.36458
_cell_length_b       9.8788
_cell_length_c       9.8788
_cell_angle_alpha    67.9894
_cell_angle_beta     105.023
_cell_angle_gamma    105.023

_space_group_name_H-M_alt    "P 1"
_space_group_IT_number       1

loop_
  _space_group_symop_operation_xyz
  'x, y, z'

loop_
  _atom_site_type_symbol
  _atom_site_label
  _atom_site_symmetry_multiplicity
  _atom_site_fract_x
  _atom_site_fract_y
  _atom_site_fract_z
  _atom_site_occupancy
  Mo  Mo1       1.0  0.93800  0.29600  0.01260  1.0000
  Mo  Mo2       1.0  0.43800  0.01260  0.29600  1.0000
  Mo  Mo3       1.0  0.56200  0.98700  0.70400  1.0000
  Mo  Mo4       1.0  0.06210  0.70400  0.98700  1.0000
  O   O1        1.0  0.24100  0.43400  0.02530  1.0000
  O   O2        1.0  0.98800  0.11100  0.04980  1.0000
  O   O3        1.0  0.48800  0.04980  0.11100  1.0000
  O   O4        1.0  0.37200  0.67300  0.11600  1.0000
  O   O5        1.0  0.86100  0.28700  0.18500  1.0000
  O   O6        1.0  0.91700  0.66300  0.19100  1.0000
  O   O7        1.0  0.36100  0.18500  0.28700  1.0000
  O   O8        1.0  0.12800  0.88400  0.32700  1.0000
  O   O9        1.0  0.58300  0.80900  0.33700  1.0000
  O   O10       1.0  0.42100  0.42600  0.39100  1.0000
  O   O11       1.0  0.92100  0.39100  0.42600  1.0000
  O   O12       1.0  0.74100  0.02530  0.43400  1.0000
  O   O13       1.0  0.25900  0.97500  0.56600  1.0000
  O   O14       1.0  0.07870  0.60900  0.57400  1.0000
  O   O15       1.0  0.57900  0.57400  0.60900  1.0000
  O   O16       1.0  0.41700  0.19100  0.66300  1.0000
  O   O17       1.0  0.87200  0.11600  0.67300  1.0000
  O   O18       1.0  0.63900  0.81500  0.71300  1.0000
  O   O19       1.0  0.08330  0.33700  0.80900  1.0000
  O   O20       1.0  0.13900  0.71300  0.81500  1.0000
  O   O21       1.0  0.62800  0.32700  0.88400  1.0000
  O   O22       1.0  0.51200  0.95000  0.88900  1.0000
  O   O23       1.0  0.01250  0.88900  0.95000  1.0000
  O   O24       1.0  0.75900  0.56600  0.97500  1.0000
  Tb  Tb1       1.0  0.75000  0.86500  0.13500  1.0000
  Tb  Tb2       1.0  0.62000  0.44800  0.21500  1.0000
  Tb  Tb3       1.0  0.25000  0.60800  0.39200  1.0000
  Tb  Tb4       1.0  0.12000  0.21500  0.44800  1.0000
  Tb  Tb5       1.0  0.88000  0.78500  0.55200  1.0000
  Tb  Tb6       1.0  0.75000  0.39200  0.60800  1.0000
  Tb  Tb7       1.0  0.38000  0.55200  0.78500  1.0000
  Tb  Tb8       1.0  0.25000  0.13500  0.86500  1.0000
