data_image0
_chemical_formula_structural       Fe8K12S16
_chemical_formula_sum              "Fe8 K12 S16"
_cell_length_a       7.14132
_cell_length_b       10.7249
_cell_length_c       11.6353
_cell_angle_alpha    90
_cell_angle_beta     90
_cell_angle_gamma    90

_space_group_name_H-M_alt    "P 1"
_space_group_IT_number       1

loop_
  _space_group_symop_operation_xyz
  'x, y, z'

loop_
  _atom_site_type_symbol
  _atom_site_label
  _atom_site_symmetry_multiplicity
  _atom_site_fract_x
  _atom_site_fract_y
  _atom_site_fract_z
  _atom_site_occupancy
  Fe  Fe1       1.0  0.55200  0.12900  0.02790  1.0000
  Fe  Fe2       1.0  0.55200  0.37100  0.02790  1.0000
  Fe  Fe3       1.0  0.05240  0.12900  0.47200  1.0000
  Fe  Fe4       1.0  0.05240  0.37100  0.47200  1.0000
  Fe  Fe5       1.0  0.94800  0.62900  0.52800  1.0000
  Fe  Fe6       1.0  0.94800  0.87100  0.52800  1.0000
  Fe  Fe7       1.0  0.44800  0.62900  0.97200  1.0000
  Fe  Fe8       1.0  0.44800  0.87100  0.97200  1.0000
  K   K1        1.0  0.06890  0.07360  0.13800  1.0000
  K   K2        1.0  0.06890  0.42600  0.13800  1.0000
  K   K3        1.0  0.90700  0.75000  0.23200  1.0000
  K   K4        1.0  0.40700  0.75000  0.26800  1.0000
  K   K5        1.0  0.56900  0.07360  0.36200  1.0000
  K   K6        1.0  0.56900  0.42600  0.36200  1.0000
  K   K7        1.0  0.43100  0.57400  0.63800  1.0000
  K   K8        1.0  0.43100  0.92600  0.63800  1.0000
  K   K9        1.0  0.59300  0.25000  0.73200  1.0000
  K   K10       1.0  0.09320  0.25000  0.76800  1.0000
  K   K11       1.0  0.93100  0.57400  0.86200  1.0000
  K   K12       1.0  0.93100  0.92600  0.86200  1.0000
  S   S1        1.0  0.20200  0.75000  0.03310  1.0000
  S   S2        1.0  0.64700  0.55200  0.11000  1.0000
  S   S3        1.0  0.64700  0.94800  0.11000  1.0000
  S   S4        1.0  0.41500  0.25000  0.16100  1.0000
  S   S5        1.0  0.91500  0.25000  0.33900  1.0000
  S   S6        1.0  0.14700  0.55200  0.39000  1.0000
  S   S7        1.0  0.14700  0.94800  0.39000  1.0000
  S   S8        1.0  0.70200  0.75000  0.46700  1.0000
  S   S9        1.0  0.29800  0.25000  0.53300  1.0000
  S   S10       1.0  0.85300  0.05170  0.61000  1.0000
  S   S11       1.0  0.85300  0.44800  0.61000  1.0000
  S   S12       1.0  0.08520  0.75000  0.66100  1.0000
  S   S13       1.0  0.58500  0.75000  0.83900  1.0000
  S   S14       1.0  0.35300  0.05170  0.89000  1.0000
  S   S15       1.0  0.35300  0.44800  0.89000  1.0000
  S   S16       1.0  0.79800  0.25000  0.96700  1.0000
