data_image0
_chemical_formula_structural       N12Ni12Sr12
_chemical_formula_sum              "N12 Ni12 Sr12"
_cell_length_a       9.079
_cell_length_b       13.2233
_cell_length_c       5.20368
_cell_angle_alpha    90
_cell_angle_beta     90
_cell_angle_gamma    90

_space_group_name_H-M_alt    "P 1"
_space_group_IT_number       1

loop_
  _space_group_symop_operation_xyz
  'x, y, z'

loop_
  _atom_site_type_symbol
  _atom_site_label
  _atom_site_symmetry_multiplicity
  _atom_site_fract_x
  _atom_site_fract_y
  _atom_site_fract_z
  _atom_site_occupancy
  N   N1        1.0  0.25500  0.75000  0.19500  1.0000
  N   N2        1.0  0.08120  0.07730  0.23600  1.0000
  N   N3        1.0  0.08120  0.42300  0.23600  1.0000
  N   N4        1.0  0.58100  0.07730  0.26400  1.0000
  N   N5        1.0  0.58100  0.42300  0.26400  1.0000
  N   N6        1.0  0.75500  0.75000  0.30500  1.0000
  N   N7        1.0  0.24500  0.25000  0.69500  1.0000
  N   N8        1.0  0.41900  0.57700  0.73600  1.0000
  N   N9        1.0  0.41900  0.92300  0.73600  1.0000
  N   N10       1.0  0.91900  0.57700  0.76400  1.0000
  N   N11       1.0  0.91900  0.92300  0.76400  1.0000
  N   N12       1.0  0.74500  0.25000  0.80500  1.0000
  Ni  Ni1       1.0  0.00000  0.00000  0.00000  1.0000
  Ni  Ni2       1.0  0.00000  0.50000  0.00000  1.0000
  Ni  Ni3       1.0  0.66300  0.16100  0.03490  1.0000
  Ni  Ni4       1.0  0.66300  0.33900  0.03490  1.0000
  Ni  Ni5       1.0  0.16300  0.16100  0.46500  1.0000
  Ni  Ni6       1.0  0.16300  0.33900  0.46500  1.0000
  Ni  Ni7       1.0  0.50000  0.00000  0.50000  1.0000
  Ni  Ni8       1.0  0.50000  0.50000  0.50000  1.0000
  Ni  Ni9       1.0  0.83700  0.66100  0.53500  1.0000
  Ni  Ni10      1.0  0.83700  0.83900  0.53500  1.0000
  Ni  Ni11      1.0  0.33700  0.66100  0.96500  1.0000
  Ni  Ni12      1.0  0.33700  0.83900  0.96500  1.0000
  Sr  Sr1       1.0  0.98900  0.75000  0.00622  1.0000
  Sr  Sr2       1.0  0.66600  0.58700  0.02200  1.0000
  Sr  Sr3       1.0  0.66600  0.91300  0.02200  1.0000
  Sr  Sr4       1.0  0.16600  0.58700  0.47800  1.0000
  Sr  Sr5       1.0  0.16600  0.91300  0.47800  1.0000
  Sr  Sr6       1.0  0.48900  0.75000  0.49400  1.0000
  Sr  Sr7       1.0  0.51100  0.25000  0.50600  1.0000
  Sr  Sr8       1.0  0.83400  0.08740  0.52200  1.0000
  Sr  Sr9       1.0  0.83400  0.41300  0.52200  1.0000
  Sr  Sr10      1.0  0.33400  0.08740  0.97800  1.0000
  Sr  Sr11      1.0  0.33400  0.41300  0.97800  1.0000
  Sr  Sr12      1.0  0.01100  0.25000  0.99400  1.0000
