data_image0
_chemical_formula_structural       Cu4Nb8O24
_chemical_formula_sum              "Cu4 Nb8 O24"
_cell_length_a       14.3312
_cell_length_b       5.24913
_cell_length_c       4.96074
_cell_angle_alpha    90
_cell_angle_beta     90
_cell_angle_gamma    90

_space_group_name_H-M_alt    "P 1"
_space_group_IT_number       1

loop_
  _space_group_symop_operation_xyz
  'x, y, z'

loop_
  _atom_site_type_symbol
  _atom_site_label
  _atom_site_symmetry_multiplicity
  _atom_site_fract_x
  _atom_site_fract_y
  _atom_site_fract_z
  _atom_site_occupancy
  Cu  Cu1       1.0  0.50000  0.19300  0.25000  1.0000
  Cu  Cu2       1.0  0.00000  0.30700  0.75000  1.0000
  Cu  Cu3       1.0  0.50000  0.80700  0.75000  1.0000
  Cu  Cu4       1.0  0.00000  0.69300  0.25000  1.0000
  Nb  Nb1       1.0  0.15500  0.22900  0.31400  1.0000
  Nb  Nb2       1.0  0.34500  0.27100  0.81400  1.0000
  Nb  Nb3       1.0  0.65500  0.27100  0.68600  1.0000
  Nb  Nb4       1.0  0.84500  0.22900  0.18600  1.0000
  Nb  Nb5       1.0  0.84500  0.77100  0.68600  1.0000
  Nb  Nb6       1.0  0.65500  0.72900  0.18600  1.0000
  Nb  Nb7       1.0  0.34500  0.72900  0.31400  1.0000
  Nb  Nb8       1.0  0.15500  0.77100  0.81400  1.0000
  O   O1        1.0  0.73300  0.62700  0.53500  1.0000
  O   O2        1.0  0.76700  0.87300  0.03520  1.0000
  O   O3        1.0  0.23300  0.87300  0.46500  1.0000
  O   O4        1.0  0.26700  0.62700  0.96500  1.0000
  O   O5        1.0  0.26700  0.37300  0.46500  1.0000
  O   O6        1.0  0.23300  0.12700  0.96500  1.0000
  O   O7        1.0  0.76700  0.12700  0.53500  1.0000
  O   O8        1.0  0.73300  0.37300  0.03520  1.0000
  O   O9        1.0  0.58600  0.43300  0.39600  1.0000
  O   O10       1.0  0.91400  0.06710  0.89600  1.0000
  O   O11       1.0  0.08620  0.06710  0.60400  1.0000
  O   O12       1.0  0.41400  0.43300  0.10400  1.0000
  O   O13       1.0  0.41400  0.56700  0.60400  1.0000
  O   O14       1.0  0.08620  0.93300  0.10400  1.0000
  O   O15       1.0  0.91400  0.93300  0.39600  1.0000
  O   O16       1.0  0.58600  0.56700  0.89600  1.0000
  O   O17       1.0  0.59200  0.96000  0.42400  1.0000
  O   O18       1.0  0.90800  0.54000  0.92400  1.0000
  O   O19       1.0  0.09200  0.54000  0.57600  1.0000
  O   O20       1.0  0.40800  0.96000  0.07640  1.0000
  O   O21       1.0  0.40800  0.04010  0.57600  1.0000
  O   O22       1.0  0.09200  0.46000  0.07640  1.0000
  O   O23       1.0  0.90800  0.46000  0.42400  1.0000
  O   O24       1.0  0.59200  0.04010  0.92400  1.0000
