data_image0
_chemical_formula_structural       F28Gd4Pt4
_chemical_formula_sum              "F28 Gd4 Pt4"
_cell_length_a       10.8797
_cell_length_b       5.23442
_cell_length_c       8.5788
_cell_angle_alpha    90
_cell_angle_beta     106.635
_cell_angle_gamma    90

_space_group_name_H-M_alt    "P 1"
_space_group_IT_number       1

loop_
  _space_group_symop_operation_xyz
  'x, y, z'

loop_
  _atom_site_type_symbol
  _atom_site_label
  _atom_site_symmetry_multiplicity
  _atom_site_fract_x
  _atom_site_fract_y
  _atom_site_fract_z
  _atom_site_occupancy
  F   F1        1.0  0.04090  0.72800  0.05770  1.0000
  F   F2        1.0  0.81500  0.93000  0.08380  1.0000
  F   F3        1.0  0.61700  0.33300  0.09260  1.0000
  F   F4        1.0  0.40300  0.08160  0.10600  1.0000
  F   F5        1.0  0.86200  0.44300  0.18000  1.0000
  F   F6        1.0  0.22600  0.37400  0.18600  1.0000
  F   F7        1.0  0.45500  0.59100  0.22100  1.0000
  F   F8        1.0  0.04550  0.09140  0.27900  1.0000
  F   F9        1.0  0.27400  0.87400  0.31400  1.0000
  F   F10       1.0  0.63800  0.94300  0.32000  1.0000
  F   F11       1.0  0.09670  0.58200  0.39400  1.0000
  F   F12       1.0  0.88300  0.83300  0.40700  1.0000
  F   F13       1.0  0.68500  0.43000  0.41600  1.0000
  F   F14       1.0  0.45900  0.22800  0.44200  1.0000
  F   F15       1.0  0.54100  0.77200  0.55800  1.0000
  F   F16       1.0  0.31500  0.57000  0.58400  1.0000
  F   F17       1.0  0.11700  0.16700  0.59300  1.0000
  F   F18       1.0  0.90300  0.41800  0.60600  1.0000
  F   F19       1.0  0.36200  0.05710  0.68000  1.0000
  F   F20       1.0  0.72600  0.12600  0.68600  1.0000
  F   F21       1.0  0.95500  0.90900  0.72100  1.0000
  F   F22       1.0  0.54500  0.40900  0.77900  1.0000
  F   F23       1.0  0.77400  0.62600  0.81400  1.0000
  F   F24       1.0  0.13800  0.55700  0.82000  1.0000
  F   F25       1.0  0.59700  0.91800  0.89400  1.0000
  F   F26       1.0  0.38300  0.66700  0.90700  1.0000
  F   F27       1.0  0.18500  0.07030  0.91600  1.0000
  F   F28       1.0  0.95900  0.27200  0.94200  1.0000
  Gd  Gd1       1.0  0.25800  0.72900  0.07070  1.0000
  Gd  Gd2       1.0  0.24200  0.22900  0.42900  1.0000
  Gd  Gd3       1.0  0.75800  0.77100  0.57100  1.0000
  Gd  Gd4       1.0  0.74200  0.27100  0.92900  1.0000
  Pt  Pt1       1.0  0.96000  0.76100  0.23400  1.0000
  Pt  Pt2       1.0  0.54000  0.26100  0.26600  1.0000
  Pt  Pt3       1.0  0.46000  0.73900  0.73400  1.0000
  Pt  Pt4       1.0  0.03960  0.23900  0.76600  1.0000
