data_image0
_chemical_formula_structural       Cs4F24O4Re4
_chemical_formula_sum              "Cs4 F24 O4 Re4"
_cell_length_a       7.67924
_cell_length_b       6.7265
_cell_length_c       10.217
_cell_angle_alpha    90.0012
_cell_angle_beta     92.3988
_cell_angle_gamma    90.0003

_space_group_name_H-M_alt    "P 1"
_space_group_IT_number       1

loop_
  _space_group_symop_operation_xyz
  'x, y, z'

loop_
  _atom_site_type_symbol
  _atom_site_label
  _atom_site_symmetry_multiplicity
  _atom_site_fract_x
  _atom_site_fract_y
  _atom_site_fract_z
  _atom_site_occupancy
  Cs  Cs1       1.0  0.78100  0.25700  0.00087  1.0000
  Cs  Cs2       1.0  0.21900  0.75700  0.49900  1.0000
  Cs  Cs3       1.0  0.78100  0.24300  0.50100  1.0000
  Cs  Cs4       1.0  0.21900  0.74300  0.99900  1.0000
  F   F1        1.0  0.87800  0.68400  0.09890  1.0000
  F   F2        1.0  0.54800  0.60100  0.11600  1.0000
  F   F3        1.0  0.61200  0.92700  0.13000  1.0000
  F   F4        1.0  0.09300  0.15500  0.14300  1.0000
  F   F5        1.0  0.16300  0.46400  0.22000  1.0000
  F   F6        1.0  0.27000  0.93300  0.24500  1.0000
  F   F7        1.0  0.73000  0.43300  0.25500  1.0000
  F   F8        1.0  0.83700  0.96400  0.28000  1.0000
  F   F9        1.0  0.90700  0.65500  0.35700  1.0000
  F   F10       1.0  0.38800  0.42700  0.37000  1.0000
  F   F11       1.0  0.45200  0.10100  0.38400  1.0000
  F   F12       1.0  0.12200  0.18400  0.40100  1.0000
  F   F13       1.0  0.87800  0.81600  0.59900  1.0000
  F   F14       1.0  0.54800  0.89900  0.61600  1.0000
  F   F15       1.0  0.61200  0.57300  0.63000  1.0000
  F   F16       1.0  0.09310  0.34500  0.64300  1.0000
  F   F17       1.0  0.16300  0.03640  0.72000  1.0000
  F   F18       1.0  0.27000  0.56700  0.74500  1.0000
  F   F19       1.0  0.73000  0.06710  0.75500  1.0000
  F   F20       1.0  0.83700  0.53600  0.78000  1.0000
  F   F21       1.0  0.90700  0.84500  0.85700  1.0000
  F   F22       1.0  0.38800  0.07340  0.87000  1.0000
  F   F23       1.0  0.45200  0.39900  0.88400  1.0000
  F   F24       1.0  0.12200  0.31600  0.90100  1.0000
  O   O1        1.0  0.42800  0.24300  0.14000  1.0000
  O   O2        1.0  0.57200  0.74300  0.36000  1.0000
  O   O3        1.0  0.42800  0.25700  0.64000  1.0000
  O   O4        1.0  0.57200  0.75700  0.86000  1.0000
  Re  Re1       1.0  0.71500  0.72000  0.23800  1.0000
  Re  Re2       1.0  0.28500  0.22000  0.26200  1.0000
  Re  Re3       1.0  0.71500  0.78000  0.73800  1.0000
  Re  Re4       1.0  0.28500  0.28000  0.76200  1.0000
