data_image0
_chemical_formula_structural       Ag4O24U4V4
_chemical_formula_sum              "Ag4 O24 U4 V4"
_cell_length_a       5.77936
_cell_length_b       8.3877
_cell_length_c       10.4534
_cell_angle_alpha    90
_cell_angle_beta     100.901
_cell_angle_gamma    90

_space_group_name_H-M_alt    "P 1"
_space_group_IT_number       1

loop_
  _space_group_symop_operation_xyz
  'x, y, z'

loop_
  _atom_site_type_symbol
  _atom_site_label
  _atom_site_symmetry_multiplicity
  _atom_site_fract_x
  _atom_site_fract_y
  _atom_site_fract_z
  _atom_site_occupancy
  Ag  Ag1       1.0  0.45500  0.72500  0.16000  1.0000
  Ag  Ag2       1.0  0.54500  0.22500  0.34000  1.0000
  Ag  Ag3       1.0  0.45500  0.77500  0.66000  1.0000
  Ag  Ag4       1.0  0.54500  0.27500  0.84000  1.0000
  O   O1        1.0  0.95100  0.84800  0.00741  1.0000
  O   O2        1.0  0.41000  0.35900  0.01680  1.0000
  O   O3        1.0  0.07350  0.56600  0.10300  1.0000
  O   O4        1.0  0.67900  0.08640  0.13400  1.0000
  O   O5        1.0  0.13900  0.29000  0.21500  1.0000
  O   O6        1.0  0.28300  0.95500  0.23200  1.0000
  O   O7        1.0  0.71700  0.45500  0.26800  1.0000
  O   O8        1.0  0.86100  0.79000  0.28500  1.0000
  O   O9        1.0  0.32100  0.58600  0.36600  1.0000
  O   O10       1.0  0.92700  0.06610  0.39700  1.0000
  O   O11       1.0  0.59000  0.85900  0.48300  1.0000
  O   O12       1.0  0.04900  0.34800  0.49300  1.0000
  O   O13       1.0  0.95100  0.65200  0.50700  1.0000
  O   O14       1.0  0.41000  0.14100  0.51700  1.0000
  O   O15       1.0  0.07350  0.93400  0.60300  1.0000
  O   O16       1.0  0.67900  0.41400  0.63400  1.0000
  O   O17       1.0  0.13900  0.21000  0.71500  1.0000
  O   O18       1.0  0.28300  0.54500  0.73200  1.0000
  O   O19       1.0  0.71700  0.04530  0.76800  1.0000
  O   O20       1.0  0.86100  0.71000  0.78500  1.0000
  O   O21       1.0  0.32100  0.91400  0.86600  1.0000
  O   O22       1.0  0.92700  0.43400  0.89700  1.0000
  O   O23       1.0  0.59000  0.64100  0.98300  1.0000
  O   O24       1.0  0.04900  0.15200  0.99300  1.0000
  U   U1        1.0  0.98000  0.02170  0.18200  1.0000
  U   U2        1.0  0.01990  0.52200  0.31800  1.0000
  U   U3        1.0  0.98000  0.47800  0.68200  1.0000
  U   U4        1.0  0.01990  0.97800  0.81800  1.0000
  V   V1        1.0  0.14000  0.35100  0.04450  1.0000
  V   V2        1.0  0.86000  0.85100  0.45500  1.0000
  V   V3        1.0  0.14000  0.14900  0.54500  1.0000
  V   V4        1.0  0.86000  0.64900  0.95500  1.0000
