data_image0
_chemical_formula_structural       K2O24Se4V6
_chemical_formula_sum              "K2 O24 Se4 V6"
_cell_length_a       7.03567
_cell_length_b       7.03565
_cell_length_c       11.214
_cell_angle_alpha    90
_cell_angle_beta     90
_cell_angle_gamma    119.999

_space_group_name_H-M_alt    "P 1"
_space_group_IT_number       1

loop_
  _space_group_symop_operation_xyz
  'x, y, z'

loop_
  _atom_site_type_symbol
  _atom_site_label
  _atom_site_symmetry_multiplicity
  _atom_site_fract_x
  _atom_site_fract_y
  _atom_site_fract_z
  _atom_site_occupancy
  K   K1        1.0  0.66700  0.33300  0.46200  1.0000
  K   K2        1.0  0.33300  0.66700  0.96200  1.0000
  O   O1        1.0  0.13400  0.25700  0.12000  1.0000
  O   O2        1.0  0.12300  0.86600  0.12000  1.0000
  O   O3        1.0  0.74300  0.87700  0.12000  1.0000
  O   O4        1.0  0.46200  0.91900  0.25500  1.0000
  O   O5        1.0  0.45700  0.53800  0.25500  1.0000
  O   O6        1.0  0.08060  0.54300  0.25500  1.0000
  O   O7        1.0  0.87200  0.12600  0.31700  1.0000
  O   O8        1.0  0.87400  0.74600  0.31700  1.0000
  O   O9        1.0  0.25400  0.12800  0.31700  1.0000
  O   O10       1.0  0.21400  0.41200  0.45300  1.0000
  O   O11       1.0  0.58800  0.80200  0.45300  1.0000
  O   O12       1.0  0.19800  0.78600  0.45300  1.0000
  O   O13       1.0  0.87700  0.13400  0.62000  1.0000
  O   O14       1.0  0.86600  0.74300  0.62000  1.0000
  O   O15       1.0  0.25700  0.12300  0.62000  1.0000
  O   O16       1.0  0.53800  0.08050  0.75500  1.0000
  O   O17       1.0  0.54300  0.46200  0.75500  1.0000
  O   O18       1.0  0.91900  0.45700  0.75500  1.0000
  O   O19       1.0  0.12800  0.87400  0.81700  1.0000
  O   O20       1.0  0.12600  0.25400  0.81700  1.0000
  O   O21       1.0  0.74600  0.87200  0.81700  1.0000
  O   O22       1.0  0.41200  0.19800  0.95300  1.0000
  O   O23       1.0  0.78600  0.58800  0.95300  1.0000
  O   O24       1.0  0.80200  0.21400  0.95300  1.0000
  Se  Se1       1.0  0.66700  0.33300  0.02010  1.0000
  Se  Se2       1.0  0.00000  0.00000  0.05190  1.0000
  Se  Se3       1.0  0.33300  0.66700  0.52000  1.0000
  Se  Se4       1.0  0.00000  0.00000  0.55200  1.0000
  V   V1        1.0  0.20500  0.87200  0.28300  1.0000
  V   V2        1.0  0.12800  0.33400  0.28300  1.0000
  V   V3        1.0  0.66600  0.79500  0.28300  1.0000
  V   V4        1.0  0.79500  0.12800  0.78300  1.0000
  V   V5        1.0  0.87200  0.66600  0.78300  1.0000
  V   V6        1.0  0.33400  0.20500  0.78300  1.0000
