data_image0
_chemical_formula_structural       B2Fe6O10
_chemical_formula_sum              "B2 Fe6 O10"
_cell_length_a       10.6856
_cell_length_b       3.05981
_cell_length_c       5.50791
_cell_angle_alpha    90
_cell_angle_beta     93.4273
_cell_angle_gamma    90

_space_group_name_H-M_alt    "P 1"
_space_group_IT_number       1

loop_
  _space_group_symop_operation_xyz
  'x, y, z'

loop_
  _atom_site_type_symbol
  _atom_site_label
  _atom_site_symmetry_multiplicity
  _atom_site_fract_x
  _atom_site_fract_y
  _atom_site_fract_z
  _atom_site_occupancy
  B   B1        1.0  0.75800  0.00000  0.28600  1.0000
  B   B2        1.0  0.24200  0.00000  0.71400  1.0000
  Fe  Fe1       1.0  0.00000  0.00000  0.00000  1.0000
  Fe  Fe2       1.0  0.50000  0.00000  0.00000  1.0000
  Fe  Fe3       1.0  0.27300  0.50000  0.21900  1.0000
  Fe  Fe4       1.0  0.50000  0.00000  0.50000  1.0000
  Fe  Fe5       1.0  1.00000  0.50000  0.50000  1.0000
  Fe  Fe6       1.0  0.72700  0.50000  0.78100  1.0000
  O   O1        1.0  0.69200  0.00000  0.06170  1.0000
  O   O2        1.0  0.08860  0.50000  0.17900  1.0000
  O   O3        1.0  0.46900  0.50000  0.23700  1.0000
  O   O4        1.0  0.88800  0.00000  0.29600  1.0000
  O   O5        1.0  0.69600  0.00000  0.49800  1.0000
  O   O6        1.0  0.30400  0.00000  0.50200  1.0000
  O   O7        1.0  0.11200  0.00000  0.70400  1.0000
  O   O8        1.0  0.53100  0.50000  0.76300  1.0000
  O   O9        1.0  0.91100  0.50000  0.82100  1.0000
  O   O10       1.0  0.30800  0.00000  0.93800  1.0000
