data_image0
_chemical_formula_structural       F24Fe3Pb8
_chemical_formula_sum              "F24 Fe3 Pb8"
_cell_length_a       5.4409
_cell_length_b       9.18081
_cell_length_c       10.0932
_cell_angle_alpha    106.239
_cell_angle_beta     74.4858
_cell_angle_gamma    90.8407

_space_group_name_H-M_alt    "P 1"
_space_group_IT_number       1

loop_
  _space_group_symop_operation_xyz
  'x, y, z'

loop_
  _atom_site_type_symbol
  _atom_site_label
  _atom_site_symmetry_multiplicity
  _atom_site_fract_x
  _atom_site_fract_y
  _atom_site_fract_z
  _atom_site_occupancy
  F   F1        1.0  0.28600  0.90300  0.03670  1.0000
  F   F2        1.0  0.15000  0.63600  0.09130  1.0000
  F   F3        1.0  0.74500  0.87900  0.09500  1.0000
  F   F4        1.0  0.39400  0.34700  0.10400  1.0000
  F   F5        1.0  0.60700  0.61900  0.17100  1.0000
  F   F6        1.0  0.94000  0.14500  0.18500  1.0000
  F   F7        1.0  0.30600  0.86800  0.29100  1.0000
  F   F8        1.0  0.56900  0.39000  0.36000  1.0000
  F   F9        1.0  0.87100  0.64100  0.36500  1.0000
  F   F10       1.0  0.07810  0.38500  0.36600  1.0000
  F   F11       1.0  0.02120  0.12400  0.44800  1.0000
  F   F12       1.0  0.52200  0.12900  0.45200  1.0000
  F   F13       1.0  0.47800  0.87100  0.54800  1.0000
  F   F14       1.0  0.97900  0.87600  0.55200  1.0000
  F   F15       1.0  0.92200  0.61500  0.63400  1.0000
  F   F16       1.0  0.12900  0.35900  0.63500  1.0000
  F   F17       1.0  0.43100  0.61000  0.64000  1.0000
  F   F18       1.0  0.69400  0.13200  0.70900  1.0000
  F   F19       1.0  0.06010  0.85500  0.81500  1.0000
  F   F20       1.0  0.39300  0.38100  0.82900  1.0000
  F   F21       1.0  0.60600  0.65300  0.89600  1.0000
  F   F22       1.0  0.25500  0.12100  0.90500  1.0000
  F   F23       1.0  0.85000  0.36400  0.90900  1.0000
  F   F24       1.0  0.71400  0.09710  0.96300  1.0000
  Fe  Fe1       1.0  0.00000  0.00000  0.00000  1.0000
  Fe  Fe2       1.0  0.45000  0.74400  0.09420  1.0000
  Fe  Fe3       1.0  0.55000  0.25600  0.90600  1.0000
  Pb  Pb1       1.0  0.91700  0.42600  0.16800  1.0000
  Pb  Pb2       1.0  0.37000  0.16500  0.26000  1.0000
  Pb  Pb3       1.0  0.82300  0.89500  0.35100  1.0000
  Pb  Pb4       1.0  0.27600  0.63500  0.43900  1.0000
  Pb  Pb5       1.0  0.72400  0.36500  0.56100  1.0000
  Pb  Pb6       1.0  0.17700  0.10500  0.64900  1.0000
  Pb  Pb7       1.0  0.63000  0.83500  0.74000  1.0000
  Pb  Pb8       1.0  0.08260  0.57400  0.83200  1.0000
