data_image0
_chemical_formula_structural       Bi14S8Te13
_chemical_formula_sum              "Bi14 S8 Te13"
_cell_length_a       11.3075
_cell_length_b       11.3077
_cell_length_c       12.2225
_cell_angle_alpha    117.555
_cell_angle_beta     62.4447
_cell_angle_gamma    120.002

_space_group_name_H-M_alt    "P 1"
_space_group_IT_number       1

loop_
  _space_group_symop_operation_xyz
  'x, y, z'

loop_
  _atom_site_type_symbol
  _atom_site_label
  _atom_site_symmetry_multiplicity
  _atom_site_fract_x
  _atom_site_fract_y
  _atom_site_fract_z
  _atom_site_occupancy
  Bi  Bi1       1.0  0.46300  0.95300  0.16900  1.0000
  Bi  Bi2       1.0  0.04750  0.67900  0.16900  1.0000
  Bi  Bi3       1.0  0.32000  0.53700  0.16900  1.0000
  Bi  Bi4       1.0  0.60700  0.39300  0.17700  1.0000
  Bi  Bi5       1.0  0.88600  0.25700  0.18400  1.0000
  Bi  Bi6       1.0  0.18600  0.11400  0.18400  1.0000
  Bi  Bi7       1.0  0.74300  0.81400  0.18400  1.0000
  Bi  Bi8       1.0  0.25700  0.18600  0.81600  1.0000
  Bi  Bi9       1.0  0.81400  0.88600  0.81600  1.0000
  Bi  Bi10      1.0  0.11400  0.74300  0.81600  1.0000
  Bi  Bi11      1.0  0.39300  0.60700  0.82300  1.0000
  Bi  Bi12      1.0  0.68000  0.46300  0.83100  1.0000
  Bi  Bi13      1.0  0.95300  0.32100  0.83100  1.0000
  Bi  Bi14      1.0  0.53700  0.04750  0.83100  1.0000
  S   S1        1.0  0.86100  0.57100  0.00232  1.0000
  S   S2        1.0  0.70800  0.13900  0.00233  1.0000
  S   S3        1.0  0.42900  0.29200  0.00235  1.0000
  S   S4        1.0  0.23300  0.76700  0.30200  1.0000
  S   S5        1.0  0.76700  0.23300  0.69800  1.0000
  S   S6        1.0  0.57100  0.70800  0.99800  1.0000
  S   S7        1.0  0.29200  0.86100  0.99800  1.0000
  S   S8        1.0  0.13900  0.42900  0.99800  1.0000
  Te  Te1       1.0  0.00000  0.00000  0.00000  1.0000
  Te  Te2       1.0  0.64200  0.06480  0.35000  1.0000
  Te  Te3       1.0  0.07280  0.35800  0.35000  1.0000
  Te  Te4       1.0  0.93500  0.92700  0.35000  1.0000
  Te  Te5       1.0  0.36800  0.20900  0.35400  1.0000
  Te  Te6       1.0  0.79100  0.51300  0.35400  1.0000
  Te  Te7       1.0  0.48700  0.63200  0.35400  1.0000
  Te  Te8       1.0  0.51300  0.36800  0.64600  1.0000
  Te  Te9       1.0  0.20900  0.48700  0.64600  1.0000
  Te  Te10      1.0  0.63200  0.79100  0.64600  1.0000
  Te  Te11      1.0  0.06480  0.07290  0.65000  1.0000
  Te  Te12      1.0  0.92700  0.64200  0.65000  1.0000
  Te  Te13      1.0  0.35800  0.93500  0.65000  1.0000
