data_image0
_chemical_formula_structural       Cd4Mo4O24P4
_chemical_formula_sum              "Cd4 Mo4 O24 P4"
_cell_length_a       4.91566
_cell_length_b       8.56928
_cell_length_c       11.4377
_cell_angle_alpha    90
_cell_angle_beta     109.381
_cell_angle_gamma    90

_space_group_name_H-M_alt    "P 1"
_space_group_IT_number       1

loop_
  _space_group_symop_operation_xyz
  'x, y, z'

loop_
  _atom_site_type_symbol
  _atom_site_label
  _atom_site_symmetry_multiplicity
  _atom_site_fract_x
  _atom_site_fract_y
  _atom_site_fract_z
  _atom_site_occupancy
  Cd  Cd1       1.0  0.66500  0.65900  0.08390  1.0000
  Cd  Cd2       1.0  0.33500  0.15900  0.41600  1.0000
  Cd  Cd3       1.0  0.66500  0.84100  0.58400  1.0000
  Cd  Cd4       1.0  0.33500  0.34100  0.91600  1.0000
  Mo  Mo1       1.0  0.01600  0.07640  0.10000  1.0000
  Mo  Mo2       1.0  0.98400  0.57600  0.40000  1.0000
  Mo  Mo3       1.0  0.01600  0.42400  0.60000  1.0000
  Mo  Mo4       1.0  0.98400  0.92400  0.90000  1.0000
  O   O1        1.0  0.84400  0.87400  0.03830  1.0000
  O   O2        1.0  0.72200  0.19900  0.05440  1.0000
  O   O3        1.0  0.32400  0.48400  0.08230  1.0000
  O   O4        1.0  0.41100  0.96800  0.18500  1.0000
  O   O5        1.0  0.26100  0.25600  0.21600  1.0000
  O   O6        1.0  0.05040  0.52500  0.22900  1.0000
  O   O7        1.0  0.95000  0.02520  0.27100  1.0000
  O   O8        1.0  0.73900  0.75600  0.28400  1.0000
  O   O9        1.0  0.58900  0.46800  0.31500  1.0000
  O   O10       1.0  0.67600  0.98400  0.41800  1.0000
  O   O11       1.0  0.27800  0.69900  0.44600  1.0000
  O   O12       1.0  0.15600  0.37400  0.46200  1.0000
  O   O13       1.0  0.84400  0.62600  0.53800  1.0000
  O   O14       1.0  0.72200  0.30100  0.55400  1.0000
  O   O15       1.0  0.32400  0.01630  0.58200  1.0000
  O   O16       1.0  0.41100  0.53200  0.68500  1.0000
  O   O17       1.0  0.26100  0.24400  0.71600  1.0000
  O   O18       1.0  0.05040  0.97500  0.72900  1.0000
  O   O19       1.0  0.95000  0.47500  0.77100  1.0000
  O   O20       1.0  0.73900  0.74400  0.78400  1.0000
  O   O21       1.0  0.58900  0.03190  0.81500  1.0000
  O   O22       1.0  0.67600  0.51600  0.91800  1.0000
  O   O23       1.0  0.27800  0.80100  0.94600  1.0000
  O   O24       1.0  0.15600  0.12600  0.96200  1.0000
  P   P1        1.0  0.30800  0.43500  0.20900  1.0000
  P   P2        1.0  0.69200  0.93500  0.29100  1.0000
  P   P3        1.0  0.30800  0.06530  0.70900  1.0000
  P   P4        1.0  0.69200  0.56500  0.79100  1.0000
