data_image0
_chemical_formula_structural       Cd12Rb8Se16
_chemical_formula_sum              "Cd12 Rb8 Se16"
_cell_length_a       14.7726
_cell_length_b       11.1226
_cell_length_c       6.85966
_cell_angle_alpha    90
_cell_angle_beta     90
_cell_angle_gamma    90

_space_group_name_H-M_alt    "P 1"
_space_group_IT_number       1

loop_
  _space_group_symop_operation_xyz
  'x, y, z'

loop_
  _atom_site_type_symbol
  _atom_site_label
  _atom_site_symmetry_multiplicity
  _atom_site_fract_x
  _atom_site_fract_y
  _atom_site_fract_z
  _atom_site_occupancy
  Cd  Cd1       1.0  0.75500  0.09460  0.19100  1.0000
  Cd  Cd2       1.0  0.75500  0.40500  0.19100  1.0000
  Cd  Cd3       1.0  0.29400  0.75000  0.24200  1.0000
  Cd  Cd4       1.0  0.79400  0.75000  0.25800  1.0000
  Cd  Cd5       1.0  0.25500  0.09460  0.30900  1.0000
  Cd  Cd6       1.0  0.25500  0.40500  0.30900  1.0000
  Cd  Cd7       1.0  0.74500  0.59500  0.69100  1.0000
  Cd  Cd8       1.0  0.74500  0.90500  0.69100  1.0000
  Cd  Cd9       1.0  0.20600  0.25000  0.74200  1.0000
  Cd  Cd10      1.0  0.70600  0.25000  0.75800  1.0000
  Cd  Cd11      1.0  0.24500  0.59500  0.80900  1.0000
  Cd  Cd12      1.0  0.24500  0.90500  0.80900  1.0000
  Rb  Rb1       1.0  0.00000  0.00000  0.00000  1.0000
  Rb  Rb2       1.0  0.00000  0.50000  0.00000  1.0000
  Rb  Rb3       1.0  0.46300  0.25000  0.02200  1.0000
  Rb  Rb4       1.0  0.96300  0.25000  0.47800  1.0000
  Rb  Rb5       1.0  0.50000  0.00000  0.50000  1.0000
  Rb  Rb6       1.0  0.50000  0.50000  0.50000  1.0000
  Rb  Rb7       1.0  0.03740  0.75000  0.52200  1.0000
  Rb  Rb8       1.0  0.53700  0.75000  0.97800  1.0000
  Se  Se1       1.0  0.13900  0.75000  0.03630  1.0000
  Se  Se2       1.0  0.36400  0.53700  0.09020  1.0000
  Se  Se3       1.0  0.36400  0.96300  0.09020  1.0000
  Se  Se4       1.0  0.15000  0.25000  0.10600  1.0000
  Se  Se5       1.0  0.65000  0.25000  0.39400  1.0000
  Se  Se6       1.0  0.86400  0.53700  0.41000  1.0000
  Se  Se7       1.0  0.86400  0.96300  0.41000  1.0000
  Se  Se8       1.0  0.63900  0.75000  0.46400  1.0000
  Se  Se9       1.0  0.36100  0.25000  0.53600  1.0000
  Se  Se10      1.0  0.13600  0.03710  0.59000  1.0000
  Se  Se11      1.0  0.13600  0.46300  0.59000  1.0000
  Se  Se12      1.0  0.35000  0.75000  0.60600  1.0000
  Se  Se13      1.0  0.85000  0.75000  0.89400  1.0000
  Se  Se14      1.0  0.63600  0.03710  0.91000  1.0000
  Se  Se15      1.0  0.63600  0.46300  0.91000  1.0000
  Se  Se16      1.0  0.86100  0.25000  0.96400  1.0000
