data_image0
_chemical_formula_structural       Fe20P12Th4
_chemical_formula_sum              "Fe20 P12 Th4"
_cell_length_a       11.8777
_cell_length_b       3.72187
_cell_length_c       10.4073
_cell_angle_alpha    90
_cell_angle_beta     90
_cell_angle_gamma    90

_space_group_name_H-M_alt    "P 1"
_space_group_IT_number       1

loop_
  _space_group_symop_operation_xyz
  'x, y, z'

loop_
  _atom_site_type_symbol
  _atom_site_label
  _atom_site_symmetry_multiplicity
  _atom_site_fract_x
  _atom_site_fract_y
  _atom_site_fract_z
  _atom_site_occupancy
  Fe  Fe1       1.0  0.43300  0.25000  0.03390  1.0000
  Fe  Fe2       1.0  0.98800  0.25000  0.09810  1.0000
  Fe  Fe3       1.0  0.29900  0.75000  0.11900  1.0000
  Fe  Fe4       1.0  0.51000  0.75000  0.20300  1.0000
  Fe  Fe5       1.0  0.17100  0.25000  0.22300  1.0000
  Fe  Fe6       1.0  0.67100  0.25000  0.27700  1.0000
  Fe  Fe7       1.0  0.00965  0.75000  0.29700  1.0000
  Fe  Fe8       1.0  0.79900  0.75000  0.38100  1.0000
  Fe  Fe9       1.0  0.48800  0.25000  0.40200  1.0000
  Fe  Fe10      1.0  0.93300  0.25000  0.46600  1.0000
  Fe  Fe11      1.0  0.06680  0.75000  0.53400  1.0000
  Fe  Fe12      1.0  0.51200  0.75000  0.59800  1.0000
  Fe  Fe13      1.0  0.20100  0.25000  0.61900  1.0000
  Fe  Fe14      1.0  0.99000  0.25000  0.70300  1.0000
  Fe  Fe15      1.0  0.32900  0.75000  0.72300  1.0000
  Fe  Fe16      1.0  0.82900  0.75000  0.77600  1.0000
  Fe  Fe17      1.0  0.49000  0.25000  0.79700  1.0000
  Fe  Fe18      1.0  0.70100  0.25000  0.88100  1.0000
  Fe  Fe19      1.0  0.01210  0.75000  0.90200  1.0000
  Fe  Fe20      1.0  0.56700  0.75000  0.96600  1.0000
  P   P1        1.0  0.61000  0.25000  0.07730  1.0000
  P   P2        1.0  0.10300  0.75000  0.11100  1.0000
  P   P3        1.0  0.36400  0.25000  0.22300  1.0000
  P   P4        1.0  0.86400  0.25000  0.27700  1.0000
  P   P5        1.0  0.60300  0.75000  0.38900  1.0000
  P   P6        1.0  0.11000  0.25000  0.42300  1.0000
  P   P7        1.0  0.89000  0.75000  0.57700  1.0000
  P   P8        1.0  0.39700  0.25000  0.61100  1.0000
  P   P9        1.0  0.13600  0.75000  0.72300  1.0000
  P   P10       1.0  0.63600  0.75000  0.77700  1.0000
  P   P11       1.0  0.89700  0.25000  0.88900  1.0000
  P   P12       1.0  0.39000  0.75000  0.92300  1.0000
  Th  Th1       1.0  0.79800  0.75000  0.07940  1.0000
  Th  Th2       1.0  0.29800  0.75000  0.42100  1.0000
  Th  Th3       1.0  0.70200  0.25000  0.57900  1.0000
  Th  Th4       1.0  0.20200  0.25000  0.92100  1.0000
