data_image0
_chemical_formula_structural       Cd12K8S16
_chemical_formula_sum              "Cd12 K8 S16"
_cell_length_a       13.8844
_cell_length_b       10.3212
_cell_length_c       6.68308
_cell_angle_alpha    90
_cell_angle_beta     90
_cell_angle_gamma    90

_space_group_name_H-M_alt    "P 1"
_space_group_IT_number       1

loop_
  _space_group_symop_operation_xyz
  'x, y, z'

loop_
  _atom_site_type_symbol
  _atom_site_label
  _atom_site_symmetry_multiplicity
  _atom_site_fract_x
  _atom_site_fract_y
  _atom_site_fract_z
  _atom_site_occupancy
  Cd  Cd1       1.0  0.75200  0.09200  0.16200  1.0000
  Cd  Cd2       1.0  0.75200  0.40800  0.16200  1.0000
  Cd  Cd3       1.0  0.79600  0.75000  0.22200  1.0000
  Cd  Cd4       1.0  0.29600  0.75000  0.27800  1.0000
  Cd  Cd5       1.0  0.25200  0.09200  0.33800  1.0000
  Cd  Cd6       1.0  0.25200  0.40800  0.33800  1.0000
  Cd  Cd7       1.0  0.74800  0.59200  0.66200  1.0000
  Cd  Cd8       1.0  0.74800  0.90800  0.66200  1.0000
  Cd  Cd9       1.0  0.70400  0.25000  0.72200  1.0000
  Cd  Cd10      1.0  0.20400  0.25000  0.77800  1.0000
  Cd  Cd11      1.0  0.24800  0.59200  0.83800  1.0000
  Cd  Cd12      1.0  0.24800  0.90800  0.83800  1.0000
  K   K1        1.0  0.00000  0.00000  0.00000  1.0000
  K   K2        1.0  0.00000  0.50000  0.00000  1.0000
  K   K3        1.0  0.46800  0.25000  0.02030  1.0000
  K   K4        1.0  0.96800  0.25000  0.48000  1.0000
  K   K5        1.0  0.50000  0.00000  0.50000  1.0000
  K   K6        1.0  0.50000  0.50000  0.50000  1.0000
  K   K7        1.0  0.03160  0.75000  0.52000  1.0000
  K   K8        1.0  0.53200  0.75000  0.98000  1.0000
  S   S1        1.0  0.14100  0.75000  0.06830  1.0000
  S   S2        1.0  0.36700  0.53200  0.11800  1.0000
  S   S3        1.0  0.36700  0.96800  0.11800  1.0000
  S   S4        1.0  0.14400  0.25000  0.13200  1.0000
  S   S5        1.0  0.64400  0.25000  0.36800  1.0000
  S   S6        1.0  0.86700  0.53200  0.38200  1.0000
  S   S7        1.0  0.86700  0.96800  0.38200  1.0000
  S   S8        1.0  0.64100  0.75000  0.43200  1.0000
  S   S9        1.0  0.35900  0.25000  0.56800  1.0000
  S   S10       1.0  0.13300  0.03240  0.61800  1.0000
  S   S11       1.0  0.13300  0.46800  0.61800  1.0000
  S   S12       1.0  0.35600  0.75000  0.63200  1.0000
  S   S13       1.0  0.85600  0.75000  0.86800  1.0000
  S   S14       1.0  0.63300  0.03240  0.88200  1.0000
  S   S15       1.0  0.63300  0.46800  0.88200  1.0000
  S   S16       1.0  0.85900  0.25000  0.93200  1.0000
