data_image0
_chemical_formula_structural       F28Pr4Pt4
_chemical_formula_sum              "F28 Pr4 Pt4"
_cell_length_a       11.0276
_cell_length_b       5.28992
_cell_length_c       8.83343
_cell_angle_alpha    90
_cell_angle_beta     106.763
_cell_angle_gamma    90

_space_group_name_H-M_alt    "P 1"
_space_group_IT_number       1

loop_
  _space_group_symop_operation_xyz
  'x, y, z'

loop_
  _atom_site_type_symbol
  _atom_site_label
  _atom_site_symmetry_multiplicity
  _atom_site_fract_x
  _atom_site_fract_y
  _atom_site_fract_z
  _atom_site_occupancy
  F   F1        1.0  0.03290  0.72900  0.06100  1.0000
  F   F2        1.0  0.61200  0.32400  0.08930  1.0000
  F   F3        1.0  0.81100  0.92100  0.09660  1.0000
  F   F4        1.0  0.40200  0.08690  0.11100  1.0000
  F   F5        1.0  0.22000  0.35500  0.17700  1.0000
  F   F6        1.0  0.86500  0.44000  0.18700  1.0000
  F   F7        1.0  0.45600  0.58500  0.22000  1.0000
  F   F8        1.0  0.04360  0.08480  0.28000  1.0000
  F   F9        1.0  0.63500  0.94000  0.31300  1.0000
  F   F10       1.0  0.28000  0.85500  0.32300  1.0000
  F   F11       1.0  0.09820  0.58700  0.38900  1.0000
  F   F12       1.0  0.68900  0.42100  0.40300  1.0000
  F   F13       1.0  0.88800  0.82400  0.41100  1.0000
  F   F14       1.0  0.46700  0.22900  0.43900  1.0000
  F   F15       1.0  0.53300  0.77100  0.56100  1.0000
  F   F16       1.0  0.11200  0.17600  0.58900  1.0000
  F   F17       1.0  0.31100  0.57900  0.59700  1.0000
  F   F18       1.0  0.90200  0.41300  0.61100  1.0000
  F   F19       1.0  0.72000  0.14500  0.67700  1.0000
  F   F20       1.0  0.36500  0.05970  0.68700  1.0000
  F   F21       1.0  0.95600  0.91500  0.72000  1.0000
  F   F22       1.0  0.54400  0.41500  0.78000  1.0000
  F   F23       1.0  0.13500  0.56000  0.81300  1.0000
  F   F24       1.0  0.78000  0.64500  0.82300  1.0000
  F   F25       1.0  0.59800  0.91300  0.88900  1.0000
  F   F26       1.0  0.18900  0.07850  0.90300  1.0000
  F   F27       1.0  0.38800  0.67600  0.91100  1.0000
  F   F28       1.0  0.96700  0.27100  0.93900  1.0000
  Pr  Pr1       1.0  0.25400  0.73000  0.06920  1.0000
  Pr  Pr2       1.0  0.24600  0.23000  0.43100  1.0000
  Pr  Pr3       1.0  0.75400  0.77000  0.56900  1.0000
  Pr  Pr4       1.0  0.74600  0.27000  0.93100  1.0000
  Pt  Pt1       1.0  0.95900  0.75800  0.23700  1.0000
  Pt  Pt2       1.0  0.54100  0.25800  0.26300  1.0000
  Pt  Pt3       1.0  0.45900  0.74200  0.73700  1.0000
  Pt  Pt4       1.0  0.04120  0.24200  0.76300  1.0000
