data_image0
_chemical_formula_structural       NaO2Ru
_chemical_formula_sum              "Na1 O2 Ru1"
_cell_length_a       3.03043
_cell_length_b       3.03043
_cell_length_c       5.66979
_cell_angle_alpha    90
_cell_angle_beta     105.5
_cell_angle_gamma    60

_space_group_name_H-M_alt    "P 1"
_space_group_IT_number       1

loop_
  _space_group_symop_operation_xyz
  'x, y, z'

loop_
  _atom_site_type_symbol
  _atom_site_label
  _atom_site_symmetry_multiplicity
  _atom_site_fract_x
  _atom_site_fract_y
  _atom_site_fract_z
  _atom_site_occupancy
  Na  Na1       1.0  0.00000  0.00000  0.00000  1.0000
  O   O1        1.0  0.52300  0.23800  0.28500  1.0000
  O   O2        1.0  0.47700  0.76200  0.71500  1.0000
  Ru  Ru1       1.0  0.00000  0.50000  0.50000  1.0000
