data_image0
_chemical_formula_structural       Ag4F28Ru4
_chemical_formula_sum              "Ag4 F28 Ru4"
_cell_length_a       8.08235
_cell_length_b       5.17711
_cell_length_c       11.2662
_cell_angle_alpha    90
_cell_angle_beta     107.85
_cell_angle_gamma    90

_space_group_name_H-M_alt    "P 1"
_space_group_IT_number       1

loop_
  _space_group_symop_operation_xyz
  'x, y, z'

loop_
  _atom_site_type_symbol
  _atom_site_label
  _atom_site_symmetry_multiplicity
  _atom_site_fract_x
  _atom_site_fract_y
  _atom_site_fract_z
  _atom_site_occupancy
  Ag  Ag1       1.0  0.05720  0.19600  0.22300  1.0000
  Ag  Ag2       1.0  0.44300  0.69600  0.27700  1.0000
  Ag  Ag3       1.0  0.55700  0.30400  0.72300  1.0000
  Ag  Ag4       1.0  0.94300  0.80400  0.77700  1.0000
  F   F1        1.0  0.05150  0.22700  0.00523  1.0000
  F   F2        1.0  0.26200  0.61500  0.02930  1.0000
  F   F3        1.0  0.39700  0.12800  0.07950  1.0000
  F   F4        1.0  0.57900  0.61300  0.11900  1.0000
  F   F5        1.0  0.79600  0.02150  0.14500  1.0000
  F   F6        1.0  0.91700  0.55200  0.20100  1.0000
  F   F7        1.0  0.20500  0.87600  0.23400  1.0000
  F   F8        1.0  0.29500  0.37600  0.26600  1.0000
  F   F9        1.0  0.58300  0.05230  0.29900  1.0000
  F   F10       1.0  0.70400  0.52100  0.35500  1.0000
  F   F11       1.0  0.92100  0.11300  0.38100  1.0000
  F   F12       1.0  0.10300  0.62800  0.42100  1.0000
  F   F13       1.0  0.23800  0.11500  0.47100  1.0000
  F   F14       1.0  0.44800  0.72700  0.49500  1.0000
  F   F15       1.0  0.55200  0.27300  0.50500  1.0000
  F   F16       1.0  0.76200  0.88500  0.52900  1.0000
  F   F17       1.0  0.89700  0.37200  0.57900  1.0000
  F   F18       1.0  0.07930  0.88700  0.61900  1.0000
  F   F19       1.0  0.29600  0.47900  0.64500  1.0000
  F   F20       1.0  0.41700  0.94800  0.70100  1.0000
  F   F21       1.0  0.70500  0.62400  0.73400  1.0000
  F   F22       1.0  0.79500  0.12400  0.76600  1.0000
  F   F23       1.0  0.08260  0.44800  0.79900  1.0000
  F   F24       1.0  0.20400  0.97900  0.85500  1.0000
  F   F25       1.0  0.42100  0.38700  0.88100  1.0000
  F   F26       1.0  0.60300  0.87200  0.92100  1.0000
  F   F27       1.0  0.73800  0.38500  0.97100  1.0000
  F   F28       1.0  0.94800  0.77300  0.99500  1.0000
  Ru  Ru1       1.0  0.75800  0.70200  0.05310  1.0000
  Ru  Ru2       1.0  0.74200  0.20200  0.44700  1.0000
  Ru  Ru3       1.0  0.25800  0.79800  0.55300  1.0000
  Ru  Ru4       1.0  0.24200  0.29800  0.94700  1.0000
