data_image0
_chemical_formula_structural       Br20Rb12Zn4
_chemical_formula_sum              "Br20 Rb12 Zn4"
_cell_length_a       9.24761
_cell_length_b       10.5984
_cell_length_c       13.6692
_cell_angle_alpha    90
_cell_angle_beta     90
_cell_angle_gamma    90

_space_group_name_H-M_alt    "P 1"
_space_group_IT_number       1

loop_
  _space_group_symop_operation_xyz
  'x, y, z'

loop_
  _atom_site_type_symbol
  _atom_site_label
  _atom_site_symmetry_multiplicity
  _atom_site_fract_x
  _atom_site_fract_y
  _atom_site_fract_z
  _atom_site_occupancy
  Br  Br1       1.0  0.53500  0.25000  0.01270  1.0000
  Br  Br2       1.0  0.18500  0.05810  0.06310  1.0000
  Br  Br3       1.0  0.18500  0.44200  0.06310  1.0000
  Br  Br4       1.0  0.86500  0.25000  0.21900  1.0000
  Br  Br5       1.0  0.84000  0.75000  0.23500  1.0000
  Br  Br6       1.0  0.34000  0.75000  0.26500  1.0000
  Br  Br7       1.0  0.36500  0.25000  0.28100  1.0000
  Br  Br8       1.0  0.68500  0.05810  0.43700  1.0000
  Br  Br9       1.0  0.68500  0.44200  0.43700  1.0000
  Br  Br10      1.0  0.03540  0.25000  0.48700  1.0000
  Br  Br11      1.0  0.96500  0.75000  0.51300  1.0000
  Br  Br12      1.0  0.31500  0.55800  0.56300  1.0000
  Br  Br13      1.0  0.31500  0.94200  0.56300  1.0000
  Br  Br14      1.0  0.63500  0.75000  0.71900  1.0000
  Br  Br15      1.0  0.66000  0.25000  0.73500  1.0000
  Br  Br16      1.0  0.16000  0.25000  0.76500  1.0000
  Br  Br17      1.0  0.13500  0.75000  0.78100  1.0000
  Br  Br18      1.0  0.81500  0.55800  0.93700  1.0000
  Br  Br19      1.0  0.81500  0.94200  0.93700  1.0000
  Br  Br20      1.0  0.46500  0.75000  0.98700  1.0000
  Rb  Rb1       1.0  0.08530  0.75000  0.04670  1.0000
  Rb  Rb2       1.0  0.59000  0.52100  0.17200  1.0000
  Rb  Rb3       1.0  0.59000  0.97900  0.17200  1.0000
  Rb  Rb4       1.0  0.08980  0.52100  0.32800  1.0000
  Rb  Rb5       1.0  0.08980  0.97900  0.32800  1.0000
  Rb  Rb6       1.0  0.58500  0.75000  0.45300  1.0000
  Rb  Rb7       1.0  0.41500  0.25000  0.54700  1.0000
  Rb  Rb8       1.0  0.91000  0.02090  0.67200  1.0000
  Rb  Rb9       1.0  0.91000  0.47900  0.67200  1.0000
  Rb  Rb10      1.0  0.41000  0.02090  0.82800  1.0000
  Rb  Rb11      1.0  0.41000  0.47900  0.82800  1.0000
  Rb  Rb12      1.0  0.91500  0.25000  0.95300  1.0000
  Zn  Zn1       1.0  0.31100  0.25000  0.10800  1.0000
  Zn  Zn2       1.0  0.81100  0.25000  0.39200  1.0000
  Zn  Zn3       1.0  0.18900  0.75000  0.60800  1.0000
  Zn  Zn4       1.0  0.68900  0.75000  0.89200  1.0000
