data_image0
_chemical_formula_structural       Cd12K8Te16
_chemical_formula_sum              "Cd12 K8 Te16"
_cell_length_a       15.1783
_cell_length_b       11.4443
_cell_length_c       7.37537
_cell_angle_alpha    90
_cell_angle_beta     90
_cell_angle_gamma    90

_space_group_name_H-M_alt    "P 1"
_space_group_IT_number       1

loop_
  _space_group_symop_operation_xyz
  'x, y, z'

loop_
  _atom_site_type_symbol
  _atom_site_label
  _atom_site_symmetry_multiplicity
  _atom_site_fract_x
  _atom_site_fract_y
  _atom_site_fract_z
  _atom_site_occupancy
  Cd  Cd1       1.0  0.24300  0.59700  0.16100  1.0000
  Cd  Cd2       1.0  0.24300  0.90300  0.16100  1.0000
  Cd  Cd3       1.0  0.20100  0.25000  0.23100  1.0000
  Cd  Cd4       1.0  0.70100  0.25000  0.26900  1.0000
  Cd  Cd5       1.0  0.74300  0.59700  0.33900  1.0000
  Cd  Cd6       1.0  0.74300  0.90300  0.33900  1.0000
  Cd  Cd7       1.0  0.25700  0.09740  0.66100  1.0000
  Cd  Cd8       1.0  0.25700  0.40300  0.66100  1.0000
  Cd  Cd9       1.0  0.29900  0.75000  0.73100  1.0000
  Cd  Cd10      1.0  0.79900  0.75000  0.76900  1.0000
  Cd  Cd11      1.0  0.75700  0.09740  0.83900  1.0000
  Cd  Cd12      1.0  0.75700  0.40300  0.83900  1.0000
  K   K1        1.0  0.00000  0.00000  0.00000  1.0000
  K   K2        1.0  0.00000  0.50000  0.00000  1.0000
  K   K3        1.0  0.53500  0.75000  0.02580  1.0000
  K   K4        1.0  0.03500  0.75000  0.47400  1.0000
  K   K5        1.0  0.50000  0.00000  0.50000  1.0000
  K   K6        1.0  0.50000  0.50000  0.50000  1.0000
  K   K7        1.0  0.96500  0.25000  0.52600  1.0000
  K   K8        1.0  0.46500  0.25000  0.97400  1.0000
  Te  Te1       1.0  0.86600  0.25000  0.07660  1.0000
  Te  Te2       1.0  0.63100  0.03190  0.10900  1.0000
  Te  Te3       1.0  0.63100  0.46800  0.10900  1.0000
  Te  Te4       1.0  0.85700  0.75000  0.13000  1.0000
  Te  Te5       1.0  0.35700  0.75000  0.37000  1.0000
  Te  Te6       1.0  0.13100  0.03190  0.39100  1.0000
  Te  Te7       1.0  0.13100  0.46800  0.39100  1.0000
  Te  Te8       1.0  0.36600  0.25000  0.42300  1.0000
  Te  Te9       1.0  0.63400  0.75000  0.57700  1.0000
  Te  Te10      1.0  0.86900  0.53200  0.60900  1.0000
  Te  Te11      1.0  0.86900  0.96800  0.60900  1.0000
  Te  Te12      1.0  0.64300  0.25000  0.63000  1.0000
  Te  Te13      1.0  0.14300  0.25000  0.87000  1.0000
  Te  Te14      1.0  0.36900  0.53200  0.89100  1.0000
  Te  Te15      1.0  0.36900  0.96800  0.89100  1.0000
  Te  Te16      1.0  0.13400  0.75000  0.92300  1.0000
