data_image0
_chemical_formula_structural       C8Cl12Gd16
_chemical_formula_sum              "C8 Cl12 Gd16"
_cell_length_a       10.6463
_cell_length_b       3.68824
_cell_length_c       19.9408
_cell_angle_alpha    90
_cell_angle_beta     90
_cell_angle_gamma    90

_space_group_name_H-M_alt    "P 1"
_space_group_IT_number       1

loop_
  _space_group_symop_operation_xyz
  'x, y, z'

loop_
  _atom_site_type_symbol
  _atom_site_label
  _atom_site_symmetry_multiplicity
  _atom_site_fract_x
  _atom_site_fract_y
  _atom_site_fract_z
  _atom_site_occupancy
  C   C1        1.0  0.63600  0.75000  0.15200  1.0000
  C   C2        1.0  0.38900  0.25000  0.25000  1.0000
  C   C3        1.0  0.88900  0.25000  0.25000  1.0000
  C   C4        1.0  0.13600  0.75000  0.34800  1.0000
  C   C5        1.0  0.86400  0.25000  0.65200  1.0000
  C   C6        1.0  0.11100  0.75000  0.75000  1.0000
  C   C7        1.0  0.61100  0.75000  0.75000  1.0000
  C   C8        1.0  0.36400  0.25000  0.84800  1.0000
  Cl  Cl1       1.0  0.37900  0.25000  0.04730  1.0000
  Cl  Cl2       1.0  0.88700  0.25000  0.05540  1.0000
  Cl  Cl3       1.0  0.13900  0.75000  0.14600  1.0000
  Cl  Cl4       1.0  0.63900  0.75000  0.35400  1.0000
  Cl  Cl5       1.0  0.38700  0.25000  0.44500  1.0000
  Cl  Cl6       1.0  0.87900  0.25000  0.45300  1.0000
  Cl  Cl7       1.0  0.12100  0.75000  0.54700  1.0000
  Cl  Cl8       1.0  0.61300  0.75000  0.55500  1.0000
  Cl  Cl9       1.0  0.36100  0.25000  0.64600  1.0000
  Cl  Cl10      1.0  0.86100  0.25000  0.85400  1.0000
  Cl  Cl11      1.0  0.11300  0.75000  0.94500  1.0000
  Cl  Cl12      1.0  0.62100  0.75000  0.95300  1.0000
  Gd  Gd1       1.0  0.63900  0.25000  0.07320  1.0000
  Gd  Gd2       1.0  0.87600  0.75000  0.16500  1.0000
  Gd  Gd3       1.0  0.39900  0.75000  0.16700  1.0000
  Gd  Gd4       1.0  0.63700  0.25000  0.24400  1.0000
  Gd  Gd5       1.0  0.13700  0.25000  0.25600  1.0000
  Gd  Gd6       1.0  0.89900  0.75000  0.33300  1.0000
  Gd  Gd7       1.0  0.37600  0.75000  0.33500  1.0000
  Gd  Gd8       1.0  0.13900  0.25000  0.42700  1.0000
  Gd  Gd9       1.0  0.86100  0.75000  0.57300  1.0000
  Gd  Gd10      1.0  0.62400  0.25000  0.66500  1.0000
  Gd  Gd11      1.0  0.10100  0.25000  0.66700  1.0000
  Gd  Gd12      1.0  0.86300  0.75000  0.74400  1.0000
  Gd  Gd13      1.0  0.36300  0.75000  0.75600  1.0000
  Gd  Gd14      1.0  0.60100  0.25000  0.83300  1.0000
  Gd  Gd15      1.0  0.12400  0.25000  0.83500  1.0000
  Gd  Gd16      1.0  0.36100  0.75000  0.92700  1.0000
