data_image0
_chemical_formula_structural       C6FeH12N8O8
_chemical_formula_sum              "C6 Fe1 H12 N8 O8"
_cell_length_a       6.44169
_cell_length_b       7.03622
_cell_length_c       8.32041
_cell_angle_alpha    108.828
_cell_angle_beta     88.0968
_cell_angle_gamma    107.65

_space_group_name_H-M_alt    "P 1"
_space_group_IT_number       1

loop_
  _space_group_symop_operation_xyz
  'x, y, z'

loop_
  _atom_site_type_symbol
  _atom_site_label
  _atom_site_symmetry_multiplicity
  _atom_site_fract_x
  _atom_site_fract_y
  _atom_site_fract_z
  _atom_site_occupancy
  C   C1        1.0  0.36500  0.29400  0.08960  1.0000
  C   C2        1.0  0.36600  0.01420  0.38800  1.0000
  C   C3        1.0  0.37400  0.82000  0.38800  1.0000
  C   C4        1.0  0.62600  0.18000  0.61200  1.0000
  C   C5        1.0  0.63400  0.98600  0.61200  1.0000
  C   C6        1.0  0.63500  0.70600  0.91000  1.0000
  Fe  Fe1       1.0  0.50000  0.50000  0.50000  1.0000
  H   H1        1.0  0.88200  0.38700  0.12700  1.0000
  H   H2        1.0  0.85200  0.60800  0.13900  1.0000
  H   H3        1.0  0.25700  0.02570  0.29600  1.0000
  H   H4        1.0  0.27000  0.67400  0.29800  1.0000
  H   H5        1.0  0.88700  0.57700  0.37500  1.0000
  H   H6        1.0  0.05890  0.30400  0.42100  1.0000
  H   H7        1.0  0.94100  0.69600  0.57900  1.0000
  H   H8        1.0  0.11300  0.42300  0.62500  1.0000
  H   H9        1.0  0.73000  0.32600  0.70200  1.0000
  H   H10       1.0  0.74300  0.97400  0.70400  1.0000
  H   H11       1.0  0.14800  0.39200  0.86100  1.0000
  H   H12       1.0  0.11800  0.61300  0.87300  1.0000
  N   N1        1.0  0.71900  0.77300  0.06770  1.0000
  N   N2        1.0  0.80400  0.98500  0.13300  1.0000
  N   N3        1.0  0.44700  0.37800  0.22900  1.0000
  N   N4        1.0  0.49200  0.19400  0.49900  1.0000
  N   N5        1.0  0.50800  0.80600  0.50100  1.0000
  N   N6        1.0  0.55300  0.62200  0.77100  1.0000
  N   N7        1.0  0.19600  0.01460  0.86700  1.0000
  N   N8        1.0  0.28100  0.22700  0.93200  1.0000
  O   O1        1.0  0.80000  0.09960  0.04350  1.0000
  O   O2        1.0  0.94100  0.54100  0.18400  1.0000
  O   O3        1.0  0.88600  0.05620  0.28300  1.0000
  O   O4        1.0  0.83300  0.58500  0.49200  1.0000
  O   O5        1.0  0.16700  0.41500  0.50800  1.0000
  O   O6        1.0  0.11400  0.94400  0.71700  1.0000
  O   O7        1.0  0.05950  0.45900  0.81600  1.0000
  O   O8        1.0  0.20000  0.90000  0.95600  1.0000
