data_image0
_chemical_formula_structural       Ba4Mo4O24Se4
_chemical_formula_sum              "Ba4 Mo4 O24 Se4"
_cell_length_a       6.20202
_cell_length_b       10.1966
_cell_length_c       8.31704
_cell_angle_alpha    90
_cell_angle_beta     95.0616
_cell_angle_gamma    90

_space_group_name_H-M_alt    "P 1"
_space_group_IT_number       1

loop_
  _space_group_symop_operation_xyz
  'x, y, z'

loop_
  _atom_site_type_symbol
  _atom_site_label
  _atom_site_symmetry_multiplicity
  _atom_site_fract_x
  _atom_site_fract_y
  _atom_site_fract_z
  _atom_site_occupancy
  Ba  Ba1       1.0  0.72600  0.30800  0.01230  1.0000
  Ba  Ba2       1.0  0.27400  0.80800  0.48800  1.0000
  Ba  Ba3       1.0  0.72600  0.19200  0.51200  1.0000
  Ba  Ba4       1.0  0.27400  0.69200  0.98800  1.0000
  Mo  Mo1       1.0  0.78200  0.92200  0.23500  1.0000
  Mo  Mo2       1.0  0.21800  0.42200  0.26500  1.0000
  Mo  Mo3       1.0  0.78200  0.57800  0.73500  1.0000
  Mo  Mo4       1.0  0.21800  0.07810  0.76500  1.0000
  O   O1        1.0  0.61100  0.89000  0.00499  1.0000
  O   O2        1.0  0.17000  0.40600  0.05180  1.0000
  O   O3        1.0  0.02450  0.85400  0.17100  1.0000
  O   O4        1.0  0.82000  0.09290  0.20500  1.0000
  O   O5        1.0  0.55400  0.48400  0.21600  1.0000
  O   O6        1.0  0.59100  0.74000  0.23900  1.0000
  O   O7        1.0  0.40900  0.24000  0.26100  1.0000
  O   O8        1.0  0.44600  0.98400  0.28400  1.0000
  O   O9        1.0  0.18000  0.59300  0.29500  1.0000
  O   O10       1.0  0.97500  0.35400  0.32900  1.0000
  O   O11       1.0  0.83000  0.90600  0.44800  1.0000
  O   O12       1.0  0.38900  0.39000  0.49500  1.0000
  O   O13       1.0  0.61100  0.61000  0.50500  1.0000
  O   O14       1.0  0.17000  0.09380  0.55200  1.0000
  O   O15       1.0  0.02450  0.64600  0.67100  1.0000
  O   O16       1.0  0.82000  0.40700  0.70500  1.0000
  O   O17       1.0  0.55400  0.01650  0.71600  1.0000
  O   O18       1.0  0.59100  0.76000  0.73900  1.0000
  O   O19       1.0  0.40900  0.26000  0.76100  1.0000
  O   O20       1.0  0.44600  0.51600  0.78400  1.0000
  O   O21       1.0  0.18000  0.90700  0.79500  1.0000
  O   O22       1.0  0.97500  0.14600  0.82900  1.0000
  O   O23       1.0  0.83000  0.59400  0.94800  1.0000
  O   O24       1.0  0.38900  0.11000  0.99500  1.0000
  Se  Se1       1.0  0.28500  0.09880  0.17900  1.0000
  Se  Se2       1.0  0.71500  0.59900  0.32100  1.0000
  Se  Se3       1.0  0.28500  0.40100  0.67900  1.0000
  Se  Se4       1.0  0.71500  0.90100  0.82100  1.0000
