data_image0
_chemical_formula_structural       F28La4Sn4
_chemical_formula_sum              "F28 La4 Sn4"
_cell_length_a       11.2926
_cell_length_b       5.41964
_cell_length_c       9.09119
_cell_angle_alpha    90
_cell_angle_beta     107.22
_cell_angle_gamma    90

_space_group_name_H-M_alt    "P 1"
_space_group_IT_number       1

loop_
  _space_group_symop_operation_xyz
  'x, y, z'

loop_
  _atom_site_type_symbol
  _atom_site_label
  _atom_site_symmetry_multiplicity
  _atom_site_fract_x
  _atom_site_fract_y
  _atom_site_fract_z
  _atom_site_occupancy
  F   F1        1.0  0.04790  0.73600  0.07710  1.0000
  F   F2        1.0  0.81500  0.58300  0.08280  1.0000
  F   F3        1.0  0.41100  0.42200  0.11300  1.0000
  F   F4        1.0  0.64000  0.21400  0.12100  1.0000
  F   F5        1.0  0.87600  0.06330  0.15700  1.0000
  F   F6        1.0  0.22200  0.13800  0.17800  1.0000
  F   F7        1.0  0.46500  0.92600  0.18700  1.0000
  F   F8        1.0  0.03460  0.42600  0.31300  1.0000
  F   F9        1.0  0.27800  0.63800  0.32200  1.0000
  F   F10       1.0  0.62400  0.56300  0.34300  1.0000
  F   F11       1.0  0.86000  0.71400  0.37900  1.0000
  F   F12       1.0  0.08940  0.92200  0.38700  1.0000
  F   F13       1.0  0.68500  0.08290  0.41700  1.0000
  F   F14       1.0  0.45200  0.23600  0.42300  1.0000
  F   F15       1.0  0.54800  0.76400  0.57700  1.0000
  F   F16       1.0  0.31500  0.91700  0.58300  1.0000
  F   F17       1.0  0.91100  0.07800  0.61300  1.0000
  F   F18       1.0  0.14000  0.28600  0.62100  1.0000
  F   F19       1.0  0.37600  0.43700  0.65700  1.0000
  F   F20       1.0  0.72200  0.36200  0.67800  1.0000
  F   F21       1.0  0.96500  0.57400  0.68700  1.0000
  F   F22       1.0  0.53500  0.07390  0.81300  1.0000
  F   F23       1.0  0.77800  0.86200  0.82200  1.0000
  F   F24       1.0  0.12400  0.93700  0.84300  1.0000
  F   F25       1.0  0.36000  0.78600  0.87900  1.0000
  F   F26       1.0  0.58900  0.57800  0.88700  1.0000
  F   F27       1.0  0.18500  0.41700  0.91700  1.0000
  F   F28       1.0  0.95200  0.26400  0.92300  1.0000
  La  La1       1.0  0.26200  0.76400  0.07370  1.0000
  La  La2       1.0  0.23800  0.26400  0.42600  1.0000
  La  La3       1.0  0.76200  0.73600  0.57400  1.0000
  La  La4       1.0  0.73800  0.23600  0.92600  1.0000
  Sn  Sn1       1.0  0.95700  0.74600  0.23300  1.0000
  Sn  Sn2       1.0  0.54300  0.24600  0.26700  1.0000
  Sn  Sn3       1.0  0.45700  0.75400  0.73300  1.0000
  Sn  Sn4       1.0  0.04330  0.25400  0.76700  1.0000
