data_image0
_chemical_formula_structural       O4S32
_chemical_formula_sum              "O4 S32"
_cell_length_a       13.7099
_cell_length_b       8.21437
_cell_length_c       8.45681
_cell_angle_alpha    90
_cell_angle_beta     90
_cell_angle_gamma    90

_space_group_name_H-M_alt    "P 1"
_space_group_IT_number       1

loop_
  _space_group_symop_operation_xyz
  'x, y, z'

loop_
  _atom_site_type_symbol
  _atom_site_label
  _atom_site_symmetry_multiplicity
  _atom_site_fract_x
  _atom_site_fract_y
  _atom_site_fract_z
  _atom_site_occupancy
  O   O1        1.0  0.81300  0.31100  0.18700  1.0000
  O   O2        1.0  0.31300  0.68900  0.18700  1.0000
  O   O3        1.0  0.68700  0.31100  0.68700  1.0000
  O   O4        1.0  0.18700  0.68900  0.68700  1.0000
  S   S1        1.0  0.08970  0.17700  0.25200  1.0000
  S   S2        1.0  0.59000  0.82200  0.25200  1.0000
  S   S3        1.0  0.38100  0.03890  0.28200  1.0000
  S   S4        1.0  0.88100  0.96100  0.28200  1.0000
  S   S5        1.0  0.76700  0.31100  0.34600  1.0000
  S   S6        1.0  0.26700  0.68900  0.34600  1.0000
  S   S7        1.0  0.52800  0.02550  0.35000  1.0000
  S   S8        1.0  0.02790  0.97400  0.35000  1.0000
  S   S9        1.0  0.47500  0.47900  0.35900  1.0000
  S   S10       1.0  0.97500  0.52100  0.35900  1.0000
  S   S11       1.0  0.08860  0.36100  0.41700  1.0000
  S   S12       1.0  0.58900  0.63900  0.41700  1.0000
  S   S13       1.0  0.79900  0.06350  0.45000  1.0000
  S   S14       1.0  0.29900  0.93700  0.45000  1.0000
  S   S15       1.0  0.86000  0.47700  0.49600  1.0000
  S   S16       1.0  0.36000  0.52300  0.49600  1.0000
  S   S17       1.0  0.41000  0.17700  0.75200  1.0000
  S   S18       1.0  0.91000  0.82200  0.75200  1.0000
  S   S19       1.0  0.11900  0.03890  0.78200  1.0000
  S   S20       1.0  0.61900  0.96100  0.78200  1.0000
  S   S21       1.0  0.73300  0.31100  0.84600  1.0000
  S   S22       1.0  0.23300  0.68900  0.84600  1.0000
  S   S23       1.0  0.97200  0.02550  0.85000  1.0000
  S   S24       1.0  0.47200  0.97400  0.85000  1.0000
  S   S25       1.0  0.02460  0.47900  0.85900  1.0000
  S   S26       1.0  0.52500  0.52100  0.85900  1.0000
  S   S27       1.0  0.41100  0.36100  0.91700  1.0000
  S   S28       1.0  0.91100  0.63900  0.91700  1.0000
  S   S29       1.0  0.70100  0.06350  0.95000  1.0000
  S   S30       1.0  0.20100  0.93700  0.95000  1.0000
  S   S31       1.0  0.64000  0.47700  0.99600  1.0000
  S   S32       1.0  0.14000  0.52300  0.99600  1.0000
