data_image0
_chemical_formula_structural       F28Gd4Sn4
_chemical_formula_sum              "F28 Gd4 Sn4"
_cell_length_a       11.016
_cell_length_b       5.23238
_cell_length_c       8.56851
_cell_angle_alpha    90
_cell_angle_beta     106.241
_cell_angle_gamma    90

_space_group_name_H-M_alt    "P 1"
_space_group_IT_number       1

loop_
  _space_group_symop_operation_xyz
  'x, y, z'

loop_
  _atom_site_type_symbol
  _atom_site_label
  _atom_site_symmetry_multiplicity
  _atom_site_fract_x
  _atom_site_fract_y
  _atom_site_fract_z
  _atom_site_occupancy
  F   F1        1.0  0.04850  0.76700  0.06030  1.0000
  F   F2        1.0  0.81400  0.56900  0.08450  1.0000
  F   F3        1.0  0.61600  0.14700  0.09270  1.0000
  F   F4        1.0  0.40800  0.42800  0.10400  1.0000
  F   F5        1.0  0.85800  0.05350  0.17300  1.0000
  F   F6        1.0  0.22800  0.12700  0.18400  1.0000
  F   F7        1.0  0.45400  0.90400  0.22300  1.0000
  F   F8        1.0  0.04570  0.40400  0.27700  1.0000
  F   F9        1.0  0.27200  0.62700  0.31600  1.0000
  F   F10       1.0  0.64200  0.55300  0.32700  1.0000
  F   F11       1.0  0.09200  0.92800  0.39600  1.0000
  F   F12       1.0  0.88400  0.64700  0.40700  1.0000
  F   F13       1.0  0.68600  0.06870  0.41600  1.0000
  F   F14       1.0  0.45200  0.26700  0.44000  1.0000
  F   F15       1.0  0.54800  0.73300  0.56000  1.0000
  F   F16       1.0  0.31400  0.93100  0.58400  1.0000
  F   F17       1.0  0.11600  0.35300  0.59300  1.0000
  F   F18       1.0  0.90800  0.07220  0.60400  1.0000
  F   F19       1.0  0.35800  0.44700  0.67300  1.0000
  F   F20       1.0  0.72800  0.37300  0.68400  1.0000
  F   F21       1.0  0.95400  0.59600  0.72300  1.0000
  F   F22       1.0  0.54600  0.09640  0.77700  1.0000
  F   F23       1.0  0.77200  0.87300  0.81600  1.0000
  F   F24       1.0  0.14200  0.94700  0.82700  1.0000
  F   F25       1.0  0.59200  0.57200  0.89600  1.0000
  F   F26       1.0  0.38400  0.85300  0.90700  1.0000
  F   F27       1.0  0.18600  0.43100  0.91600  1.0000
  F   F28       1.0  0.95200  0.23300  0.94000  1.0000
  Gd  Gd1       1.0  0.26300  0.76700  0.07110  1.0000
  Gd  Gd2       1.0  0.23700  0.26700  0.42900  1.0000
  Gd  Gd3       1.0  0.76300  0.73300  0.57100  1.0000
  Gd  Gd4       1.0  0.73700  0.23300  0.92900  1.0000
  Sn  Sn1       1.0  0.96100  0.74100  0.23300  1.0000
  Sn  Sn2       1.0  0.53900  0.24100  0.26700  1.0000
  Sn  Sn3       1.0  0.46100  0.75900  0.73300  1.0000
  Sn  Sn4       1.0  0.03900  0.25900  0.76700  1.0000
