data_image0
_chemical_formula_structural       LiMnO6Pt
_chemical_formula_sum              "Li1 Mn1 O6 Pt1"
_cell_length_a       5.04407
_cell_length_b       5.04407
_cell_length_c       4.82599
_cell_angle_alpha    98.1632
_cell_angle_beta     98.1632
_cell_angle_gamma    120.437

_space_group_name_H-M_alt    "P 1"
_space_group_IT_number       1

loop_
  _space_group_symop_operation_xyz
  'x, y, z'

loop_
  _atom_site_type_symbol
  _atom_site_label
  _atom_site_symmetry_multiplicity
  _atom_site_fract_x
  _atom_site_fract_y
  _atom_site_fract_z
  _atom_site_occupancy
  Li  Li1       1.0  0.38400  0.61600  0.50000  1.0000
  Mn  Mn1       1.0  0.15700  0.84300  0.00000  1.0000
  O   O1        1.0  0.54400  0.92800  0.22800  1.0000
  O   O2        1.0  0.19500  0.20100  0.23000  1.0000
  O   O3        1.0  0.94100  0.57900  0.23800  1.0000
  O   O4        1.0  0.42100  0.05880  0.76200  1.0000
  O   O5        1.0  0.79900  0.80500  0.77000  1.0000
  O   O6        1.0  0.07160  0.45600  0.77200  1.0000
  Pt  Pt1       1.0  0.82600  0.17400  0.00000  1.0000
