data_image0
_chemical_formula_structural       Fe8S16Tl12
_chemical_formula_sum              "Fe8 S16 Tl12"
_cell_length_a       7.40347
_cell_length_b       10.6166
_cell_length_c       11.2957
_cell_angle_alpha    90
_cell_angle_beta     90
_cell_angle_gamma    90

_space_group_name_H-M_alt    "P 1"
_space_group_IT_number       1

loop_
  _space_group_symop_operation_xyz
  'x, y, z'

loop_
  _atom_site_type_symbol
  _atom_site_label
  _atom_site_symmetry_multiplicity
  _atom_site_fract_x
  _atom_site_fract_y
  _atom_site_fract_z
  _atom_site_occupancy
  Fe  Fe1       1.0  0.53600  0.62700  0.03200  1.0000
  Fe  Fe2       1.0  0.53600  0.87300  0.03200  1.0000
  Fe  Fe3       1.0  0.03570  0.62700  0.46800  1.0000
  Fe  Fe4       1.0  0.03570  0.87300  0.46800  1.0000
  Fe  Fe5       1.0  0.96400  0.12700  0.53200  1.0000
  Fe  Fe6       1.0  0.96400  0.37300  0.53200  1.0000
  Fe  Fe7       1.0  0.46400  0.12700  0.96800  1.0000
  Fe  Fe8       1.0  0.46400  0.37300  0.96800  1.0000
  S   S1        1.0  0.23000  0.25000  0.02720  1.0000
  S   S2        1.0  0.63500  0.05170  0.11800  1.0000
  S   S3        1.0  0.63500  0.44800  0.11800  1.0000
  S   S4        1.0  0.38500  0.75000  0.16600  1.0000
  S   S5        1.0  0.88500  0.75000  0.33400  1.0000
  S   S6        1.0  0.13500  0.05170  0.38200  1.0000
  S   S7        1.0  0.13500  0.44800  0.38200  1.0000
  S   S8        1.0  0.73000  0.25000  0.47300  1.0000
  S   S9        1.0  0.27000  0.75000  0.52700  1.0000
  S   S10       1.0  0.86500  0.55200  0.61800  1.0000
  S   S11       1.0  0.86500  0.94800  0.61800  1.0000
  S   S12       1.0  0.11500  0.25000  0.66600  1.0000
  S   S13       1.0  0.61500  0.25000  0.83400  1.0000
  S   S14       1.0  0.36500  0.55200  0.88200  1.0000
  S   S15       1.0  0.36500  0.94800  0.88200  1.0000
  S   S16       1.0  0.77000  0.75000  0.97300  1.0000
  Tl  Tl1       1.0  0.04740  0.57600  0.13800  1.0000
  Tl  Tl2       1.0  0.04740  0.92400  0.13800  1.0000
  Tl  Tl3       1.0  0.90800  0.25000  0.22600  1.0000
  Tl  Tl4       1.0  0.40800  0.25000  0.27400  1.0000
  Tl  Tl5       1.0  0.54700  0.57600  0.36200  1.0000
  Tl  Tl6       1.0  0.54700  0.92400  0.36200  1.0000
  Tl  Tl7       1.0  0.45300  0.07550  0.63800  1.0000
  Tl  Tl8       1.0  0.45300  0.42400  0.63800  1.0000
  Tl  Tl9       1.0  0.59200  0.75000  0.72600  1.0000
  Tl  Tl10      1.0  0.09180  0.75000  0.77400  1.0000
  Tl  Tl11      1.0  0.95300  0.07550  0.86200  1.0000
  Tl  Tl12      1.0  0.95300  0.42400  0.86200  1.0000
