data_image0
_chemical_formula_structural       Cd12Rb8S16
_chemical_formula_sum              "Cd12 Rb8 S16"
_cell_length_a       14.2879
_cell_length_b       10.6452
_cell_length_c       6.63831
_cell_angle_alpha    90
_cell_angle_beta     90
_cell_angle_gamma    90

_space_group_name_H-M_alt    "P 1"
_space_group_IT_number       1

loop_
  _space_group_symop_operation_xyz
  'x, y, z'

loop_
  _atom_site_type_symbol
  _atom_site_label
  _atom_site_symmetry_multiplicity
  _atom_site_fract_x
  _atom_site_fract_y
  _atom_site_fract_z
  _atom_site_occupancy
  Cd  Cd1       1.0  0.24700  0.59300  0.18500  1.0000
  Cd  Cd2       1.0  0.24700  0.90700  0.18500  1.0000
  Cd  Cd3       1.0  0.20600  0.25000  0.24700  1.0000
  Cd  Cd4       1.0  0.70600  0.25000  0.25300  1.0000
  Cd  Cd5       1.0  0.74700  0.59300  0.31500  1.0000
  Cd  Cd6       1.0  0.74700  0.90700  0.31500  1.0000
  Cd  Cd7       1.0  0.25300  0.09270  0.68500  1.0000
  Cd  Cd8       1.0  0.25300  0.40700  0.68500  1.0000
  Cd  Cd9       1.0  0.29400  0.75000  0.74700  1.0000
  Cd  Cd10      1.0  0.79400  0.75000  0.75300  1.0000
  Cd  Cd11      1.0  0.75300  0.09270  0.81500  1.0000
  Cd  Cd12      1.0  0.75300  0.40700  0.81500  1.0000
  Rb  Rb1       1.0  0.00000  0.00000  0.00000  1.0000
  Rb  Rb2       1.0  0.00000  0.50000  0.00000  1.0000
  Rb  Rb3       1.0  0.53400  0.75000  0.02390  1.0000
  Rb  Rb4       1.0  0.03440  0.75000  0.47600  1.0000
  Rb  Rb5       1.0  0.50000  0.00000  0.50000  1.0000
  Rb  Rb6       1.0  0.50000  0.50000  0.50000  1.0000
  Rb  Rb7       1.0  0.96600  0.25000  0.52400  1.0000
  Rb  Rb8       1.0  0.46600  0.25000  0.97600  1.0000
  S   S1        1.0  0.85700  0.25000  0.03940  1.0000
  S   S2        1.0  0.63800  0.03660  0.09870  1.0000
  S   S3        1.0  0.63800  0.46300  0.09870  1.0000
  S   S4        1.0  0.84900  0.75000  0.11100  1.0000
  S   S5        1.0  0.34900  0.75000  0.38900  1.0000
  S   S6        1.0  0.13800  0.03660  0.40100  1.0000
  S   S7        1.0  0.13800  0.46300  0.40100  1.0000
  S   S8        1.0  0.35700  0.25000  0.46100  1.0000
  S   S9        1.0  0.64300  0.75000  0.53900  1.0000
  S   S10       1.0  0.86200  0.53700  0.59900  1.0000
  S   S11       1.0  0.86200  0.96300  0.59900  1.0000
  S   S12       1.0  0.65100  0.25000  0.61100  1.0000
  S   S13       1.0  0.15100  0.25000  0.88900  1.0000
  S   S14       1.0  0.36200  0.53700  0.90100  1.0000
  S   S15       1.0  0.36200  0.96300  0.90100  1.0000
  S   S16       1.0  0.14300  0.75000  0.96100  1.0000
