data_image0
_chemical_formula_structural       LiMnNbO6
_chemical_formula_sum              "Li1 Mn1 Nb1 O6"
_cell_length_a       5.20269
_cell_length_b       5.20269
_cell_length_c       4.8043
_cell_angle_alpha    97.376
_cell_angle_beta     97.376
_cell_angle_gamma    123.47

_space_group_name_H-M_alt    "P 1"
_space_group_IT_number       1

loop_
  _space_group_symop_operation_xyz
  'x, y, z'

loop_
  _atom_site_type_symbol
  _atom_site_label
  _atom_site_symmetry_multiplicity
  _atom_site_fract_x
  _atom_site_fract_y
  _atom_site_fract_z
  _atom_site_occupancy
  Li  Li1       1.0  0.37500  0.62500  0.50000  1.0000
  Mn  Mn1       1.0  0.82800  0.17200  0.00000  1.0000
  Nb  Nb1       1.0  0.13900  0.86100  0.00000  1.0000
  O   O1        1.0  0.55400  0.91500  0.21500  1.0000
  O   O2        1.0  0.19100  0.21900  0.23700  1.0000
  O   O3        1.0  0.93700  0.54600  0.23900  1.0000
  O   O4        1.0  0.45400  0.06250  0.76100  1.0000
  O   O5        1.0  0.78100  0.80900  0.76300  1.0000
  O   O6        1.0  0.08520  0.44600  0.78500  1.0000
