data_image0
_chemical_formula_structural       IrMnO6
_chemical_formula_sum              "Ir1 Mn1 O6"
_cell_length_a       5.0168
_cell_length_b       5.0168
_cell_length_c       4.83483
_cell_angle_alpha    100.243
_cell_angle_beta     100.243
_cell_angle_gamma    119.878

_space_group_name_H-M_alt    "P 1"
_space_group_IT_number       1

loop_
  _space_group_symop_operation_xyz
  'x, y, z'

loop_
  _atom_site_type_symbol
  _atom_site_label
  _atom_site_symmetry_multiplicity
  _atom_site_fract_x
  _atom_site_fract_y
  _atom_site_fract_z
  _atom_site_occupancy
  Ir  Ir1       1.0  0.16600  0.83400  0.00000  1.0000
  Mn  Mn1       1.0  0.83400  0.16600  0.00000  1.0000
  O   O1        1.0  0.57800  0.95400  0.23100  1.0000
  O   O2        1.0  0.95500  0.58000  0.23100  1.0000
  O   O3        1.0  0.20300  0.20200  0.23300  1.0000
  O   O4        1.0  0.79800  0.79700  0.76700  1.0000
  O   O5        1.0  0.42000  0.04470  0.76900  1.0000
  O   O6        1.0  0.04600  0.42200  0.76900  1.0000
