data_image0
_chemical_formula_structural       CrCu4O20Sr8Tl3
_chemical_formula_sum              "Cr1 Cu4 O20 Sr8 Tl3"
_cell_length_a       3.67184
_cell_length_b       11.5668
_cell_length_c       11.5668
_cell_angle_alpha    99.5282
_cell_angle_beta     90
_cell_angle_gamma    90

_space_group_name_H-M_alt    "P 1"
_space_group_IT_number       1

loop_
  _space_group_symop_operation_xyz
  'x, y, z'

loop_
  _atom_site_type_symbol
  _atom_site_label
  _atom_site_symmetry_multiplicity
  _atom_site_fract_x
  _atom_site_fract_y
  _atom_site_fract_z
  _atom_site_occupancy
  Cr  Cr1       1.0  0.00000  0.50000  0.50000  1.0000
  Cu  Cu1       1.0  0.00000  0.50000  0.00000  1.0000
  Cu  Cu2       1.0  0.00000  0.74500  0.25500  1.0000
  Cu  Cu3       1.0  0.00000  0.00000  0.50000  1.0000
  Cu  Cu4       1.0  0.00000  0.25500  0.74500  1.0000
  O   O1        1.0  0.50000  0.50000  0.00000  1.0000
  O   O2        1.0  0.00000  0.88300  0.11700  1.0000
  O   O3        1.0  0.50000  0.12200  0.12200  1.0000
  O   O4        1.0  0.00000  0.62000  0.13000  1.0000
  O   O5        1.0  0.00000  0.36200  0.13200  1.0000
  O   O6        1.0  0.50000  0.73700  0.26300  1.0000
  O   O7        1.0  0.00000  0.13200  0.36200  1.0000
  O   O8        1.0  0.00000  0.87000  0.38000  1.0000
  O   O9        1.0  0.00000  0.59900  0.40100  1.0000
  O   O10       1.0  0.50000  0.41100  0.41100  1.0000
  O   O11       1.0  0.50000  0.00000  0.50000  1.0000
  O   O12       1.0  0.50000  0.58900  0.58900  1.0000
  O   O13       1.0  0.00000  0.40200  0.59800  1.0000
  O   O14       1.0  0.00000  0.13000  0.62000  1.0000
  O   O15       1.0  0.00000  0.86800  0.63800  1.0000
  O   O16       1.0  0.50000  0.26300  0.73700  1.0000
  O   O17       1.0  0.00000  0.63800  0.86800  1.0000
  O   O18       1.0  0.00000  0.38000  0.87000  1.0000
  O   O19       1.0  0.50000  0.87800  0.87800  1.0000
  O   O20       1.0  0.00000  0.11700  0.88300  1.0000
  Sr  Sr1       1.0  0.50000  0.72700  0.02890  1.0000
  Sr  Sr2       1.0  0.50000  0.51100  0.23300  1.0000
  Sr  Sr3       1.0  0.50000  0.97100  0.27300  1.0000
  Sr  Sr4       1.0  0.50000  0.76700  0.48900  1.0000
  Sr  Sr5       1.0  0.50000  0.23200  0.51100  1.0000
  Sr  Sr6       1.0  0.50000  0.02890  0.72700  1.0000
  Sr  Sr7       1.0  0.50000  0.48900  0.76800  1.0000
  Sr  Sr8       1.0  0.50000  0.27300  0.97100  1.0000
  Tl  Tl1       1.0  0.00000  0.00000  0.00000  1.0000
  Tl  Tl2       1.0  0.00000  0.23000  0.23000  1.0000
  Tl  Tl3       1.0  0.00000  0.77000  0.77000  1.0000
