data_image0
_chemical_formula_structural       Ag4F28Ir4
_chemical_formula_sum              "Ag4 F28 Ir4"
_cell_length_a       7.15262
_cell_length_b       6.85512
_cell_length_c       9.89034
_cell_angle_alpha    90
_cell_angle_beta     90
_cell_angle_gamma    90

_space_group_name_H-M_alt    "P 1"
_space_group_IT_number       1

loop_
  _space_group_symop_operation_xyz
  'x, y, z'

loop_
  _atom_site_type_symbol
  _atom_site_label
  _atom_site_symmetry_multiplicity
  _atom_site_fract_x
  _atom_site_fract_y
  _atom_site_fract_z
  _atom_site_occupancy
  Ag  Ag1       1.0  0.15300  0.25000  0.24000  1.0000
  Ag  Ag2       1.0  0.65300  0.25000  0.26000  1.0000
  Ag  Ag3       1.0  0.34700  0.75000  0.74000  1.0000
  Ag  Ag4       1.0  0.84700  0.75000  0.76000  1.0000
  F   F1        1.0  0.05980  0.25000  0.00547  1.0000
  F   F2        1.0  0.74700  0.05500  0.06730  1.0000
  F   F3        1.0  0.74700  0.44500  0.06730  1.0000
  F   F4        1.0  0.43300  0.75000  0.12600  1.0000
  F   F5        1.0  0.40900  0.25000  0.14900  1.0000
  F   F6        1.0  0.10700  0.56500  0.19400  1.0000
  F   F7        1.0  0.10700  0.93500  0.19400  1.0000
  F   F8        1.0  0.60700  0.56500  0.30600  1.0000
  F   F9        1.0  0.60700  0.93500  0.30600  1.0000
  F   F10       1.0  0.90900  0.25000  0.35100  1.0000
  F   F11       1.0  0.93300  0.75000  0.37400  1.0000
  F   F12       1.0  0.24700  0.05500  0.43300  1.0000
  F   F13       1.0  0.24700  0.44500  0.43300  1.0000
  F   F14       1.0  0.56000  0.25000  0.49500  1.0000
  F   F15       1.0  0.44000  0.75000  0.50500  1.0000
  F   F16       1.0  0.75300  0.55500  0.56700  1.0000
  F   F17       1.0  0.75300  0.94500  0.56700  1.0000
  F   F18       1.0  0.06660  0.25000  0.62600  1.0000
  F   F19       1.0  0.09070  0.75000  0.64900  1.0000
  F   F20       1.0  0.39300  0.06460  0.69400  1.0000
  F   F21       1.0  0.39300  0.43500  0.69400  1.0000
  F   F22       1.0  0.89300  0.06460  0.80600  1.0000
  F   F23       1.0  0.89300  0.43500  0.80600  1.0000
  F   F24       1.0  0.59100  0.75000  0.85100  1.0000
  F   F25       1.0  0.56700  0.25000  0.87400  1.0000
  F   F26       1.0  0.25300  0.55500  0.93300  1.0000
  F   F27       1.0  0.25300  0.94500  0.93300  1.0000
  F   F28       1.0  0.94000  0.75000  0.99500  1.0000
  Ir  Ir1       1.0  0.18800  0.75000  0.06250  1.0000
  Ir  Ir2       1.0  0.68800  0.75000  0.43800  1.0000
  Ir  Ir3       1.0  0.31200  0.25000  0.56200  1.0000
  Ir  Ir4       1.0  0.81200  0.25000  0.93800  1.0000
