data_image0
_chemical_formula_structural       Cs4Er12Se20
_chemical_formula_sum              "Cs4 Er12 Se20"
_cell_length_a       22.1685
_cell_length_b       4.11125
_cell_length_c       12.2596
_cell_angle_alpha    90
_cell_angle_beta     90
_cell_angle_gamma    90

_space_group_name_H-M_alt    "P 1"
_space_group_IT_number       1

loop_
  _space_group_symop_operation_xyz
  'x, y, z'

loop_
  _atom_site_type_symbol
  _atom_site_label
  _atom_site_symmetry_multiplicity
  _atom_site_fract_x
  _atom_site_fract_y
  _atom_site_fract_z
  _atom_site_occupancy
  Cs  Cs1       1.0  0.91000  0.75000  0.14300  1.0000
  Cs  Cs2       1.0  0.41000  0.75000  0.35700  1.0000
  Cs  Cs3       1.0  0.59000  0.25000  0.64300  1.0000
  Cs  Cs4       1.0  0.09010  0.25000  0.85700  1.0000
  Er  Er1       1.0  0.30300  0.75000  0.04480  1.0000
  Er  Er2       1.0  0.55400  0.75000  0.11000  1.0000
  Er  Er3       1.0  0.17500  0.25000  0.20200  1.0000
  Er  Er4       1.0  0.67500  0.25000  0.29800  1.0000
  Er  Er5       1.0  0.05410  0.75000  0.39000  1.0000
  Er  Er6       1.0  0.80300  0.75000  0.45500  1.0000
  Er  Er7       1.0  0.19700  0.25000  0.54500  1.0000
  Er  Er8       1.0  0.94600  0.25000  0.61000  1.0000
  Er  Er9       1.0  0.32500  0.75000  0.70200  1.0000
  Er  Er10      1.0  0.82500  0.75000  0.79800  1.0000
  Er  Er11      1.0  0.44600  0.25000  0.89000  1.0000
  Er  Er12      1.0  0.69700  0.25000  0.95500  1.0000
  Se  Se1       1.0  0.17600  0.75000  0.04790  1.0000
  Se  Se2       1.0  0.43100  0.75000  0.05250  1.0000
  Se  Se3       1.0  0.68400  0.75000  0.12600  1.0000
  Se  Se4       1.0  0.30200  0.25000  0.19700  1.0000
  Se  Se5       1.0  0.04820  0.25000  0.23200  1.0000
  Se  Se6       1.0  0.54800  0.25000  0.26800  1.0000
  Se  Se7       1.0  0.80200  0.25000  0.30300  1.0000
  Se  Se8       1.0  0.18400  0.75000  0.37400  1.0000
  Se  Se9       1.0  0.93100  0.75000  0.44700  1.0000
  Se  Se10      1.0  0.67600  0.75000  0.45200  1.0000
  Se  Se11      1.0  0.32400  0.25000  0.54800  1.0000
  Se  Se12      1.0  0.06850  0.25000  0.55300  1.0000
  Se  Se13      1.0  0.81600  0.25000  0.62600  1.0000
  Se  Se14      1.0  0.19800  0.75000  0.69700  1.0000
  Se  Se15      1.0  0.45200  0.75000  0.73200  1.0000
  Se  Se16      1.0  0.95200  0.75000  0.76800  1.0000
  Se  Se17      1.0  0.69800  0.75000  0.80300  1.0000
  Se  Se18      1.0  0.31600  0.25000  0.87400  1.0000
  Se  Se19      1.0  0.56900  0.25000  0.94700  1.0000
  Se  Se20      1.0  0.82400  0.25000  0.95200  1.0000
