data_image0
_chemical_formula_structural       F28Sm4Sn4
_chemical_formula_sum              "F28 Sm4 Sn4"
_cell_length_a       11.0878
_cell_length_b       5.3755
_cell_length_c       8.85108
_cell_angle_alpha    90
_cell_angle_beta     107.046
_cell_angle_gamma    90

_space_group_name_H-M_alt    "P 1"
_space_group_IT_number       1

loop_
  _space_group_symop_operation_xyz
  'x, y, z'

loop_
  _atom_site_type_symbol
  _atom_site_label
  _atom_site_symmetry_multiplicity
  _atom_site_fract_x
  _atom_site_fract_y
  _atom_site_fract_z
  _atom_site_occupancy
  F   F1        1.0  0.05040  0.73700  0.07060  1.0000
  F   F2        1.0  0.81600  0.57200  0.07880  1.0000
  F   F3        1.0  0.41100  0.43100  0.11300  1.0000
  F   F4        1.0  0.64000  0.21000  0.11800  1.0000
  F   F5        1.0  0.86900  0.05860  0.15100  1.0000
  F   F6        1.0  0.22500  0.11900  0.18400  1.0000
  F   F7        1.0  0.46200  0.92300  0.18600  1.0000
  F   F8        1.0  0.03790  0.42300  0.31400  1.0000
  F   F9        1.0  0.27500  0.61900  0.31600  1.0000
  F   F10       1.0  0.63100  0.55900  0.34900  1.0000
  F   F11       1.0  0.86000  0.71000  0.38200  1.0000
  F   F12       1.0  0.08920  0.93100  0.38700  1.0000
  F   F13       1.0  0.68400  0.07240  0.42100  1.0000
  F   F14       1.0  0.45000  0.23700  0.42900  1.0000
  F   F15       1.0  0.55000  0.76300  0.57100  1.0000
  F   F16       1.0  0.31600  0.92800  0.57900  1.0000
  F   F17       1.0  0.91100  0.06850  0.61300  1.0000
  F   F18       1.0  0.14000  0.29000  0.61800  1.0000
  F   F19       1.0  0.36900  0.44100  0.65100  1.0000
  F   F20       1.0  0.72500  0.38100  0.68400  1.0000
  F   F21       1.0  0.96200  0.57700  0.68600  1.0000
  F   F22       1.0  0.53800  0.07650  0.81400  1.0000
  F   F23       1.0  0.77500  0.88100  0.81600  1.0000
  F   F24       1.0  0.13100  0.94100  0.84900  1.0000
  F   F25       1.0  0.36000  0.79000  0.88200  1.0000
  F   F26       1.0  0.58900  0.56900  0.88700  1.0000
  F   F27       1.0  0.18400  0.42800  0.92100  1.0000
  F   F28       1.0  0.95000  0.26300  0.92900  1.0000
  Sm  Sm1       1.0  0.26400  0.76100  0.07500  1.0000
  Sm  Sm2       1.0  0.23600  0.26100  0.42500  1.0000
  Sm  Sm3       1.0  0.76400  0.73900  0.57500  1.0000
  Sm  Sm4       1.0  0.73600  0.23900  0.92500  1.0000
  Sn  Sn1       1.0  0.95800  0.74500  0.23000  1.0000
  Sn  Sn2       1.0  0.54200  0.24500  0.27000  1.0000
  Sn  Sn3       1.0  0.45800  0.75500  0.73000  1.0000
  Sn  Sn4       1.0  0.04220  0.25500  0.77000  1.0000
