data_image0
_chemical_formula_structural       LiMnO6Ru
_chemical_formula_sum              "Li1 Mn1 O6 Ru1"
_cell_length_a       5.00414
_cell_length_b       5.00414
_cell_length_c       4.84074
_cell_angle_alpha    98.3195
_cell_angle_beta     98.3195
_cell_angle_gamma    120.201

_space_group_name_H-M_alt    "P 1"
_space_group_IT_number       1

loop_
  _space_group_symop_operation_xyz
  'x, y, z'

loop_
  _atom_site_type_symbol
  _atom_site_label
  _atom_site_symmetry_multiplicity
  _atom_site_fract_x
  _atom_site_fract_y
  _atom_site_fract_z
  _atom_site_occupancy
  Li  Li1       1.0  0.38000  0.62000  0.50000  1.0000
  Mn  Mn1       1.0  0.15900  0.84100  0.00000  1.0000
  O   O1        1.0  0.55200  0.93400  0.22400  1.0000
  O   O2        1.0  0.18200  0.19600  0.22800  1.0000
  O   O3        1.0  0.94400  0.57200  0.23400  1.0000
  O   O4        1.0  0.42800  0.05640  0.76600  1.0000
  O   O5        1.0  0.80400  0.81800  0.77200  1.0000
  O   O6        1.0  0.06600  0.44800  0.77600  1.0000
  Ru  Ru1       1.0  0.82400  0.17600  0.00000  1.0000
