data_image0
_chemical_formula_structural       F14Sm2Zr2
_chemical_formula_sum              "F14 Sm2 Zr2"
_cell_length_a       5.84562
_cell_length_b       5.49044
_cell_length_c       8.12443
_cell_angle_alpha    90
_cell_angle_beta     101.863
_cell_angle_gamma    90

_space_group_name_H-M_alt    "P 1"
_space_group_IT_number       1

loop_
  _space_group_symop_operation_xyz
  'x, y, z'

loop_
  _atom_site_type_symbol
  _atom_site_label
  _atom_site_symmetry_multiplicity
  _atom_site_fract_x
  _atom_site_fract_y
  _atom_site_fract_z
  _atom_site_occupancy
  F   F1        1.0  0.60000  0.76800  0.01880  1.0000
  F   F2        1.0  0.06630  0.60000  0.03260  1.0000
  F   F3        1.0  0.82400  0.40900  0.25200  1.0000
  F   F4        1.0  0.00954  0.90800  0.27700  1.0000
  F   F5        1.0  0.51100  0.05600  0.28900  1.0000
  F   F6        1.0  0.40700  0.57600  0.31200  1.0000
  F   F7        1.0  0.19300  0.25700  0.47600  1.0000
  F   F8        1.0  0.80700  0.75700  0.52400  1.0000
  F   F9        1.0  0.59300  0.07580  0.68800  1.0000
  F   F10       1.0  0.48900  0.55600  0.71100  1.0000
  F   F11       1.0  0.99000  0.40800  0.72300  1.0000
  F   F12       1.0  0.17600  0.90900  0.74800  1.0000
  F   F13       1.0  0.93400  0.09990  0.96700  1.0000
  F   F14       1.0  0.40000  0.26800  0.98100  1.0000
  Sm  Sm1       1.0  0.16900  0.26300  0.18900  1.0000
  Sm  Sm2       1.0  0.83100  0.76300  0.81100  1.0000
  Zr  Zr1       1.0  0.69800  0.74900  0.27400  1.0000
  Zr  Zr2       1.0  0.30200  0.24900  0.72600  1.0000
