data_image0
_chemical_formula_structural       F28Ho4Pt4
_chemical_formula_sum              "F28 Ho4 Pt4"
_cell_length_a       10.7993
_cell_length_b       5.21456
_cell_length_c       8.53878
_cell_angle_alpha    90
_cell_angle_beta     106.807
_cell_angle_gamma    90

_space_group_name_H-M_alt    "P 1"
_space_group_IT_number       1

loop_
  _space_group_symop_operation_xyz
  'x, y, z'

loop_
  _atom_site_type_symbol
  _atom_site_label
  _atom_site_symmetry_multiplicity
  _atom_site_fract_x
  _atom_site_fract_y
  _atom_site_fract_z
  _atom_site_occupancy
  F   F1        1.0  0.04670  0.74400  0.06120  1.0000
  F   F2        1.0  0.81400  0.93000  0.07490  1.0000
  F   F3        1.0  0.40600  0.07870  0.10600  1.0000
  F   F4        1.0  0.63400  0.30200  0.10800  1.0000
  F   F5        1.0  0.86500  0.43800  0.16200  1.0000
  F   F6        1.0  0.22700  0.38400  0.18800  1.0000
  F   F7        1.0  0.46000  0.59000  0.20100  1.0000
  F   F8        1.0  0.04000  0.08990  0.29900  1.0000
  F   F9        1.0  0.27300  0.88400  0.31200  1.0000
  F   F10       1.0  0.63500  0.93800  0.33800  1.0000
  F   F11       1.0  0.86600  0.80200  0.39200  1.0000
  F   F12       1.0  0.09360  0.57900  0.39400  1.0000
  F   F13       1.0  0.68600  0.43000  0.42500  1.0000
  F   F14       1.0  0.45300  0.24400  0.43900  1.0000
  F   F15       1.0  0.54700  0.75600  0.56100  1.0000
  F   F16       1.0  0.31400  0.57000  0.57500  1.0000
  F   F17       1.0  0.90600  0.42100  0.60600  1.0000
  F   F18       1.0  0.13400  0.19800  0.60800  1.0000
  F   F19       1.0  0.36500  0.06230  0.66200  1.0000
  F   F20       1.0  0.72700  0.11600  0.68800  1.0000
  F   F21       1.0  0.96000  0.91000  0.70100  1.0000
  F   F22       1.0  0.54000  0.41000  0.79900  1.0000
  F   F23       1.0  0.77300  0.61600  0.81200  1.0000
  F   F24       1.0  0.13500  0.56200  0.83800  1.0000
  F   F25       1.0  0.36600  0.69800  0.89200  1.0000
  F   F26       1.0  0.59400  0.92100  0.89400  1.0000
  F   F27       1.0  0.18600  0.07040  0.92500  1.0000
  F   F28       1.0  0.95300  0.25600  0.93900  1.0000
  Ho  Ho1       1.0  0.26200  0.73400  0.07630  1.0000
  Ho  Ho2       1.0  0.23800  0.23400  0.42400  1.0000
  Ho  Ho3       1.0  0.76200  0.76600  0.57600  1.0000
  Ho  Ho4       1.0  0.73800  0.26600  0.92400  1.0000
  Pt  Pt1       1.0  0.95800  0.75900  0.23000  1.0000
  Pt  Pt2       1.0  0.54200  0.25900  0.27000  1.0000
  Pt  Pt3       1.0  0.45800  0.74100  0.73000  1.0000
  Pt  Pt4       1.0  0.04180  0.24100  0.77000  1.0000
