data_image0
_chemical_formula_structural       Cu4H4O20Pb4V4
_chemical_formula_sum              "Cu4 H4 O20 Pb4 V4"
_cell_length_a       7.63623
_cell_length_b       6.03742
_cell_length_c       9.2102
_cell_angle_alpha    90
_cell_angle_beta     90
_cell_angle_gamma    90

_space_group_name_H-M_alt    "P 1"
_space_group_IT_number       1

loop_
  _space_group_symop_operation_xyz
  'x, y, z'

loop_
  _atom_site_type_symbol
  _atom_site_label
  _atom_site_symmetry_multiplicity
  _atom_site_fract_x
  _atom_site_fract_y
  _atom_site_fract_z
  _atom_site_occupancy
  Cu  Cu1       1.0  0.50000  0.00000  0.00000  1.0000
  Cu  Cu2       1.0  0.50000  0.50000  0.00000  1.0000
  Cu  Cu3       1.0  0.00000  0.00000  0.50000  1.0000
  Cu  Cu4       1.0  0.00000  0.50000  0.50000  1.0000
  H   H1        1.0  0.75400  0.25000  0.00660  1.0000
  H   H2        1.0  0.25400  0.25000  0.49300  1.0000
  H   H3        1.0  0.74600  0.75000  0.50700  1.0000
  H   H4        1.0  0.24600  0.75000  0.99300  1.0000
  O   O1        1.0  0.64100  0.25000  0.06150  1.0000
  O   O2        1.0  0.05980  0.75000  0.08260  1.0000
  O   O3        1.0  0.70600  0.75000  0.08370  1.0000
  O   O4        1.0  0.38800  0.50200  0.19900  1.0000
  O   O5        1.0  0.38800  0.99800  0.19900  1.0000
  O   O6        1.0  0.88800  0.50200  0.30100  1.0000
  O   O7        1.0  0.88800  0.99800  0.30100  1.0000
  O   O8        1.0  0.20600  0.75000  0.41600  1.0000
  O   O9        1.0  0.56000  0.75000  0.41700  1.0000
  O   O10       1.0  0.14100  0.25000  0.43900  1.0000
  O   O11       1.0  0.85900  0.75000  0.56100  1.0000
  O   O12       1.0  0.44000  0.25000  0.58300  1.0000
  O   O13       1.0  0.79400  0.25000  0.58400  1.0000
  O   O14       1.0  0.11200  0.00151  0.69900  1.0000
  O   O15       1.0  0.11200  0.49800  0.69900  1.0000
  O   O16       1.0  0.61200  0.00151  0.80100  1.0000
  O   O17       1.0  0.61200  0.49800  0.80100  1.0000
  O   O18       1.0  0.29400  0.25000  0.91600  1.0000
  O   O19       1.0  0.94000  0.25000  0.91700  1.0000
  O   O20       1.0  0.35900  0.75000  0.93900  1.0000
  Pb  Pb1       1.0  0.13000  0.25000  0.17000  1.0000
  Pb  Pb2       1.0  0.63000  0.25000  0.33000  1.0000
  Pb  Pb3       1.0  0.37000  0.75000  0.67000  1.0000
  Pb  Pb4       1.0  0.87000  0.75000  0.83000  1.0000
  V   V1        1.0  0.88300  0.75000  0.19700  1.0000
  V   V2        1.0  0.38300  0.75000  0.30300  1.0000
  V   V3        1.0  0.61700  0.25000  0.69700  1.0000
  V   V4        1.0  0.11700  0.25000  0.80300  1.0000
