data_image0
_chemical_formula_structural       Dy4F28Pt4
_chemical_formula_sum              "Dy4 F28 Pt4"
_cell_length_a       10.8343
_cell_length_b       5.22048
_cell_length_c       8.52073
_cell_angle_alpha    90
_cell_angle_beta     106.784
_cell_angle_gamma    90

_space_group_name_H-M_alt    "P 1"
_space_group_IT_number       1

loop_
  _space_group_symop_operation_xyz
  'x, y, z'

loop_
  _atom_site_type_symbol
  _atom_site_label
  _atom_site_symmetry_multiplicity
  _atom_site_fract_x
  _atom_site_fract_y
  _atom_site_fract_z
  _atom_site_occupancy
  Dy  Dy1       1.0  0.26000  0.73100  0.07350  1.0000
  Dy  Dy2       1.0  0.24000  0.23100  0.42600  1.0000
  Dy  Dy3       1.0  0.76000  0.76900  0.57400  1.0000
  Dy  Dy4       1.0  0.74000  0.26900  0.92600  1.0000
  F   F1        1.0  0.04420  0.73400  0.05880  1.0000
  F   F2        1.0  0.81400  0.93000  0.07840  1.0000
  F   F3        1.0  0.62500  0.32200  0.09940  1.0000
  F   F4        1.0  0.40500  0.08100  0.10600  1.0000
  F   F5        1.0  0.86300  0.44100  0.17200  1.0000
  F   F6        1.0  0.22700  0.37800  0.18600  1.0000
  F   F7        1.0  0.45700  0.59100  0.21400  1.0000
  F   F8        1.0  0.04330  0.09130  0.28600  1.0000
  F   F9        1.0  0.27300  0.87800  0.31400  1.0000
  F   F10       1.0  0.63700  0.94100  0.32800  1.0000
  F   F11       1.0  0.09510  0.58100  0.39400  1.0000
  F   F12       1.0  0.87500  0.82200  0.40100  1.0000
  F   F13       1.0  0.68600  0.43000  0.42200  1.0000
  F   F14       1.0  0.45600  0.23400  0.44100  1.0000
  F   F15       1.0  0.54400  0.76600  0.55900  1.0000
  F   F16       1.0  0.31400  0.57000  0.57800  1.0000
  F   F17       1.0  0.12500  0.17800  0.59900  1.0000
  F   F18       1.0  0.90500  0.41900  0.60600  1.0000
  F   F19       1.0  0.36300  0.05950  0.67200  1.0000
  F   F20       1.0  0.72700  0.12200  0.68600  1.0000
  F   F21       1.0  0.95700  0.90900  0.71400  1.0000
  F   F22       1.0  0.54300  0.40900  0.78600  1.0000
  F   F23       1.0  0.77300  0.62200  0.81400  1.0000
  F   F24       1.0  0.13700  0.55900  0.82800  1.0000
  F   F25       1.0  0.59500  0.91900  0.89400  1.0000
  F   F26       1.0  0.37500  0.67800  0.90100  1.0000
  F   F27       1.0  0.18600  0.07020  0.92200  1.0000
  F   F28       1.0  0.95600  0.26600  0.94100  1.0000
  Pt  Pt1       1.0  0.95900  0.76000  0.23100  1.0000
  Pt  Pt2       1.0  0.54100  0.26000  0.26900  1.0000
  Pt  Pt3       1.0  0.45900  0.74000  0.73100  1.0000
  Pt  Pt4       1.0  0.04090  0.24000  0.76900  1.0000
