data_image0
_chemical_formula_structural       Mn20P12U4
_chemical_formula_sum              "Mn20 P12 U4"
_cell_length_a       11.8367
_cell_length_b       3.60948
_cell_length_c       10.7623
_cell_angle_alpha    90
_cell_angle_beta     90
_cell_angle_gamma    90

_space_group_name_H-M_alt    "P 1"
_space_group_IT_number       1

loop_
  _space_group_symop_operation_xyz
  'x, y, z'

loop_
  _atom_site_type_symbol
  _atom_site_label
  _atom_site_symmetry_multiplicity
  _atom_site_fract_x
  _atom_site_fract_y
  _atom_site_fract_z
  _atom_site_occupancy
  Mn  Mn1       1.0  0.43200  0.25000  0.02990  1.0000
  Mn  Mn2       1.0  0.98500  0.25000  0.09400  1.0000
  Mn  Mn3       1.0  0.30500  0.75000  0.11300  1.0000
  Mn  Mn4       1.0  0.17900  0.25000  0.21100  1.0000
  Mn  Mn5       1.0  0.51800  0.75000  0.21200  1.0000
  Mn  Mn6       1.0  0.01810  0.75000  0.28800  1.0000
  Mn  Mn7       1.0  0.67900  0.25000  0.28900  1.0000
  Mn  Mn8       1.0  0.80500  0.75000  0.38700  1.0000
  Mn  Mn9       1.0  0.48500  0.25000  0.40600  1.0000
  Mn  Mn10      1.0  0.93200  0.25000  0.47000  1.0000
  Mn  Mn11      1.0  0.06820  0.75000  0.53000  1.0000
  Mn  Mn12      1.0  0.51500  0.75000  0.59400  1.0000
  Mn  Mn13      1.0  0.19500  0.25000  0.61300  1.0000
  Mn  Mn14      1.0  0.32100  0.75000  0.71100  1.0000
  Mn  Mn15      1.0  0.98200  0.25000  0.71200  1.0000
  Mn  Mn16      1.0  0.48200  0.25000  0.78800  1.0000
  Mn  Mn17      1.0  0.82100  0.75000  0.78900  1.0000
  Mn  Mn18      1.0  0.69500  0.25000  0.88700  1.0000
  Mn  Mn19      1.0  0.01550  0.75000  0.90600  1.0000
  Mn  Mn20      1.0  0.56800  0.75000  0.97000  1.0000
  P   P1        1.0  0.61700  0.25000  0.09060  1.0000
  P   P2        1.0  0.10900  0.75000  0.09300  1.0000
  P   P3        1.0  0.37500  0.25000  0.22900  1.0000
  P   P4        1.0  0.87500  0.25000  0.27100  1.0000
  P   P5        1.0  0.60900  0.75000  0.40700  1.0000
  P   P6        1.0  0.11700  0.25000  0.40900  1.0000
  P   P7        1.0  0.88300  0.75000  0.59100  1.0000
  P   P8        1.0  0.39100  0.25000  0.59300  1.0000
  P   P9        1.0  0.12500  0.75000  0.72900  1.0000
  P   P10       1.0  0.62500  0.75000  0.77100  1.0000
  P   P11       1.0  0.89100  0.25000  0.90700  1.0000
  P   P12       1.0  0.38300  0.75000  0.90900  1.0000
  U   U1        1.0  0.80000  0.75000  0.08820  1.0000
  U   U2        1.0  0.30000  0.75000  0.41200  1.0000
  U   U3        1.0  0.70000  0.25000  0.58800  1.0000
  U   U4        1.0  0.20000  0.25000  0.91200  1.0000
