data_image0
_chemical_formula_structural       Co8H4O20P4
_chemical_formula_sum              "Co8 H4 O20 P4"
_cell_length_a       7.96484
_cell_length_b       8.32611
_cell_length_c       5.94714
_cell_angle_alpha    90
_cell_angle_beta     90
_cell_angle_gamma    90

_space_group_name_H-M_alt    "P 1"
_space_group_IT_number       1

loop_
  _space_group_symop_operation_xyz
  'x, y, z'

loop_
  _atom_site_type_symbol
  _atom_site_label
  _atom_site_symmetry_multiplicity
  _atom_site_fract_x
  _atom_site_fract_y
  _atom_site_fract_z
  _atom_site_occupancy
  Co  Co1       1.0  0.85900  0.12900  0.00000  1.0000
  Co  Co2       1.0  0.14100  0.87100  0.00000  1.0000
  Co  Co3       1.0  0.00000  0.50000  0.24600  1.0000
  Co  Co4       1.0  0.50000  0.00000  0.25400  1.0000
  Co  Co5       1.0  0.35900  0.37100  0.50000  1.0000
  Co  Co6       1.0  0.64100  0.62900  0.50000  1.0000
  Co  Co7       1.0  0.50000  0.00000  0.74600  1.0000
  Co  Co8       1.0  0.00000  0.50000  0.75400  1.0000
  H   H1        1.0  0.76800  0.41900  0.00000  1.0000
  H   H2        1.0  0.23200  0.58100  0.00000  1.0000
  H   H3        1.0  0.26800  0.08120  0.50000  1.0000
  H   H4        1.0  0.73200  0.91900  0.50000  1.0000
  O   O1        1.0  0.11000  0.11400  0.00000  1.0000
  O   O2        1.0  0.42000  0.15400  0.00000  1.0000
  O   O3        1.0  0.88100  0.37400  0.00000  1.0000
  O   O4        1.0  0.11900  0.62600  0.00000  1.0000
  O   O5        1.0  0.58000  0.84600  0.00000  1.0000
  O   O6        1.0  0.89000  0.88600  0.00000  1.0000
  O   O7        1.0  0.23200  0.35300  0.21000  1.0000
  O   O8        1.0  0.76800  0.64700  0.21000  1.0000
  O   O9        1.0  0.73200  0.14700  0.29000  1.0000
  O   O10       1.0  0.26800  0.85300  0.29000  1.0000
  O   O11       1.0  0.38100  0.12600  0.50000  1.0000
  O   O12       1.0  0.92000  0.34600  0.50000  1.0000
  O   O13       1.0  0.61000  0.38600  0.50000  1.0000
  O   O14       1.0  0.39000  0.61400  0.50000  1.0000
  O   O15       1.0  0.08040  0.65400  0.50000  1.0000
  O   O16       1.0  0.61900  0.87400  0.50000  1.0000
  O   O17       1.0  0.73200  0.14700  0.71000  1.0000
  O   O18       1.0  0.26800  0.85300  0.71000  1.0000
  O   O19       1.0  0.23200  0.35300  0.79000  1.0000
  O   O20       1.0  0.76800  0.64700  0.79000  1.0000
  P   P1        1.0  0.24900  0.24400  0.00000  1.0000
  P   P2        1.0  0.75100  0.75600  0.00000  1.0000
  P   P3        1.0  0.74900  0.25600  0.50000  1.0000
  P   P4        1.0  0.25100  0.74400  0.50000  1.0000
