data_image0
_chemical_formula_structural       LiMnNiO6
_chemical_formula_sum              "Li1 Mn1 Ni1 O6"
_cell_length_a       4.8045
_cell_length_b       4.8045
_cell_length_c       4.70473
_cell_angle_alpha    97.0093
_cell_angle_beta     97.0093
_cell_angle_gamma    121.769

_space_group_name_H-M_alt    "P 1"
_space_group_IT_number       1

loop_
  _space_group_symop_operation_xyz
  'x, y, z'

loop_
  _atom_site_type_symbol
  _atom_site_label
  _atom_site_symmetry_multiplicity
  _atom_site_fract_x
  _atom_site_fract_y
  _atom_site_fract_z
  _atom_site_occupancy
  Li  Li1       1.0  0.37600  0.62400  0.50000  1.0000
  Mn  Mn1       1.0  0.15100  0.84900  0.00000  1.0000
  Ni  Ni1       1.0  0.82800  0.17200  0.00000  1.0000
  O   O1        1.0  0.54900  0.90900  0.21600  1.0000
  O   O2        1.0  0.20000  0.21700  0.22200  1.0000
  O   O3        1.0  0.92100  0.55400  0.23600  1.0000
  O   O4        1.0  0.44600  0.07940  0.76400  1.0000
  O   O5        1.0  0.78300  0.80000  0.77800  1.0000
  O   O6        1.0  0.09100  0.45100  0.78400  1.0000
