data_image0
_chemical_formula_structural       F28Sn4Tl4
_chemical_formula_sum              "F28 Sn4 Tl4"
_cell_length_a       10.8816
_cell_length_b       5.18101
_cell_length_c       8.38452
_cell_angle_alpha    90
_cell_angle_beta     105.762
_cell_angle_gamma    90

_space_group_name_H-M_alt    "P 1"
_space_group_IT_number       1

loop_
  _space_group_symop_operation_xyz
  'x, y, z'

loop_
  _atom_site_type_symbol
  _atom_site_label
  _atom_site_symmetry_multiplicity
  _atom_site_fract_x
  _atom_site_fract_y
  _atom_site_fract_z
  _atom_site_occupancy
  F   F1        1.0  0.04510  0.76900  0.05540  1.0000
  F   F2        1.0  0.61200  0.12200  0.08100  1.0000
  F   F3        1.0  0.80700  0.55600  0.09400  1.0000
  F   F4        1.0  0.41100  0.42700  0.09760  1.0000
  F   F5        1.0  0.22800  0.13600  0.17500  1.0000
  F   F6        1.0  0.85300  0.04680  0.17600  1.0000
  F   F7        1.0  0.45400  0.89200  0.23500  1.0000
  F   F8        1.0  0.04590  0.39200  0.26500  1.0000
  F   F9        1.0  0.64700  0.54700  0.32400  1.0000
  F   F10       1.0  0.27200  0.63600  0.32500  1.0000
  F   F11       1.0  0.08920  0.92700  0.40200  1.0000
  F   F12       1.0  0.69300  0.05580  0.40600  1.0000
  F   F13       1.0  0.88800  0.62200  0.41900  1.0000
  F   F14       1.0  0.45500  0.26900  0.44500  1.0000
  F   F15       1.0  0.54500  0.73100  0.55500  1.0000
  F   F16       1.0  0.11200  0.37800  0.58100  1.0000
  F   F17       1.0  0.30700  0.94400  0.59400  1.0000
  F   F18       1.0  0.91100  0.07300  0.59800  1.0000
  F   F19       1.0  0.72800  0.36400  0.67500  1.0000
  F   F20       1.0  0.35300  0.45300  0.67600  1.0000
  F   F21       1.0  0.95400  0.60800  0.73500  1.0000
  F   F22       1.0  0.54600  0.10800  0.76500  1.0000
  F   F23       1.0  0.14700  0.95300  0.82400  1.0000
  F   F24       1.0  0.77200  0.86400  0.82500  1.0000
  F   F25       1.0  0.58900  0.57300  0.90200  1.0000
  F   F26       1.0  0.19300  0.44400  0.90600  1.0000
  F   F27       1.0  0.38800  0.87800  0.91900  1.0000
  F   F28       1.0  0.95500  0.23100  0.94500  1.0000
  Sn  Sn1       1.0  0.96000  0.73500  0.23600  1.0000
  Sn  Sn2       1.0  0.54000  0.23500  0.26400  1.0000
  Sn  Sn3       1.0  0.46000  0.76500  0.73600  1.0000
  Sn  Sn4       1.0  0.04020  0.26500  0.76400  1.0000
  Tl  Tl1       1.0  0.26100  0.76400  0.07300  1.0000
  Tl  Tl2       1.0  0.23900  0.26400  0.42700  1.0000
  Tl  Tl3       1.0  0.76100  0.73600  0.57300  1.0000
  Tl  Tl4       1.0  0.73900  0.23600  0.92700  1.0000
