data_image0
_chemical_formula_structural       F28Pt4Sm4
_chemical_formula_sum              "F28 Pt4 Sm4"
_cell_length_a       10.9375
_cell_length_b       5.26033
_cell_length_c       8.71986
_cell_angle_alpha    90
_cell_angle_beta     106.793
_cell_angle_gamma    90

_space_group_name_H-M_alt    "P 1"
_space_group_IT_number       1

loop_
  _space_group_symop_operation_xyz
  'x, y, z'

loop_
  _atom_site_type_symbol
  _atom_site_label
  _atom_site_symmetry_multiplicity
  _atom_site_fract_x
  _atom_site_fract_y
  _atom_site_fract_z
  _atom_site_occupancy
  F   F1        1.0  0.03930  0.73200  0.06050  1.0000
  F   F2        1.0  0.81500  0.92500  0.08690  1.0000
  F   F3        1.0  0.61800  0.32400  0.09520  1.0000
  F   F4        1.0  0.40300  0.08430  0.10600  1.0000
  F   F5        1.0  0.86500  0.44100  0.17900  1.0000
  F   F6        1.0  0.22400  0.36900  0.18300  1.0000
  F   F7        1.0  0.45700  0.58900  0.21600  1.0000
  F   F8        1.0  0.04340  0.08860  0.28400  1.0000
  F   F9        1.0  0.27600  0.86900  0.31700  1.0000
  F   F10       1.0  0.63500  0.94100  0.32100  1.0000
  F   F11       1.0  0.09680  0.58400  0.39400  1.0000
  F   F12       1.0  0.88200  0.82400  0.40500  1.0000
  F   F13       1.0  0.68500  0.42500  0.41300  1.0000
  F   F14       1.0  0.46100  0.23200  0.44000  1.0000
  F   F15       1.0  0.53900  0.76800  0.56000  1.0000
  F   F16       1.0  0.31500  0.57500  0.58700  1.0000
  F   F17       1.0  0.11800  0.17600  0.59500  1.0000
  F   F18       1.0  0.90300  0.41600  0.60600  1.0000
  F   F19       1.0  0.36500  0.05940  0.67900  1.0000
  F   F20       1.0  0.72400  0.13100  0.68300  1.0000
  F   F21       1.0  0.95700  0.91100  0.71600  1.0000
  F   F22       1.0  0.54300  0.41100  0.78400  1.0000
  F   F23       1.0  0.77600  0.63100  0.81700  1.0000
  F   F24       1.0  0.13500  0.55900  0.82100  1.0000
  F   F25       1.0  0.59700  0.91600  0.89400  1.0000
  F   F26       1.0  0.38200  0.67600  0.90500  1.0000
  F   F27       1.0  0.18500  0.07480  0.91300  1.0000
  F   F28       1.0  0.96100  0.26800  0.94000  1.0000
  Pt  Pt1       1.0  0.96000  0.75900  0.23500  1.0000
  Pt  Pt2       1.0  0.54000  0.25900  0.26500  1.0000
  Pt  Pt3       1.0  0.46000  0.74100  0.73500  1.0000
  Pt  Pt4       1.0  0.04010  0.24100  0.76500  1.0000
  Sm  Sm1       1.0  0.25700  0.73000  0.07070  1.0000
  Sm  Sm2       1.0  0.24300  0.23000  0.42900  1.0000
  Sm  Sm3       1.0  0.75700  0.77000  0.57100  1.0000
  Sm  Sm4       1.0  0.74300  0.27000  0.92900  1.0000
