data_image0
_chemical_formula_structural       Ag16Ge4O16
_chemical_formula_sum              "Ag16 Ge4 O16"
_cell_length_a       6.42665
_cell_length_b       8.52326
_cell_length_c       10.0984
_cell_angle_alpha    106.851
_cell_angle_beta     92.7319
_cell_angle_gamma    95.6724

_space_group_name_H-M_alt    "P 1"
_space_group_IT_number       1

loop_
  _space_group_symop_operation_xyz
  'x, y, z'

loop_
  _atom_site_type_symbol
  _atom_site_label
  _atom_site_symmetry_multiplicity
  _atom_site_fract_x
  _atom_site_fract_y
  _atom_site_fract_z
  _atom_site_occupancy
  Ag  Ag1       1.0  0.77300  0.17600  0.07870  1.0000
  Ag  Ag2       1.0  0.94900  0.57900  0.13900  1.0000
  Ag  Ag3       1.0  0.43100  0.64800  0.15800  1.0000
  Ag  Ag4       1.0  0.02160  0.02260  0.24800  1.0000
  Ag  Ag5       1.0  0.52800  0.03600  0.25800  1.0000
  Ag  Ag6       1.0  0.59100  0.39700  0.32900  1.0000
  Ag  Ag7       1.0  0.09770  0.36800  0.37400  1.0000
  Ag  Ag8       1.0  0.67500  0.82300  0.48000  1.0000
  Ag  Ag9       1.0  0.32500  0.17700  0.52000  1.0000
  Ag  Ag10      1.0  0.90200  0.63200  0.62600  1.0000
  Ag  Ag11      1.0  0.40900  0.60300  0.67100  1.0000
  Ag  Ag12      1.0  0.47200  0.96400  0.74200  1.0000
  Ag  Ag13      1.0  0.97800  0.97700  0.75200  1.0000
  Ag  Ag14      1.0  0.56900  0.35200  0.84200  1.0000
  Ag  Ag15      1.0  0.05080  0.42100  0.86100  1.0000
  Ag  Ag16      1.0  0.22700  0.82400  0.92100  1.0000
  Ge  Ge1       1.0  0.27800  0.24900  0.05840  1.0000
  Ge  Ge2       1.0  0.19400  0.76900  0.43900  1.0000
  Ge  Ge3       1.0  0.80600  0.23100  0.56100  1.0000
  Ge  Ge4       1.0  0.72200  0.75100  0.94200  1.0000
  O   O1        1.0  0.28400  0.05940  0.10000  1.0000
  O   O2        1.0  0.52400  0.37900  0.10900  1.0000
  O   O3        1.0  0.77700  0.78400  0.12100  1.0000
  O   O4        1.0  0.08000  0.35500  0.15400  1.0000
  O   O5        1.0  0.24400  0.83000  0.28900  1.0000
  O   O6        1.0  0.94200  0.64900  0.41400  1.0000
  O   O7        1.0  0.79000  0.04900  0.41500  1.0000
  O   O8        1.0  0.38200  0.63600  0.46500  1.0000
  O   O9        1.0  0.61800  0.36400  0.53500  1.0000
  O   O10       1.0  0.21000  0.95100  0.58500  1.0000
  O   O11       1.0  0.05760  0.35100  0.58600  1.0000
  O   O12       1.0  0.75600  0.17000  0.71100  1.0000
  O   O13       1.0  0.92000  0.64500  0.84600  1.0000
  O   O14       1.0  0.22300  0.21600  0.87900  1.0000
  O   O15       1.0  0.47600  0.62100  0.89100  1.0000
  O   O16       1.0  0.71600  0.94100  0.90000  1.0000
