data_image0
_chemical_formula_structural       Au2Na10Se24
_chemical_formula_sum              "Au2 Na10 Se24"
_cell_length_a       7.1745
_cell_length_b       16.8614
_cell_length_c       8.33617
_cell_angle_alpha    90
_cell_angle_beta     106.594
_cell_angle_gamma    90

_space_group_name_H-M_alt    "P 1"
_space_group_IT_number       1

loop_
  _space_group_symop_operation_xyz
  'x, y, z'

loop_
  _atom_site_type_symbol
  _atom_site_label
  _atom_site_symmetry_multiplicity
  _atom_site_fract_x
  _atom_site_fract_y
  _atom_site_fract_z
  _atom_site_occupancy
  Au  Au1       1.0  0.78500  0.65000  0.15800  1.0000
  Au  Au2       1.0  0.21500  0.15000  0.84200  1.0000
  Na  Na1       1.0  0.22000  0.56100  0.01720  1.0000
  Na  Na2       1.0  0.12300  0.36300  0.10500  1.0000
  Na  Na3       1.0  0.33400  0.74000  0.28500  1.0000
  Na  Na4       1.0  0.22000  0.14400  0.34900  1.0000
  Na  Na5       1.0  0.70900  0.42600  0.43600  1.0000
  Na  Na6       1.0  0.29100  0.92600  0.56400  1.0000
  Na  Na7       1.0  0.78000  0.64400  0.65100  1.0000
  Na  Na8       1.0  0.66600  0.24000  0.71500  1.0000
  Na  Na9       1.0  0.87700  0.86300  0.89500  1.0000
  Na  Na10      1.0  0.78000  0.06120  0.98300  1.0000
  Se  Se1       1.0  0.90600  0.22000  0.06660  1.0000
  Se  Se2       1.0  0.61200  0.78200  0.08170  1.0000
  Se  Se3       1.0  0.31400  0.95400  0.09760  1.0000
  Se  Se4       1.0  0.43000  0.08840  0.11000  1.0000
  Se  Se5       1.0  0.63700  0.25000  0.17200  1.0000
  Se  Se6       1.0  0.04910  0.95400  0.21700  1.0000
  Se  Se7       1.0  0.95200  0.51700  0.24600  1.0000
  Se  Se8       1.0  0.47500  0.57100  0.36300  1.0000
  Se  Se9       1.0  0.39600  0.31200  0.42100  1.0000
  Se  Se10      1.0  0.99500  0.71300  0.42700  1.0000
  Se  Se11      1.0  0.84500  0.84100  0.43700  1.0000
  Se  Se12      1.0  0.21800  0.55000  0.48700  1.0000
  Se  Se13      1.0  0.78200  0.05010  0.51300  1.0000
  Se  Se14      1.0  0.15500  0.34100  0.56300  1.0000
  Se  Se15      1.0  0.00494  0.21300  0.57300  1.0000
  Se  Se16      1.0  0.60400  0.81200  0.57900  1.0000
  Se  Se17      1.0  0.52500  0.07120  0.63700  1.0000
  Se  Se18      1.0  0.04800  0.01660  0.75400  1.0000
  Se  Se19      1.0  0.95100  0.45400  0.78300  1.0000
  Se  Se20      1.0  0.36300  0.75000  0.82800  1.0000
  Se  Se21      1.0  0.57000  0.58800  0.89000  1.0000
  Se  Se22      1.0  0.68600  0.45400  0.90200  1.0000
  Se  Se23      1.0  0.38800  0.28200  0.91800  1.0000
  Se  Se24      1.0  0.09370  0.72000  0.93300  1.0000
