data_image0
_chemical_formula_structural       Ba4Lu8Ni4O20
_chemical_formula_sum              "Ba4 Lu8 Ni4 O20"
_cell_length_a       6.88636
_cell_length_b       12.0551
_cell_length_c       5.59852
_cell_angle_alpha    90
_cell_angle_beta     90
_cell_angle_gamma    90

_space_group_name_H-M_alt    "P 1"
_space_group_IT_number       1

loop_
  _space_group_symop_operation_xyz
  'x, y, z'

loop_
  _atom_site_type_symbol
  _atom_site_label
  _atom_site_symmetry_multiplicity
  _atom_site_fract_x
  _atom_site_fract_y
  _atom_site_fract_z
  _atom_site_occupancy
  Ba  Ba1       1.0  0.57800  0.40300  0.25000  1.0000
  Ba  Ba2       1.0  0.92200  0.90300  0.25000  1.0000
  Ba  Ba3       1.0  0.07800  0.09730  0.75000  1.0000
  Ba  Ba4       1.0  0.42200  0.59700  0.75000  1.0000
  Lu  Lu1       1.0  0.40000  0.07380  0.25000  1.0000
  Lu  Lu2       1.0  0.12300  0.29200  0.25000  1.0000
  Lu  Lu3       1.0  0.09980  0.57400  0.25000  1.0000
  Lu  Lu4       1.0  0.37700  0.79200  0.25000  1.0000
  Lu  Lu5       1.0  0.62300  0.20800  0.75000  1.0000
  Lu  Lu6       1.0  0.90000  0.42600  0.75000  1.0000
  Lu  Lu7       1.0  0.87700  0.70800  0.75000  1.0000
  Lu  Lu8       1.0  0.60000  0.92600  0.75000  1.0000
  Ni  Ni1       1.0  0.80500  0.15600  0.25000  1.0000
  Ni  Ni2       1.0  0.69500  0.65600  0.25000  1.0000
  Ni  Ni3       1.0  0.30500  0.34400  0.75000  1.0000
  Ni  Ni4       1.0  0.19500  0.84400  0.75000  1.0000
  O   O1        1.0  0.36500  0.22500  0.00048  1.0000
  O   O2        1.0  0.13500  0.72500  0.00048  1.0000
  O   O3        1.0  0.66700  0.06530  0.00237  1.0000
  O   O4        1.0  0.83300  0.56500  0.00237  1.0000
  O   O5        1.0  0.07870  0.10500  0.25000  1.0000
  O   O6        1.0  0.42100  0.60500  0.25000  1.0000
  O   O7        1.0  0.66700  0.06530  0.49800  1.0000
  O   O8        1.0  0.83300  0.56500  0.49800  1.0000
  O   O9        1.0  0.36500  0.22500  0.50000  1.0000
  O   O10       1.0  0.13500  0.72500  0.50000  1.0000
  O   O11       1.0  0.86500  0.27500  0.50000  1.0000
  O   O12       1.0  0.63500  0.77500  0.50000  1.0000
  O   O13       1.0  0.16700  0.43500  0.50200  1.0000
  O   O14       1.0  0.33300  0.93500  0.50200  1.0000
  O   O15       1.0  0.57900  0.39500  0.75000  1.0000
  O   O16       1.0  0.92100  0.89500  0.75000  1.0000
  O   O17       1.0  0.16700  0.43500  0.99800  1.0000
  O   O18       1.0  0.33300  0.93500  0.99800  1.0000
  O   O19       1.0  0.86500  0.27500  0.00000  1.0000
  O   O20       1.0  0.63500  0.77500  0.00000  1.0000
