data_image0
_chemical_formula_structural       Ge3PdSr
_chemical_formula_sum              "Ge3 Pd1 Sr1"
_cell_length_a       4.51378
_cell_length_b       4.51378
_cell_length_c       6.09
_cell_angle_alpha    111.752
_cell_angle_beta     111.752
_cell_angle_gamma    90

_space_group_name_H-M_alt    "P 1"
_space_group_IT_number       1

loop_
  _space_group_symop_operation_xyz
  'x, y, z'

loop_
  _atom_site_type_symbol
  _atom_site_label
  _atom_site_symmetry_multiplicity
  _atom_site_fract_x
  _atom_site_fract_y
  _atom_site_fract_z
  _atom_site_occupancy
  Ge  Ge1       1.0  0.75300  0.25300  0.50700  1.0000
  Ge  Ge2       1.0  0.25300  0.75300  0.50700  1.0000
  Ge  Ge3       1.0  0.39900  0.39900  0.79900  1.0000
  Pd  Pd1       1.0  0.64200  0.64200  0.28300  1.0000
  Sr  Sr1       1.0  0.00000  0.00000  0.00000  1.0000
