data_image0
_chemical_formula_structural       MnMoO6
_chemical_formula_sum              "Mn1 Mo1 O6"
_cell_length_a       4.93959
_cell_length_b       4.93959
_cell_length_c       4.66935
_cell_angle_alpha    100.655
_cell_angle_beta     100.655
_cell_angle_gamma    116.925

_space_group_name_H-M_alt    "P 1"
_space_group_IT_number       1

loop_
  _space_group_symop_operation_xyz
  'x, y, z'

loop_
  _atom_site_type_symbol
  _atom_site_label
  _atom_site_symmetry_multiplicity
  _atom_site_fract_x
  _atom_site_fract_y
  _atom_site_fract_z
  _atom_site_occupancy
  Mn  Mn1       1.0  0.83000  0.17000  0.00000  1.0000
  Mo  Mo1       1.0  0.19400  0.80600  0.00000  1.0000
  O   O1        1.0  0.92400  0.59000  0.22200  1.0000
  O   O2        1.0  0.21000  0.22200  0.23100  1.0000
  O   O3        1.0  0.59600  0.94500  0.24500  1.0000
  O   O4        1.0  0.05530  0.40400  0.75500  1.0000
  O   O5        1.0  0.77800  0.79000  0.76900  1.0000
  O   O6        1.0  0.41000  0.07580  0.77800  1.0000
