data_image0
_chemical_formula_structural       Cu4K4P8Se20
_chemical_formula_sum              "Cu4 K4 P8 Se20"
_cell_length_a       10.7779
_cell_length_b       7.85423
_cell_length_c       12.0409
_cell_angle_alpha    90
_cell_angle_beta     109.076
_cell_angle_gamma    90

_space_group_name_H-M_alt    "P 1"
_space_group_IT_number       1

loop_
  _space_group_symop_operation_xyz
  'x, y, z'

loop_
  _atom_site_type_symbol
  _atom_site_label
  _atom_site_symmetry_multiplicity
  _atom_site_fract_x
  _atom_site_fract_y
  _atom_site_fract_z
  _atom_site_occupancy
  Cu  Cu1       1.0  0.31500  0.83600  0.17100  1.0000
  Cu  Cu2       1.0  0.18500  0.33600  0.32900  1.0000
  Cu  Cu3       1.0  0.81500  0.66400  0.67100  1.0000
  Cu  Cu4       1.0  0.68500  0.16400  0.82900  1.0000
  K   K1        1.0  0.60000  0.37100  0.22100  1.0000
  K   K2        1.0  0.90000  0.87100  0.27900  1.0000
  K   K3        1.0  0.10000  0.12900  0.72100  1.0000
  K   K4        1.0  0.40000  0.62900  0.77900  1.0000
  P   P1        1.0  0.21500  0.43500  0.04280  1.0000
  P   P2        1.0  0.88400  0.34600  0.07880  1.0000
  P   P3        1.0  0.61600  0.84600  0.42100  1.0000
  P   P4        1.0  0.28500  0.93500  0.45700  1.0000
  P   P5        1.0  0.71500  0.06460  0.54300  1.0000
  P   P6        1.0  0.38400  0.15400  0.57900  1.0000
  P   P7        1.0  0.11600  0.65400  0.92100  1.0000
  P   P8        1.0  0.78500  0.56500  0.95700  1.0000
  Se  Se1       1.0  0.04450  0.24300  0.00741  1.0000
  Se  Se2       1.0  0.65600  0.68900  0.03620  1.0000
  Se  Se3       1.0  0.74800  0.13000  0.03780  1.0000
  Se  Se4       1.0  0.29700  0.53200  0.22600  1.0000
  Se  Se5       1.0  0.54400  0.93100  0.23900  1.0000
  Se  Se6       1.0  0.95600  0.43100  0.26100  1.0000
  Se  Se7       1.0  0.20300  0.03180  0.27400  1.0000
  Se  Se8       1.0  0.75200  0.63000  0.46200  1.0000
  Se  Se9       1.0  0.84400  0.18900  0.46400  1.0000
  Se  Se10      1.0  0.45500  0.74300  0.49300  1.0000
  Se  Se11      1.0  0.54500  0.25700  0.50700  1.0000
  Se  Se12      1.0  0.15600  0.81100  0.53600  1.0000
  Se  Se13      1.0  0.24800  0.37000  0.53800  1.0000
  Se  Se14      1.0  0.79700  0.96800  0.72600  1.0000
  Se  Se15      1.0  0.04370  0.56900  0.73900  1.0000
  Se  Se16      1.0  0.45600  0.06850  0.76100  1.0000
  Se  Se17      1.0  0.70300  0.46800  0.77400  1.0000
  Se  Se18      1.0  0.25200  0.87000  0.96200  1.0000
  Se  Se19      1.0  0.34400  0.31100  0.96400  1.0000
  Se  Se20      1.0  0.95500  0.75700  0.99300  1.0000
