data_image0
_chemical_formula_structural       MnO6Pd
_chemical_formula_sum              "Mn1 O6 Pd1"
_cell_length_a       5.05368
_cell_length_b       5.0537
_cell_length_c       4.62975
_cell_angle_alpha    103.847
_cell_angle_beta     103.848
_cell_angle_gamma    120.466

_space_group_name_H-M_alt    "P 1"
_space_group_IT_number       1

loop_
  _space_group_symop_operation_xyz
  'x, y, z'

loop_
  _atom_site_type_symbol
  _atom_site_label
  _atom_site_symmetry_multiplicity
  _atom_site_fract_x
  _atom_site_fract_y
  _atom_site_fract_z
  _atom_site_occupancy
  Mn  Mn1       1.0  0.16600  0.83400  0.00000  1.0000
  O   O1        1.0  0.96900  0.62300  0.25100  1.0000
  O   O2        1.0  0.59800  0.95800  0.25200  1.0000
  O   O3        1.0  0.25600  0.24300  0.26700  1.0000
  O   O4        1.0  0.75700  0.74400  0.73300  1.0000
  O   O5        1.0  0.04170  0.40200  0.74800  1.0000
  O   O6        1.0  0.37700  0.03150  0.74900  1.0000
  Pd  Pd1       1.0  0.83600  0.16400  0.00000  1.0000
