data_image0
_chemical_formula_structural       Cu12N12Sr12
_chemical_formula_sum              "Cu12 N12 Sr12"
_cell_length_a       9.02429
_cell_length_b       13.2148
_cell_length_c       5.38666
_cell_angle_alpha    90
_cell_angle_beta     90
_cell_angle_gamma    90

_space_group_name_H-M_alt    "P 1"
_space_group_IT_number       1

loop_
  _space_group_symop_operation_xyz
  'x, y, z'

loop_
  _atom_site_type_symbol
  _atom_site_label
  _atom_site_symmetry_multiplicity
  _atom_site_fract_x
  _atom_site_fract_y
  _atom_site_fract_z
  _atom_site_occupancy
  Cu  Cu1       1.0  0.00000  0.00000  0.00000  1.0000
  Cu  Cu2       1.0  0.00000  0.50000  0.00000  1.0000
  Cu  Cu3       1.0  0.32100  0.65600  0.01240  1.0000
  Cu  Cu4       1.0  0.32100  0.84400  0.01240  1.0000
  Cu  Cu5       1.0  0.82100  0.65600  0.48800  1.0000
  Cu  Cu6       1.0  0.82100  0.84400  0.48800  1.0000
  Cu  Cu7       1.0  0.50000  0.00000  0.50000  1.0000
  Cu  Cu8       1.0  0.50000  0.50000  0.50000  1.0000
  Cu  Cu9       1.0  0.17900  0.15600  0.51200  1.0000
  Cu  Cu10      1.0  0.17900  0.34400  0.51200  1.0000
  Cu  Cu11      1.0  0.67900  0.15600  0.98800  1.0000
  Cu  Cu12      1.0  0.67900  0.34400  0.98800  1.0000
  N   N1        1.0  0.76000  0.25000  0.21800  1.0000
  N   N2        1.0  0.91300  0.58100  0.24100  1.0000
  N   N3        1.0  0.91300  0.91900  0.24100  1.0000
  N   N4        1.0  0.41300  0.58100  0.25900  1.0000
  N   N5        1.0  0.41300  0.91900  0.25900  1.0000
  N   N6        1.0  0.26000  0.25000  0.28200  1.0000
  N   N7        1.0  0.74000  0.75000  0.71800  1.0000
  N   N8        1.0  0.58700  0.08070  0.74100  1.0000
  N   N9        1.0  0.58700  0.41900  0.74100  1.0000
  N   N10       1.0  0.08750  0.08070  0.75900  1.0000
  N   N11       1.0  0.08750  0.41900  0.75900  1.0000
  N   N12       1.0  0.24000  0.75000  0.78200  1.0000
  Sr  Sr1       1.0  0.02150  0.25000  0.00175  1.0000
  Sr  Sr2       1.0  0.34000  0.08640  0.01530  1.0000
  Sr  Sr3       1.0  0.34000  0.41400  0.01530  1.0000
  Sr  Sr4       1.0  0.84000  0.08640  0.48500  1.0000
  Sr  Sr5       1.0  0.84000  0.41400  0.48500  1.0000
  Sr  Sr6       1.0  0.52100  0.25000  0.49800  1.0000
  Sr  Sr7       1.0  0.47900  0.75000  0.50200  1.0000
  Sr  Sr8       1.0  0.16000  0.58600  0.51500  1.0000
  Sr  Sr9       1.0  0.16000  0.91400  0.51500  1.0000
  Sr  Sr10      1.0  0.66000  0.58600  0.98500  1.0000
  Sr  Sr11      1.0  0.66000  0.91400  0.98500  1.0000
  Sr  Sr12      1.0  0.97900  0.75000  0.99800  1.0000
