data_image0
_chemical_formula_structural       MnO6Te
_chemical_formula_sum              "Mn1 O6 Te1"
_cell_length_a       5.09224
_cell_length_b       5.09224
_cell_length_c       4.65863
_cell_angle_alpha    101.854
_cell_angle_beta     101.854
_cell_angle_gamma    120.058

_space_group_name_H-M_alt    "P 1"
_space_group_IT_number       1

loop_
  _space_group_symop_operation_xyz
  'x, y, z'

loop_
  _atom_site_type_symbol
  _atom_site_label
  _atom_site_symmetry_multiplicity
  _atom_site_fract_x
  _atom_site_fract_y
  _atom_site_fract_z
  _atom_site_occupancy
  Mn  Mn1       1.0  0.83600  0.16400  0.00000  1.0000
  O   O1        1.0  0.22800  0.23500  0.24200  1.0000
  O   O2        1.0  0.59700  0.95500  0.24200  1.0000
  O   O3        1.0  0.94700  0.58500  0.24400  1.0000
  O   O4        1.0  0.41500  0.05290  0.75600  1.0000
  O   O5        1.0  0.04480  0.40300  0.75800  1.0000
  O   O6        1.0  0.76500  0.77200  0.75800  1.0000
  Te  Te1       1.0  0.16500  0.83500  0.00000  1.0000
