data_image0
_chemical_formula_structural       LiMnO6Pb
_chemical_formula_sum              "Li1 Mn1 O6 Pb1"
_cell_length_a       5.25565
_cell_length_b       5.25565
_cell_length_c       5.05312
_cell_angle_alpha    99.2931
_cell_angle_beta     99.2931
_cell_angle_gamma    121.039

_space_group_name_H-M_alt    "P 1"
_space_group_IT_number       1

loop_
  _space_group_symop_operation_xyz
  'x, y, z'

loop_
  _atom_site_type_symbol
  _atom_site_label
  _atom_site_symmetry_multiplicity
  _atom_site_fract_x
  _atom_site_fract_y
  _atom_site_fract_z
  _atom_site_occupancy
  Li  Li1       1.0  0.65200  0.34800  0.50000  1.0000
  Mn  Mn1       1.0  0.16800  0.83200  0.00000  1.0000
  O   O1        1.0  0.94100  0.61500  0.22900  1.0000
  O   O2        1.0  0.53500  0.91400  0.23500  1.0000
  O   O3        1.0  0.24700  0.20400  0.23600  1.0000
  O   O4        1.0  0.79600  0.75300  0.76400  1.0000
  O   O5        1.0  0.08640  0.46500  0.76500  1.0000
  O   O6        1.0  0.38500  0.05870  0.77100  1.0000
  Pb  Pb1       1.0  0.83900  0.16100  0.00000  1.0000
