data_image0
_chemical_formula_structural       Br4H8Na4O20
_chemical_formula_sum              "Br4 H8 Na4 O20"
_cell_length_a       5.56164
_cell_length_b       8.06209
_cell_length_c       10.6515
_cell_angle_alpha    101.369
_cell_angle_beta     90
_cell_angle_gamma    110.177

_space_group_name_H-M_alt    "P 1"
_space_group_IT_number       1

loop_
  _space_group_symop_operation_xyz
  'x, y, z'

loop_
  _atom_site_type_symbol
  _atom_site_label
  _atom_site_symmetry_multiplicity
  _atom_site_fract_x
  _atom_site_fract_y
  _atom_site_fract_z
  _atom_site_occupancy
  Br  Br1       1.0  0.89900  0.24000  0.23800  1.0000
  Br  Br2       1.0  0.65900  0.76000  0.26200  1.0000
  Br  Br3       1.0  0.34100  0.24000  0.73800  1.0000
  Br  Br4       1.0  0.10100  0.76000  0.76200  1.0000
  H   H1        1.0  0.21300  0.23700  0.03580  1.0000
  H   H2        1.0  0.65100  0.06660  0.04760  1.0000
  H   H3        1.0  0.58400  0.93300  0.45200  1.0000
  H   H4        1.0  0.97600  0.76300  0.46400  1.0000
  H   H5        1.0  0.02430  0.23700  0.53600  1.0000
  H   H6        1.0  0.41600  0.06660  0.54800  1.0000
  H   H7        1.0  0.34900  0.93300  0.95200  1.0000
  H   H8        1.0  0.78700  0.76300  0.96400  1.0000
  Na  Na1       1.0  0.00000  0.50000  0.00000  1.0000
  Na  Na2       1.0  0.26200  0.00000  0.25000  1.0000
  Na  Na3       1.0  0.50000  0.50000  0.50000  1.0000
  Na  Na4       1.0  0.73800  0.00000  0.75000  1.0000
  O   O1        1.0  0.71700  0.66600  0.01510  1.0000
  O   O2        1.0  0.57800  0.12900  0.11800  1.0000
  O   O3        1.0  0.90600  0.73000  0.12500  1.0000
  O   O4        1.0  0.03210  0.11500  0.13400  1.0000
  O   O5        1.0  0.99200  0.44500  0.21100  1.0000
  O   O6        1.0  0.54600  0.55500  0.28900  1.0000
  O   O7        1.0  0.91800  0.88500  0.36600  1.0000
  O   O8        1.0  0.17600  0.27000  0.37500  1.0000
  O   O9        1.0  0.44900  0.87100  0.38200  1.0000
  O   O10       1.0  0.05140  0.33400  0.48500  1.0000
  O   O11       1.0  0.94900  0.66600  0.51500  1.0000
  O   O12       1.0  0.55100  0.12900  0.61800  1.0000
  O   O13       1.0  0.82400  0.73000  0.62500  1.0000
  O   O14       1.0  0.08250  0.11500  0.63400  1.0000
  O   O15       1.0  0.45400  0.44500  0.71100  1.0000
  O   O16       1.0  0.00814  0.55500  0.78900  1.0000
  O   O17       1.0  0.96800  0.88500  0.86600  1.0000
  O   O18       1.0  0.09430  0.27000  0.87500  1.0000
  O   O19       1.0  0.42200  0.87100  0.88200  1.0000
  O   O20       1.0  0.28300  0.33400  0.98500  1.0000
