data_image0
_chemical_formula_structural       Pr8Sc12Si16
_chemical_formula_sum              "Pr8 Sc12 Si16"
_cell_length_a       7.24676
_cell_length_b       14.2337
_cell_length_c       7.5412
_cell_angle_alpha    90
_cell_angle_beta     90
_cell_angle_gamma    90

_space_group_name_H-M_alt    "P 1"
_space_group_IT_number       1

loop_
  _space_group_symop_operation_xyz
  'x, y, z'

loop_
  _atom_site_type_symbol
  _atom_site_label
  _atom_site_symmetry_multiplicity
  _atom_site_fract_x
  _atom_site_fract_y
  _atom_site_fract_z
  _atom_site_occupancy
  Pr  Pr1       1.0  0.01160  0.59700  0.17200  1.0000
  Pr  Pr2       1.0  0.01160  0.90300  0.17200  1.0000
  Pr  Pr3       1.0  0.51200  0.59700  0.32800  1.0000
  Pr  Pr4       1.0  0.51200  0.90300  0.32800  1.0000
  Pr  Pr5       1.0  0.48800  0.09740  0.67200  1.0000
  Pr  Pr6       1.0  0.48800  0.40300  0.67200  1.0000
  Pr  Pr7       1.0  0.98800  0.09740  0.82800  1.0000
  Pr  Pr8       1.0  0.98800  0.40300  0.82800  1.0000
  Sc  Sc1       1.0  0.66100  0.25000  0.00000  1.0000
  Sc  Sc2       1.0  0.33900  0.75000  0.00000  1.0000
  Sc  Sc3       1.0  0.32900  0.12500  0.17600  1.0000
  Sc  Sc4       1.0  0.32900  0.37500  0.17600  1.0000
  Sc  Sc5       1.0  0.82900  0.12500  0.32400  1.0000
  Sc  Sc6       1.0  0.82900  0.37500  0.32400  1.0000
  Sc  Sc7       1.0  0.83900  0.75000  0.50000  1.0000
  Sc  Sc8       1.0  0.16100  0.25000  0.50000  1.0000
  Sc  Sc9       1.0  0.17100  0.62500  0.67600  1.0000
  Sc  Sc10      1.0  0.17100  0.87500  0.67600  1.0000
  Sc  Sc11      1.0  0.67100  0.62500  0.82400  1.0000
  Sc  Sc12      1.0  0.67100  0.87500  0.82400  1.0000
  Si  Si1       1.0  0.65100  0.03970  0.03720  1.0000
  Si  Si2       1.0  0.65100  0.46000  0.03720  1.0000
  Si  Si3       1.0  0.71200  0.75000  0.11800  1.0000
  Si  Si4       1.0  0.03410  0.25000  0.12500  1.0000
  Si  Si5       1.0  0.53400  0.25000  0.37500  1.0000
  Si  Si6       1.0  0.21200  0.75000  0.38200  1.0000
  Si  Si7       1.0  0.15100  0.03970  0.46300  1.0000
  Si  Si8       1.0  0.15100  0.46000  0.46300  1.0000
  Si  Si9       1.0  0.84900  0.54000  0.53700  1.0000
  Si  Si10      1.0  0.84900  0.96000  0.53700  1.0000
  Si  Si11      1.0  0.78800  0.25000  0.61800  1.0000
  Si  Si12      1.0  0.46600  0.75000  0.62500  1.0000
  Si  Si13      1.0  0.96600  0.75000  0.87500  1.0000
  Si  Si14      1.0  0.28800  0.25000  0.88200  1.0000
  Si  Si15      1.0  0.34900  0.54000  0.96300  1.0000
  Si  Si16      1.0  0.34900  0.96000  0.96300  1.0000
