data_image0
_chemical_formula_structural       F24O8Ru4
_chemical_formula_sum              "F24 O8 Ru4"
_cell_length_a       8.14229
_cell_length_b       8.14229
_cell_length_c       8.14229
_cell_angle_alpha    109.471
_cell_angle_beta     109.471
_cell_angle_gamma    109.471

_space_group_name_H-M_alt    "P 1"
_space_group_IT_number       1

loop_
  _space_group_symop_operation_xyz
  'x, y, z'

loop_
  _atom_site_type_symbol
  _atom_site_label
  _atom_site_symmetry_multiplicity
  _atom_site_fract_x
  _atom_site_fract_y
  _atom_site_fract_z
  _atom_site_occupancy
  F   F1        1.0  0.10200  0.26300  0.04530  1.0000
  F   F2        1.0  0.33900  0.60200  0.05680  1.0000
  F   F3        1.0  0.26300  0.04530  0.10200  1.0000
  F   F4        1.0  0.71700  0.76300  0.16100  1.0000
  F   F5        1.0  0.55700  0.45500  0.21700  1.0000
  F   F6        1.0  0.83900  0.28300  0.23700  1.0000
  F   F7        1.0  0.04530  0.10200  0.26300  1.0000
  F   F8        1.0  0.23700  0.83900  0.28300  1.0000
  F   F9        1.0  0.60200  0.05680  0.33900  1.0000
  F   F10       1.0  0.94300  0.66100  0.39800  1.0000
  F   F11       1.0  0.54500  0.78300  0.44300  1.0000
  F   F12       1.0  0.21700  0.55700  0.45500  1.0000
  F   F13       1.0  0.78300  0.44300  0.54500  1.0000
  F   F14       1.0  0.45500  0.21700  0.55700  1.0000
  F   F15       1.0  0.05680  0.33900  0.60200  1.0000
  F   F16       1.0  0.39800  0.94300  0.66100  1.0000
  F   F17       1.0  0.76300  0.16100  0.71700  1.0000
  F   F18       1.0  0.95500  0.89800  0.73700  1.0000
  F   F19       1.0  0.16100  0.71700  0.76300  1.0000
  F   F20       1.0  0.44300  0.54500  0.78300  1.0000
  F   F21       1.0  0.28300  0.23700  0.83900  1.0000
  F   F22       1.0  0.73700  0.95500  0.89800  1.0000
  F   F23       1.0  0.66100  0.39800  0.94300  1.0000
  F   F24       1.0  0.89800  0.73700  0.95500  1.0000
  O   O1        1.0  0.50000  0.07230  0.00000  1.0000
  O   O2        1.0  0.50000  0.92800  0.00000  1.0000
  O   O3        1.0  0.00000  0.50000  0.07230  1.0000
  O   O4        1.0  0.42800  0.42800  0.42800  1.0000
  O   O5        1.0  0.07230  0.00000  0.50000  1.0000
  O   O6        1.0  0.92800  0.00000  0.50000  1.0000
  O   O7        1.0  0.57200  0.57200  0.57200  1.0000
  O   O8        1.0  0.00000  0.50000  0.92800  1.0000
  Ru  Ru1       1.0  0.00000  0.00000  0.00000  1.0000
  Ru  Ru2       1.0  0.50000  0.50000  0.00000  1.0000
  Ru  Ru3       1.0  0.50000  0.00000  0.50000  1.0000
  Ru  Ru4       1.0  0.00000  0.50000  0.50000  1.0000
