data_image0
_chemical_formula_structural       K2O24P8Tb2
_chemical_formula_sum              "K2 O24 P8 Tb2"
_cell_length_a       7.17701
_cell_length_b       8.22776
_cell_length_c       7.84714
_cell_angle_alpha    90
_cell_angle_beta     91.9694
_cell_angle_gamma    90

_space_group_name_H-M_alt    "P 1"
_space_group_IT_number       1

loop_
  _space_group_symop_operation_xyz
  'x, y, z'

loop_
  _atom_site_type_symbol
  _atom_site_label
  _atom_site_symmetry_multiplicity
  _atom_site_fract_x
  _atom_site_fract_y
  _atom_site_fract_z
  _atom_site_occupancy
  K   K1        1.0  0.72700  0.05130  0.27800  1.0000
  K   K2        1.0  0.27300  0.55100  0.72200  1.0000
  O   O1        1.0  0.42000  0.15300  0.03600  1.0000
  O   O2        1.0  0.31800  0.48100  0.07120  1.0000
  O   O3        1.0  0.96900  0.30700  0.08230  1.0000
  O   O4        1.0  0.31700  0.78900  0.11400  1.0000
  O   O5        1.0  0.08210  0.00000  0.17500  1.0000
  O   O6        1.0  0.98900  0.70700  0.21000  1.0000
  O   O7        1.0  0.54000  0.63900  0.28300  1.0000
  O   O8        1.0  0.83000  0.48100  0.34400  1.0000
  O   O9        1.0  0.53000  0.33500  0.35100  1.0000
  O   O10       1.0  0.17700  0.50100  0.38800  1.0000
  O   O11       1.0  0.38700  0.04650  0.41600  1.0000
  O   O12       1.0  0.03240  0.20600  0.46700  1.0000
  O   O13       1.0  0.96800  0.70600  0.53300  1.0000
  O   O14       1.0  0.61300  0.54700  0.58400  1.0000
  O   O15       1.0  0.82300  0.00094  0.61200  1.0000
  O   O16       1.0  0.47000  0.83500  0.64900  1.0000
  O   O17       1.0  0.17000  0.98100  0.65600  1.0000
  O   O18       1.0  0.46000  0.13900  0.71700  1.0000
  O   O19       1.0  0.01120  0.20700  0.79000  1.0000
  O   O20       1.0  0.91800  0.50000  0.82500  1.0000
  O   O21       1.0  0.68300  0.28900  0.88600  1.0000
  O   O22       1.0  0.03080  0.80700  0.91800  1.0000
  O   O23       1.0  0.68200  0.98100  0.92900  1.0000
  O   O24       1.0  0.58000  0.65300  0.96400  1.0000
  P   P1        1.0  0.10100  0.83600  0.09670  1.0000
  P   P2        1.0  0.43900  0.62700  0.09720  1.0000
  P   P3        1.0  0.00266  0.60100  0.38100  1.0000
  P   P4        1.0  0.62000  0.49300  0.40300  1.0000
  P   P5        1.0  0.38000  0.99300  0.59700  1.0000
  P   P6        1.0  0.99700  0.10100  0.61900  1.0000
  P   P7        1.0  0.56100  0.12700  0.90300  1.0000
  P   P8        1.0  0.89900  0.33600  0.90300  1.0000
  Tb  Tb1       1.0  0.23600  0.25000  0.24400  1.0000
  Tb  Tb2       1.0  0.76400  0.75000  0.75600  1.0000
