data_image0
_chemical_formula_structural       Ni8Sc20Te8
_chemical_formula_sum              "Ni8 Sc20 Te8"
_cell_length_a       17.8949
_cell_length_b       3.95248
_cell_length_c       10.6425
_cell_angle_alpha    90
_cell_angle_beta     90
_cell_angle_gamma    90

_space_group_name_H-M_alt    "P 1"
_space_group_IT_number       1

loop_
  _space_group_symop_operation_xyz
  'x, y, z'

loop_
  _atom_site_type_symbol
  _atom_site_label
  _atom_site_symmetry_multiplicity
  _atom_site_fract_x
  _atom_site_fract_y
  _atom_site_fract_z
  _atom_site_occupancy
  Ni  Ni1       1.0  0.91600  0.25000  0.10400  1.0000
  Ni  Ni2       1.0  0.00576  0.75000  0.17400  1.0000
  Ni  Ni3       1.0  0.50600  0.75000  0.32600  1.0000
  Ni  Ni4       1.0  0.41600  0.25000  0.39600  1.0000
  Ni  Ni5       1.0  0.58400  0.75000  0.60400  1.0000
  Ni  Ni6       1.0  0.49400  0.25000  0.67400  1.0000
  Ni  Ni7       1.0  0.99400  0.25000  0.82600  1.0000
  Ni  Ni8       1.0  0.08420  0.75000  0.89600  1.0000
  Sc  Sc1       1.0  0.77300  0.25000  0.02120  1.0000
  Sc  Sc2       1.0  0.07370  0.25000  0.05950  1.0000
  Sc  Sc3       1.0  0.48100  0.25000  0.17300  1.0000
  Sc  Sc4       1.0  0.63300  0.75000  0.19600  1.0000
  Sc  Sc5       1.0  0.84800  0.75000  0.21800  1.0000
  Sc  Sc6       1.0  0.34800  0.75000  0.28200  1.0000
  Sc  Sc7       1.0  0.13300  0.75000  0.30400  1.0000
  Sc  Sc8       1.0  0.98100  0.25000  0.32700  1.0000
  Sc  Sc9       1.0  0.57400  0.25000  0.44000  1.0000
  Sc  Sc10      1.0  0.27300  0.25000  0.47900  1.0000
  Sc  Sc11      1.0  0.72700  0.75000  0.52100  1.0000
  Sc  Sc12      1.0  0.42600  0.75000  0.56000  1.0000
  Sc  Sc13      1.0  0.01910  0.75000  0.67300  1.0000
  Sc  Sc14      1.0  0.86700  0.25000  0.69600  1.0000
  Sc  Sc15      1.0  0.65200  0.25000  0.71800  1.0000
  Sc  Sc16      1.0  0.15200  0.25000  0.78200  1.0000
  Sc  Sc17      1.0  0.36700  0.25000  0.80400  1.0000
  Sc  Sc18      1.0  0.51900  0.75000  0.82700  1.0000
  Sc  Sc19      1.0  0.92600  0.75000  0.94000  1.0000
  Sc  Sc20      1.0  0.22700  0.75000  0.97900  1.0000
  Te  Te1       1.0  0.39300  0.75000  0.00996  1.0000
  Te  Te2       1.0  0.23300  0.25000  0.19000  1.0000
  Te  Te3       1.0  0.73300  0.25000  0.31000  1.0000
  Te  Te4       1.0  0.89300  0.75000  0.49000  1.0000
  Te  Te5       1.0  0.10700  0.25000  0.51000  1.0000
  Te  Te6       1.0  0.26700  0.75000  0.69000  1.0000
  Te  Te7       1.0  0.76700  0.75000  0.81000  1.0000
  Te  Te8       1.0  0.60700  0.25000  0.99000  1.0000
