data_image0
_chemical_formula_structural       Cu4Na12Se16Sn4
_chemical_formula_sum              "Cu4 Na12 Se16 Sn4"
_cell_length_a       6.89789
_cell_length_b       10.2547
_cell_length_c       13.0394
_cell_angle_alpha    90
_cell_angle_beta     90.5675
_cell_angle_gamma    90

_space_group_name_H-M_alt    "P 1"
_space_group_IT_number       1

loop_
  _space_group_symop_operation_xyz
  'x, y, z'

loop_
  _atom_site_type_symbol
  _atom_site_label
  _atom_site_symmetry_multiplicity
  _atom_site_fract_x
  _atom_site_fract_y
  _atom_site_fract_z
  _atom_site_occupancy
  Cu  Cu1       1.0  0.59400  0.60600  0.21400  1.0000
  Cu  Cu2       1.0  0.90600  0.10600  0.28600  1.0000
  Cu  Cu3       1.0  0.09350  0.89400  0.71400  1.0000
  Cu  Cu4       1.0  0.40600  0.39400  0.78600  1.0000
  Na  Na1       1.0  0.27300  0.60400  0.01730  1.0000
  Na  Na2       1.0  0.94500  0.86100  0.12400  1.0000
  Na  Na3       1.0  0.52000  0.11800  0.12600  1.0000
  Na  Na4       1.0  0.98000  0.61800  0.37400  1.0000
  Na  Na5       1.0  0.55500  0.36100  0.37600  1.0000
  Na  Na6       1.0  0.22700  0.10400  0.48300  1.0000
  Na  Na7       1.0  0.77300  0.89600  0.51700  1.0000
  Na  Na8       1.0  0.44500  0.63900  0.62400  1.0000
  Na  Na9       1.0  0.02000  0.38200  0.62600  1.0000
  Na  Na10      1.0  0.48000  0.88200  0.87400  1.0000
  Na  Na11      1.0  0.05490  0.13900  0.87600  1.0000
  Na  Na12      1.0  0.72700  0.39600  0.98300  1.0000
  Se  Se1       1.0  0.95500  0.15800  0.09900  1.0000
  Se  Se2       1.0  0.50000  0.81800  0.11600  1.0000
  Se  Se3       1.0  0.91200  0.57200  0.14100  1.0000
  Se  Se4       1.0  0.44600  0.39800  0.15900  1.0000
  Se  Se5       1.0  0.05430  0.89800  0.34100  1.0000
  Se  Se6       1.0  0.58800  0.07180  0.35900  1.0000
  Se  Se7       1.0  0.00000  0.31800  0.38400  1.0000
  Se  Se8       1.0  0.54500  0.65800  0.40100  1.0000
  Se  Se9       1.0  0.45500  0.34200  0.59900  1.0000
  Se  Se10      1.0  0.00000  0.68200  0.61600  1.0000
  Se  Se11      1.0  0.41200  0.92800  0.64100  1.0000
  Se  Se12      1.0  0.94600  0.10200  0.65900  1.0000
  Se  Se13      1.0  0.55400  0.60200  0.84100  1.0000
  Se  Se14      1.0  0.08770  0.42800  0.85900  1.0000
  Se  Se15      1.0  0.50000  0.18200  0.88400  1.0000
  Se  Se16      1.0  0.04510  0.84200  0.90100  1.0000
  Sn  Sn1       1.0  0.08480  0.36000  0.19500  1.0000
  Sn  Sn2       1.0  0.41500  0.86000  0.30500  1.0000
  Sn  Sn3       1.0  0.58500  0.14000  0.69500  1.0000
  Sn  Sn4       1.0  0.91500  0.64000  0.80500  1.0000
