data_image0
_chemical_formula_structural       MnO6Ta
_chemical_formula_sum              "Mn1 O6 Ta1"
_cell_length_a       5.24156
_cell_length_b       5.24156
_cell_length_c       4.60924
_cell_angle_alpha    103.877
_cell_angle_beta     103.877
_cell_angle_gamma    120.995

_space_group_name_H-M_alt    "P 1"
_space_group_IT_number       1

loop_
  _space_group_symop_operation_xyz
  'x, y, z'

loop_
  _atom_site_type_symbol
  _atom_site_label
  _atom_site_symmetry_multiplicity
  _atom_site_fract_x
  _atom_site_fract_y
  _atom_site_fract_z
  _atom_site_occupancy
  Mn  Mn1       1.0  0.83900  0.16100  0.00000  1.0000
  O   O1        1.0  0.97700  0.59200  0.25200  1.0000
  O   O2        1.0  0.63100  0.99900  0.25700  1.0000
  O   O3        1.0  0.23100  0.24200  0.26500  1.0000
  O   O4        1.0  0.75800  0.76900  0.73500  1.0000
  O   O5        1.0  0.00097  0.36900  0.74300  1.0000
  O   O6        1.0  0.40800  0.02350  0.74800  1.0000
  Ta  Ta1       1.0  0.15400  0.84600  0.00000  1.0000
