data_image0
_chemical_formula_structural       MnO6Ru
_chemical_formula_sum              "Mn1 O6 Ru1"
_cell_length_a       4.99828
_cell_length_b       4.99828
_cell_length_c       4.71633
_cell_angle_alpha    100.789
_cell_angle_beta     100.789
_cell_angle_gamma    119.649

_space_group_name_H-M_alt    "P 1"
_space_group_IT_number       1

loop_
  _space_group_symop_operation_xyz
  'x, y, z'

loop_
  _atom_site_type_symbol
  _atom_site_label
  _atom_site_symmetry_multiplicity
  _atom_site_fract_x
  _atom_site_fract_y
  _atom_site_fract_z
  _atom_site_occupancy
  Mn  Mn1       1.0  0.16700  0.83300  0.00000  1.0000
  O   O1        1.0  0.96200  0.58000  0.23700  1.0000
  O   O2        1.0  0.58500  0.96400  0.24000  1.0000
  O   O3        1.0  0.19600  0.20000  0.24700  1.0000
  O   O4        1.0  0.80000  0.80400  0.75300  1.0000
  O   O5        1.0  0.03590  0.41500  0.76000  1.0000
  O   O6        1.0  0.42000  0.03820  0.76300  1.0000
  Ru  Ru1       1.0  0.83400  0.16600  0.00000  1.0000
