data_image0
_chemical_formula_structural       MnO6Pt
_chemical_formula_sum              "Mn1 O6 Pt1"
_cell_length_a       5.08759
_cell_length_b       5.08759
_cell_length_c       4.66007
_cell_angle_alpha    101.974
_cell_angle_beta     101.974
_cell_angle_gamma    121.471

_space_group_name_H-M_alt    "P 1"
_space_group_IT_number       1

loop_
  _space_group_symop_operation_xyz
  'x, y, z'

loop_
  _atom_site_type_symbol
  _atom_site_label
  _atom_site_symmetry_multiplicity
  _atom_site_fract_x
  _atom_site_fract_y
  _atom_site_fract_z
  _atom_site_occupancy
  Mn  Mn1       1.0  0.16300  0.83700  0.00000  1.0000
  O   O1        1.0  0.58100  0.94700  0.23800  1.0000
  O   O2        1.0  0.96100  0.60200  0.24500  1.0000
  O   O3        1.0  0.22900  0.22200  0.25900  1.0000
  O   O4        1.0  0.77800  0.77100  0.74100  1.0000
  O   O5        1.0  0.39800  0.03940  0.75500  1.0000
  O   O6        1.0  0.05260  0.41900  0.76200  1.0000
  Pt  Pt1       1.0  0.83800  0.16200  0.00000  1.0000
