data_image0
_chemical_formula_structural       I20Pb4Tl12
_chemical_formula_sum              "I20 Pb4 Tl12"
_cell_length_a       16.3236
_cell_length_b       9.72862
_cell_length_c       9.01886
_cell_angle_alpha    90
_cell_angle_beta     90
_cell_angle_gamma    90

_space_group_name_H-M_alt    "P 1"
_space_group_IT_number       1

loop_
  _space_group_symop_operation_xyz
  'x, y, z'

loop_
  _atom_site_type_symbol
  _atom_site_label
  _atom_site_symmetry_multiplicity
  _atom_site_fract_x
  _atom_site_fract_y
  _atom_site_fract_z
  _atom_site_occupancy
  I   I1        1.0  0.52700  0.96500  0.01920  1.0000
  I   I2        1.0  0.89600  0.09700  0.02230  1.0000
  I   I3        1.0  0.14100  0.19100  0.15400  1.0000
  I   I4        1.0  0.61500  0.60500  0.16600  1.0000
  I   I5        1.0  0.27500  0.74700  0.16700  1.0000
  I   I6        1.0  0.72500  0.24700  0.33300  1.0000
  I   I7        1.0  0.38500  0.10500  0.33400  1.0000
  I   I8        1.0  0.85900  0.69100  0.34600  1.0000
  I   I9        1.0  0.10400  0.59700  0.47800  1.0000
  I   I10       1.0  0.47300  0.46500  0.48100  1.0000
  I   I11       1.0  0.97300  0.03520  0.51900  1.0000
  I   I12       1.0  0.60400  0.90300  0.52200  1.0000
  I   I13       1.0  0.35900  0.80900  0.65400  1.0000
  I   I14       1.0  0.88500  0.39500  0.66600  1.0000
  I   I15       1.0  0.22500  0.25300  0.66700  1.0000
  I   I16       1.0  0.77500  0.75300  0.83300  1.0000
  I   I17       1.0  0.11500  0.89500  0.83400  1.0000
  I   I18       1.0  0.64100  0.30900  0.84600  1.0000
  I   I19       1.0  0.39600  0.40300  0.97800  1.0000
  I   I20       1.0  0.02650  0.53500  0.98100  1.0000
  Pb  Pb1       1.0  0.54400  0.29500  0.17400  1.0000
  Pb  Pb2       1.0  0.45600  0.79500  0.32600  1.0000
  Pb  Pb3       1.0  0.95600  0.70500  0.67400  1.0000
  Pb  Pb4       1.0  0.04400  0.20500  0.82600  1.0000
  Tl  Tl1       1.0  0.80400  0.45300  0.02880  1.0000
  Tl  Tl2       1.0  0.72500  0.91900  0.17200  1.0000
  Tl  Tl3       1.0  0.03460  0.84300  0.18900  1.0000
  Tl  Tl4       1.0  0.96500  0.34300  0.31100  1.0000
  Tl  Tl5       1.0  0.27500  0.41900  0.32800  1.0000
  Tl  Tl6       1.0  0.19600  0.95300  0.47100  1.0000
  Tl  Tl7       1.0  0.69600  0.54700  0.52900  1.0000
  Tl  Tl8       1.0  0.77500  0.08090  0.67200  1.0000
  Tl  Tl9       1.0  0.46500  0.15700  0.68900  1.0000
  Tl  Tl10      1.0  0.53500  0.65700  0.81100  1.0000
  Tl  Tl11      1.0  0.22500  0.58100  0.82800  1.0000
  Tl  Tl12      1.0  0.30400  0.04700  0.97100  1.0000
