data_image0
_chemical_formula_structural       MnO6Rh
_chemical_formula_sum              "Mn1 O6 Rh1"
_cell_length_a       5.06564
_cell_length_b       5.06564
_cell_length_c       4.63736
_cell_angle_alpha    101.685
_cell_angle_beta     101.685
_cell_angle_gamma    122.062

_space_group_name_H-M_alt    "P 1"
_space_group_IT_number       1

loop_
  _space_group_symop_operation_xyz
  'x, y, z'

loop_
  _atom_site_type_symbol
  _atom_site_label
  _atom_site_symmetry_multiplicity
  _atom_site_fract_x
  _atom_site_fract_y
  _atom_site_fract_z
  _atom_site_occupancy
  Mn  Mn1       1.0  0.16200  0.83800  0.00000  1.0000
  O   O1        1.0  0.58700  0.96000  0.24000  1.0000
  O   O2        1.0  0.96400  0.59900  0.24600  1.0000
  O   O3        1.0  0.22600  0.22000  0.26100  1.0000
  O   O4        1.0  0.78000  0.77400  0.73900  1.0000
  O   O5        1.0  0.40100  0.03640  0.75400  1.0000
  O   O6        1.0  0.03960  0.41300  0.76000  1.0000
  Rh  Rh1       1.0  0.84200  0.15800  0.00000  1.0000
