data_image0
_chemical_formula_structural       Ba4Co4O20Y8
_chemical_formula_sum              "Ba4 Co4 O20 Y8"
_cell_length_a       12.2857
_cell_length_b       5.72028
_cell_length_c       7.06973
_cell_angle_alpha    90
_cell_angle_beta     90
_cell_angle_gamma    90

_space_group_name_H-M_alt    "P 1"
_space_group_IT_number       1

loop_
  _space_group_symop_operation_xyz
  'x, y, z'

loop_
  _atom_site_type_symbol
  _atom_site_label
  _atom_site_symmetry_multiplicity
  _atom_site_fract_x
  _atom_site_fract_y
  _atom_site_fract_z
  _atom_site_occupancy
  Ba  Ba1       1.0  0.09930  0.75000  0.07870  1.0000
  Ba  Ba2       1.0  0.59900  0.75000  0.42100  1.0000
  Ba  Ba3       1.0  0.40100  0.25000  0.57900  1.0000
  Ba  Ba4       1.0  0.90100  0.25000  0.92100  1.0000
  Co  Co1       1.0  0.84700  0.75000  0.19300  1.0000
  Co  Co2       1.0  0.34700  0.75000  0.30700  1.0000
  Co  Co3       1.0  0.65300  0.25000  0.69300  1.0000
  Co  Co4       1.0  0.15300  0.25000  0.80700  1.0000
  O   O1        1.0  0.10200  0.25000  0.07480  1.0000
  O   O2        1.0  0.72500  0.50200  0.14000  1.0000
  O   O3        1.0  0.72500  0.99800  0.14000  1.0000
  O   O4        1.0  0.43500  0.50500  0.16900  1.0000
  O   O5        1.0  0.43500  0.99500  0.16900  1.0000
  O   O6        1.0  0.93500  0.50500  0.33100  1.0000
  O   O7        1.0  0.93500  0.99500  0.33100  1.0000
  O   O8        1.0  0.22500  0.50200  0.36000  1.0000
  O   O9        1.0  0.22500  0.99800  0.36000  1.0000
  O   O10       1.0  0.60200  0.25000  0.42500  1.0000
  O   O11       1.0  0.39800  0.75000  0.57500  1.0000
  O   O12       1.0  0.77500  0.00156  0.64000  1.0000
  O   O13       1.0  0.77500  0.49800  0.64000  1.0000
  O   O14       1.0  0.06470  0.00454  0.66900  1.0000
  O   O15       1.0  0.06470  0.49500  0.66900  1.0000
  O   O16       1.0  0.56500  0.00454  0.83100  1.0000
  O   O17       1.0  0.56500  0.49500  0.83100  1.0000
  O   O18       1.0  0.27500  0.00156  0.86000  1.0000
  O   O19       1.0  0.27500  0.49800  0.86000  1.0000
  O   O20       1.0  0.89800  0.75000  0.92500  1.0000
  Y   Y1        1.0  0.57500  0.25000  0.09900  1.0000
  Y   Y2        1.0  0.29200  0.25000  0.12000  1.0000
  Y   Y3        1.0  0.79200  0.25000  0.38000  1.0000
  Y   Y4        1.0  0.07460  0.25000  0.40100  1.0000
  Y   Y5        1.0  0.92500  0.75000  0.59900  1.0000
  Y   Y6        1.0  0.20800  0.75000  0.62000  1.0000
  Y   Y7        1.0  0.70800  0.75000  0.88000  1.0000
  Y   Y8        1.0  0.42500  0.75000  0.90100  1.0000
