data_image0
_chemical_formula_structural       Li2O24P6Sn4
_chemical_formula_sum              "Li2 O24 P6 Sn4"
_cell_length_a       8.65926
_cell_length_b       8.65926
_cell_length_c       8.66525
_cell_angle_alpha    119.977
_cell_angle_beta     119.977
_cell_angle_gamma    60

_space_group_name_H-M_alt    "P 1"
_space_group_IT_number       1

loop_
  _space_group_symop_operation_xyz
  'x, y, z'

loop_
  _atom_site_type_symbol
  _atom_site_label
  _atom_site_symmetry_multiplicity
  _atom_site_fract_x
  _atom_site_fract_y
  _atom_site_fract_z
  _atom_site_occupancy
  Li  Li1       1.0  0.00000  0.00000  0.00000  1.0000
  Li  Li2       1.0  0.50000  0.50000  0.50000  1.0000
  O   O1        1.0  0.89100  0.49200  0.06960  1.0000
  O   O2        1.0  0.49200  0.68700  0.06960  1.0000
  O   O3        1.0  0.68700  0.89100  0.06960  1.0000
  O   O4        1.0  0.91000  0.05960  0.23000  1.0000
  O   O5        1.0  0.05960  0.26000  0.23000  1.0000
  O   O6        1.0  0.26000  0.91000  0.23000  1.0000
  O   O7        1.0  0.59000  0.24000  0.27000  1.0000
  O   O8        1.0  0.24000  0.44000  0.27000  1.0000
  O   O9        1.0  0.44000  0.59000  0.27000  1.0000
  O   O10       1.0  0.81300  0.00822  0.43000  1.0000
  O   O11       1.0  0.00822  0.60900  0.43000  1.0000
  O   O12       1.0  0.60900  0.81300  0.43000  1.0000
  O   O13       1.0  0.39100  0.18700  0.57000  1.0000
  O   O14       1.0  0.99200  0.39100  0.57000  1.0000
  O   O15       1.0  0.18700  0.99200  0.57000  1.0000
  O   O16       1.0  0.56000  0.41000  0.73000  1.0000
  O   O17       1.0  0.76000  0.56000  0.73000  1.0000
  O   O18       1.0  0.41000  0.76000  0.73000  1.0000
  O   O19       1.0  0.74000  0.08970  0.77000  1.0000
  O   O20       1.0  0.94000  0.74000  0.77000  1.0000
  O   O21       1.0  0.08970  0.94000  0.77000  1.0000
  O   O22       1.0  0.31300  0.10900  0.93000  1.0000
  O   O23       1.0  0.50800  0.31300  0.93000  1.0000
  O   O24       1.0  0.10900  0.50800  0.93000  1.0000
  P   P1        1.0  0.75000  0.04630  0.25000  1.0000
  P   P2        1.0  0.04630  0.45400  0.25000  1.0000
  P   P3        1.0  0.45400  0.75000  0.25000  1.0000
  P   P4        1.0  0.54600  0.25000  0.75000  1.0000
  P   P5        1.0  0.95400  0.54600  0.75000  1.0000
  P   P6        1.0  0.25000  0.95400  0.75000  1.0000
  Sn  Sn1       1.0  0.35800  0.35800  0.07510  1.0000
  Sn  Sn2       1.0  0.14200  0.14200  0.42500  1.0000
  Sn  Sn3       1.0  0.85800  0.85800  0.57500  1.0000
  Sn  Sn4       1.0  0.64200  0.64200  0.92500  1.0000
