data_image0
_chemical_formula_structural       Gd20Ge16
_chemical_formula_sum              "Gd20 Ge16"
_cell_length_a       7.72646
_cell_length_b       14.8444
_cell_length_c       7.80976
_cell_angle_alpha    90
_cell_angle_beta     90
_cell_angle_gamma    90

_space_group_name_H-M_alt    "P 1"
_space_group_IT_number       1

loop_
  _space_group_symop_operation_xyz
  'x, y, z'

loop_
  _atom_site_type_symbol
  _atom_site_label
  _atom_site_symmetry_multiplicity
  _atom_site_fract_x
  _atom_site_fract_y
  _atom_site_fract_z
  _atom_site_occupancy
  Gd  Gd1       1.0  0.71200  0.75000  0.00109  1.0000
  Gd  Gd2       1.0  0.37700  0.61700  0.16100  1.0000
  Gd  Gd3       1.0  0.37700  0.88300  0.16100  1.0000
  Gd  Gd4       1.0  0.97600  0.10100  0.17800  1.0000
  Gd  Gd5       1.0  0.97600  0.39900  0.17800  1.0000
  Gd  Gd6       1.0  0.47600  0.10100  0.32200  1.0000
  Gd  Gd7       1.0  0.47600  0.39900  0.32200  1.0000
  Gd  Gd8       1.0  0.87700  0.61700  0.33900  1.0000
  Gd  Gd9       1.0  0.87700  0.88300  0.33900  1.0000
  Gd  Gd10      1.0  0.21200  0.75000  0.49900  1.0000
  Gd  Gd11      1.0  0.78800  0.25000  0.50100  1.0000
  Gd  Gd12      1.0  0.12300  0.11700  0.66100  1.0000
  Gd  Gd13      1.0  0.12300  0.38300  0.66100  1.0000
  Gd  Gd14      1.0  0.52400  0.60100  0.67800  1.0000
  Gd  Gd15      1.0  0.52400  0.89900  0.67800  1.0000
  Gd  Gd16      1.0  0.02450  0.60100  0.82200  1.0000
  Gd  Gd17      1.0  0.02450  0.89900  0.82200  1.0000
  Gd  Gd18      1.0  0.62300  0.11700  0.83900  1.0000
  Gd  Gd19      1.0  0.62300  0.38300  0.83900  1.0000
  Gd  Gd20      1.0  0.28800  0.25000  0.99900  1.0000
  Ge  Ge1       1.0  0.71800  0.54400  0.03270  1.0000
  Ge  Ge2       1.0  0.71800  0.95600  0.03270  1.0000
  Ge  Ge3       1.0  0.08180  0.75000  0.11500  1.0000
  Ge  Ge4       1.0  0.67100  0.25000  0.13600  1.0000
  Ge  Ge5       1.0  0.17100  0.25000  0.36400  1.0000
  Ge  Ge6       1.0  0.58200  0.75000  0.38500  1.0000
  Ge  Ge7       1.0  0.21800  0.54400  0.46700  1.0000
  Ge  Ge8       1.0  0.21800  0.95600  0.46700  1.0000
  Ge  Ge9       1.0  0.78200  0.04410  0.53300  1.0000
  Ge  Ge10      1.0  0.78200  0.45600  0.53300  1.0000
  Ge  Ge11      1.0  0.41800  0.25000  0.61500  1.0000
  Ge  Ge12      1.0  0.82900  0.75000  0.63600  1.0000
  Ge  Ge13      1.0  0.32900  0.75000  0.86400  1.0000
  Ge  Ge14      1.0  0.91800  0.25000  0.88500  1.0000
  Ge  Ge15      1.0  0.28200  0.04410  0.96700  1.0000
  Ge  Ge16      1.0  0.28200  0.45600  0.96700  1.0000
