data_image0
_chemical_formula_structural       CrMnO6
_chemical_formula_sum              "Cr1 Mn1 O6"
_cell_length_a       4.90426
_cell_length_b       4.90426
_cell_length_c       4.62754
_cell_angle_alpha    101.627
_cell_angle_beta     101.627
_cell_angle_gamma    120.225

_space_group_name_H-M_alt    "P 1"
_space_group_IT_number       1

loop_
  _space_group_symop_operation_xyz
  'x, y, z'

loop_
  _atom_site_type_symbol
  _atom_site_label
  _atom_site_symmetry_multiplicity
  _atom_site_fract_x
  _atom_site_fract_y
  _atom_site_fract_z
  _atom_site_occupancy
  Cr  Cr1       1.0  0.16200  0.83800  0.00000  1.0000
  Mn  Mn1       1.0  0.83400  0.16600  0.00000  1.0000
  O   O1        1.0  0.58500  0.95800  0.23800  1.0000
  O   O2        1.0  0.96500  0.59500  0.24100  1.0000
  O   O3        1.0  0.22200  0.21500  0.24700  1.0000
  O   O4        1.0  0.78500  0.77800  0.75300  1.0000
  O   O5        1.0  0.40500  0.03500  0.75900  1.0000
  O   O6        1.0  0.04200  0.41500  0.76200  1.0000
