data_image0
_chemical_formula_structural       FeMnO6
_chemical_formula_sum              "Fe1 Mn1 O6"
_cell_length_a       4.8289
_cell_length_b       4.82891
_cell_length_c       4.55485
_cell_angle_alpha    100.452
_cell_angle_beta     100.452
_cell_angle_gamma    119.803

_space_group_name_H-M_alt    "P 1"
_space_group_IT_number       1

loop_
  _space_group_symop_operation_xyz
  'x, y, z'

loop_
  _atom_site_type_symbol
  _atom_site_label
  _atom_site_symmetry_multiplicity
  _atom_site_fract_x
  _atom_site_fract_y
  _atom_site_fract_z
  _atom_site_occupancy
  Fe  Fe1       1.0  0.83200  0.16800  0.00000  1.0000
  Mn  Mn1       1.0  0.16600  0.83400  0.00000  1.0000
  O   O1        1.0  0.22900  0.24000  0.22600  1.0000
  O   O2        1.0  0.58800  0.92900  0.22800  1.0000
  O   O3        1.0  0.92100  0.57100  0.23200  1.0000
  O   O4        1.0  0.42900  0.07870  0.76800  1.0000
  O   O5        1.0  0.07120  0.41200  0.77200  1.0000
  O   O6        1.0  0.76000  0.77100  0.77400  1.0000
