data_image0
_chemical_formula_structural       MnO6V
_chemical_formula_sum              "Mn1 O6 V1"
_cell_length_a       4.85595
_cell_length_b       4.85595
_cell_length_c       4.6136
_cell_angle_alpha    100.957
_cell_angle_beta     100.957
_cell_angle_gamma    119.058

_space_group_name_H-M_alt    "P 1"
_space_group_IT_number       1

loop_
  _space_group_symop_operation_xyz
  'x, y, z'

loop_
  _atom_site_type_symbol
  _atom_site_label
  _atom_site_symmetry_multiplicity
  _atom_site_fract_x
  _atom_site_fract_y
  _atom_site_fract_z
  _atom_site_occupancy
  Mn  Mn1       1.0  0.83100  0.16900  0.00000  1.0000
  O   O1        1.0  0.23100  0.23000  0.22800  1.0000
  O   O2        1.0  0.93100  0.59100  0.22900  1.0000
  O   O3        1.0  0.58800  0.94100  0.24300  1.0000
  O   O4        1.0  0.05880  0.41200  0.75700  1.0000
  O   O5        1.0  0.40900  0.06850  0.77100  1.0000
  O   O6        1.0  0.77000  0.76900  0.77200  1.0000
  V   V1        1.0  0.17900  0.82100  0.00000  1.0000
