data_image0
_chemical_formula_structural       Hg12Rb8Te16
_chemical_formula_sum              "Hg12 Rb8 Te16"
_cell_length_a       12.3484
_cell_length_b       7.35143
_cell_length_c       14.5969
_cell_angle_alpha    90
_cell_angle_beta     90
_cell_angle_gamma    90

_space_group_name_H-M_alt    "P 1"
_space_group_IT_number       1

loop_
  _space_group_symop_operation_xyz
  'x, y, z'

loop_
  _atom_site_type_symbol
  _atom_site_label
  _atom_site_symmetry_multiplicity
  _atom_site_fract_x
  _atom_site_fract_y
  _atom_site_fract_z
  _atom_site_occupancy
  Hg  Hg1       1.0  0.34300  0.16100  0.24500  1.0000
  Hg  Hg2       1.0  0.15700  0.66100  0.24500  1.0000
  Hg  Hg3       1.0  0.00000  0.10100  0.25000  1.0000
  Hg  Hg4       1.0  0.50000  0.60100  0.25000  1.0000
  Hg  Hg5       1.0  0.65700  0.16100  0.25500  1.0000
  Hg  Hg6       1.0  0.84300  0.66100  0.25500  1.0000
  Hg  Hg7       1.0  0.15700  0.33900  0.74500  1.0000
  Hg  Hg8       1.0  0.34300  0.83900  0.74500  1.0000
  Hg  Hg9       1.0  0.50000  0.39900  0.75000  1.0000
  Hg  Hg10      1.0  0.00000  0.89900  0.75000  1.0000
  Hg  Hg11      1.0  0.84300  0.33900  0.75500  1.0000
  Hg  Hg12      1.0  0.65700  0.83900  0.75500  1.0000
  Rb  Rb1       1.0  0.86400  0.33800  0.04260  1.0000
  Rb  Rb2       1.0  0.63600  0.83800  0.04260  1.0000
  Rb  Rb3       1.0  0.13600  0.33800  0.45700  1.0000
  Rb  Rb4       1.0  0.36400  0.83800  0.45700  1.0000
  Rb  Rb5       1.0  0.63600  0.16200  0.54300  1.0000
  Rb  Rb6       1.0  0.86400  0.66200  0.54300  1.0000
  Rb  Rb7       1.0  0.36400  0.16200  0.95700  1.0000
  Rb  Rb8       1.0  0.13600  0.66200  0.95700  1.0000
  Te  Te1       1.0  0.57600  0.35500  0.10800  1.0000
  Te  Te2       1.0  0.92400  0.85500  0.10800  1.0000
  Te  Te3       1.0  0.15400  0.33100  0.15500  1.0000
  Te  Te4       1.0  0.34600  0.83100  0.15500  1.0000
  Te  Te5       1.0  0.84600  0.33100  0.34500  1.0000
  Te  Te6       1.0  0.65400  0.83100  0.34500  1.0000
  Te  Te7       1.0  0.42400  0.35500  0.39200  1.0000
  Te  Te8       1.0  0.07610  0.85500  0.39200  1.0000
  Te  Te9       1.0  0.92400  0.14500  0.60800  1.0000
  Te  Te10      1.0  0.57600  0.64500  0.60800  1.0000
  Te  Te11      1.0  0.34600  0.16900  0.65500  1.0000
  Te  Te12      1.0  0.15400  0.66900  0.65500  1.0000
  Te  Te13      1.0  0.65400  0.16900  0.84500  1.0000
  Te  Te14      1.0  0.84600  0.66900  0.84500  1.0000
  Te  Te15      1.0  0.07610  0.14500  0.89200  1.0000
  Te  Te16      1.0  0.42400  0.64500  0.89200  1.0000
