data_image0
_chemical_formula_structural       B12O20Tl4
_chemical_formula_sum              "B12 O20 Tl4"
_cell_length_a       5.10104
_cell_length_b       8.19391
_cell_length_c       10.1566
_cell_angle_alpha    90
_cell_angle_beta     90
_cell_angle_gamma    90

_space_group_name_H-M_alt    "P 1"
_space_group_IT_number       1

loop_
  _space_group_symop_operation_xyz
  'x, y, z'

loop_
  _atom_site_type_symbol
  _atom_site_label
  _atom_site_symmetry_multiplicity
  _atom_site_fract_x
  _atom_site_fract_y
  _atom_site_fract_z
  _atom_site_occupancy
  B   B1        1.0  0.19000  0.88700  0.04020  1.0000
  B   B2        1.0  0.38700  0.64800  0.14800  1.0000
  B   B3        1.0  0.54900  0.93200  0.18900  1.0000
  B   B4        1.0  0.45100  0.43200  0.31100  1.0000
  B   B5        1.0  0.61300  0.14800  0.35200  1.0000
  B   B6        1.0  0.81000  0.38700  0.46000  1.0000
  B   B7        1.0  0.31000  0.11300  0.54000  1.0000
  B   B8        1.0  0.11300  0.35200  0.64800  1.0000
  B   B9        1.0  0.95100  0.06810  0.68900  1.0000
  B   B10       1.0  0.04890  0.56800  0.81100  1.0000
  B   B11       1.0  0.88700  0.85200  0.85200  1.0000
  B   B12       1.0  0.69000  0.61300  0.96000  1.0000
  O   O1        1.0  0.54200  0.54600  0.05680  1.0000
  O   O2        1.0  0.16900  0.72900  0.08180  1.0000
  O   O3        1.0  0.36200  0.99500  0.10400  1.0000
  O   O4        1.0  0.56200  0.76900  0.21300  1.0000
  O   O5        1.0  0.27800  0.53600  0.24800  1.0000
  O   O6        1.0  0.72200  0.03550  0.25200  1.0000
  O   O7        1.0  0.43800  0.26900  0.28700  1.0000
  O   O8        1.0  0.63800  0.49500  0.39600  1.0000
  O   O9        1.0  0.83100  0.22900  0.41800  1.0000
  O   O10       1.0  0.45800  0.04640  0.44300  1.0000
  O   O11       1.0  0.95800  0.45400  0.55700  1.0000
  O   O12       1.0  0.33100  0.27100  0.58200  1.0000
  O   O13       1.0  0.13800  0.00455  0.60400  1.0000
  O   O14       1.0  0.93800  0.23100  0.71300  1.0000
  O   O15       1.0  0.22200  0.46400  0.74800  1.0000
  O   O16       1.0  0.77800  0.96400  0.75200  1.0000
  O   O17       1.0  0.06230  0.73100  0.78700  1.0000
  O   O18       1.0  0.86200  0.50500  0.89600  1.0000
  O   O19       1.0  0.66900  0.77100  0.91800  1.0000
  O   O20       1.0  0.04170  0.95400  0.94300  1.0000
  Tl  Tl1       1.0  0.01890  0.27700  0.12200  1.0000
  Tl  Tl2       1.0  0.98100  0.77700  0.37800  1.0000
  Tl  Tl3       1.0  0.48100  0.72300  0.62200  1.0000
  Tl  Tl4       1.0  0.51900  0.22300  0.87800  1.0000
