data_image0
_chemical_formula_structural       K4Mo4O24P4
_chemical_formula_sum              "K4 Mo4 O24 P4"
_cell_length_a       8.17914
_cell_length_b       8.17914
_cell_length_c       9.51052
_cell_angle_alpha    113.137
_cell_angle_beta     113.137
_cell_angle_gamma    94.9454

_space_group_name_H-M_alt    "P 1"
_space_group_IT_number       1

loop_
  _space_group_symop_operation_xyz
  'x, y, z'

loop_
  _atom_site_type_symbol
  _atom_site_label
  _atom_site_symmetry_multiplicity
  _atom_site_fract_x
  _atom_site_fract_y
  _atom_site_fract_z
  _atom_site_occupancy
  K   K1        1.0  0.33600  0.08570  0.25000  1.0000
  K   K2        1.0  0.91400  0.66400  0.25000  1.0000
  K   K3        1.0  0.08570  0.33600  0.75000  1.0000
  K   K4        1.0  0.66400  0.91400  0.75000  1.0000
  Mo  Mo1       1.0  0.85100  0.14900  0.25000  1.0000
  Mo  Mo2       1.0  0.39900  0.60100  0.25000  1.0000
  Mo  Mo3       1.0  0.60100  0.39900  0.75000  1.0000
  Mo  Mo4       1.0  0.14900  0.85100  0.75000  1.0000
  O   O1        1.0  0.69800  0.27200  0.08730  1.0000
  O   O2        1.0  0.39000  0.31500  0.08730  1.0000
  O   O3        1.0  0.90800  0.02230  0.09130  1.0000
  O   O4        1.0  0.18300  0.56900  0.09130  1.0000
  O   O5        1.0  0.54100  0.67200  0.14400  1.0000
  O   O6        1.0  0.60300  0.97200  0.14400  1.0000
  O   O7        1.0  0.02830  0.39700  0.35600  1.0000
  O   O8        1.0  0.32800  0.45900  0.35600  1.0000
  O   O9        1.0  0.97800  0.09200  0.40900  1.0000
  O   O10       1.0  0.43100  0.81700  0.40900  1.0000
  O   O11       1.0  0.72800  0.30200  0.41300  1.0000
  O   O12       1.0  0.68500  0.61000  0.41300  1.0000
  O   O13       1.0  0.31500  0.39000  0.58700  1.0000
  O   O14       1.0  0.27200  0.69800  0.58700  1.0000
  O   O15       1.0  0.56900  0.18300  0.59100  1.0000
  O   O16       1.0  0.02230  0.90800  0.59100  1.0000
  O   O17       1.0  0.67200  0.54100  0.64400  1.0000
  O   O18       1.0  0.97200  0.60300  0.64400  1.0000
  O   O19       1.0  0.39700  0.02830  0.85600  1.0000
  O   O20       1.0  0.45900  0.32800  0.85600  1.0000
  O   O21       1.0  0.81700  0.43100  0.90900  1.0000
  O   O22       1.0  0.09200  0.97800  0.90900  1.0000
  O   O23       1.0  0.61000  0.68500  0.91300  1.0000
  O   O24       1.0  0.30200  0.72800  0.91300  1.0000
  P   P1        1.0  0.50900  0.75900  0.01790  1.0000
  P   P2        1.0  0.24100  0.49100  0.48200  1.0000
  P   P3        1.0  0.75900  0.50900  0.51800  1.0000
  P   P4        1.0  0.49100  0.24100  0.98200  1.0000
