data_image0
_chemical_formula_structural       Ge16Nb12U8
_chemical_formula_sum              "Ge16 Nb12 U8"
_cell_length_a       7.01175
_cell_length_b       13.5107
_cell_length_c       7.19449
_cell_angle_alpha    90
_cell_angle_beta     90
_cell_angle_gamma    90

_space_group_name_H-M_alt    "P 1"
_space_group_IT_number       1

loop_
  _space_group_symop_operation_xyz
  'x, y, z'

loop_
  _atom_site_type_symbol
  _atom_site_label
  _atom_site_symmetry_multiplicity
  _atom_site_fract_x
  _atom_site_fract_y
  _atom_site_fract_z
  _atom_site_occupancy
  Ge  Ge1       1.0  0.67300  0.04310  0.04280  1.0000
  Ge  Ge2       1.0  0.67300  0.45700  0.04280  1.0000
  Ge  Ge3       1.0  0.03960  0.25000  0.12400  1.0000
  Ge  Ge4       1.0  0.69200  0.75000  0.14000  1.0000
  Ge  Ge5       1.0  0.19200  0.75000  0.36000  1.0000
  Ge  Ge6       1.0  0.54000  0.25000  0.37600  1.0000
  Ge  Ge7       1.0  0.17300  0.04310  0.45700  1.0000
  Ge  Ge8       1.0  0.17300  0.45700  0.45700  1.0000
  Ge  Ge9       1.0  0.82700  0.54300  0.54300  1.0000
  Ge  Ge10      1.0  0.82700  0.95700  0.54300  1.0000
  Ge  Ge11      1.0  0.46000  0.75000  0.62400  1.0000
  Ge  Ge12      1.0  0.80800  0.25000  0.64000  1.0000
  Ge  Ge13      1.0  0.30800  0.25000  0.86000  1.0000
  Ge  Ge14      1.0  0.96000  0.75000  0.87600  1.0000
  Ge  Ge15      1.0  0.32700  0.54300  0.95700  1.0000
  Ge  Ge16      1.0  0.32700  0.95700  0.95700  1.0000
  Nb  Nb1       1.0  0.66800  0.25000  0.00414  1.0000
  Nb  Nb2       1.0  0.34000  0.12500  0.16700  1.0000
  Nb  Nb3       1.0  0.34000  0.37500  0.16700  1.0000
  Nb  Nb4       1.0  0.84000  0.12500  0.33300  1.0000
  Nb  Nb5       1.0  0.84000  0.37500  0.33300  1.0000
  Nb  Nb6       1.0  0.16800  0.25000  0.49600  1.0000
  Nb  Nb7       1.0  0.83200  0.75000  0.50400  1.0000
  Nb  Nb8       1.0  0.16000  0.62500  0.66700  1.0000
  Nb  Nb9       1.0  0.16000  0.87500  0.66700  1.0000
  Nb  Nb10      1.0  0.66000  0.62500  0.83300  1.0000
  Nb  Nb11      1.0  0.66000  0.87500  0.83300  1.0000
  Nb  Nb12      1.0  0.33200  0.75000  0.99600  1.0000
  U   U1        1.0  0.99300  0.59100  0.17000  1.0000
  U   U2        1.0  0.99300  0.90900  0.17000  1.0000
  U   U3        1.0  0.49300  0.59100  0.33000  1.0000
  U   U4        1.0  0.49300  0.90900  0.33000  1.0000
  U   U5        1.0  0.50700  0.09070  0.67000  1.0000
  U   U6        1.0  0.50700  0.40900  0.67000  1.0000
  U   U7        1.0  0.00680  0.09070  0.83000  1.0000
  U   U8        1.0  0.00680  0.40900  0.83000  1.0000
