data_image0
_chemical_formula_structural       As4Ba4O24V4
_chemical_formula_sum              "As4 Ba4 O24 V4"
_cell_length_a       5.60532
_cell_length_b       10.2375
_cell_length_c       8.93684
_cell_angle_alpha    90
_cell_angle_beta     90.5245
_cell_angle_gamma    90

_space_group_name_H-M_alt    "P 1"
_space_group_IT_number       1

loop_
  _space_group_symop_operation_xyz
  'x, y, z'

loop_
  _atom_site_type_symbol
  _atom_site_label
  _atom_site_symmetry_multiplicity
  _atom_site_fract_x
  _atom_site_fract_y
  _atom_site_fract_z
  _atom_site_occupancy
  As  As1       1.0  0.84400  0.11600  0.21900  1.0000
  As  As2       1.0  0.15600  0.61600  0.28100  1.0000
  As  As3       1.0  0.84400  0.38400  0.71900  1.0000
  As  As4       1.0  0.15600  0.88400  0.78100  1.0000
  Ba  Ba1       1.0  0.65100  0.80600  0.08920  1.0000
  Ba  Ba2       1.0  0.34900  0.30600  0.41100  1.0000
  Ba  Ba3       1.0  0.65100  0.69400  0.58900  1.0000
  Ba  Ba4       1.0  0.34900  0.19400  0.91100  1.0000
  O   O1        1.0  0.80600  0.56300  0.01720  1.0000
  O   O2        1.0  0.21600  0.68100  0.10600  1.0000
  O   O3        1.0  0.59400  0.07670  0.12300  1.0000
  O   O4        1.0  0.02990  0.23100  0.14000  1.0000
  O   O5        1.0  0.59400  0.35800  0.15900  1.0000
  O   O6        1.0  0.00108  0.97000  0.22800  1.0000
  O   O7        1.0  0.99900  0.47000  0.27200  1.0000
  O   O8        1.0  0.40600  0.85800  0.34100  1.0000
  O   O9        1.0  0.97000  0.73100  0.36000  1.0000
  O   O10       1.0  0.40600  0.57700  0.37700  1.0000
  O   O11       1.0  0.78400  0.18100  0.39400  1.0000
  O   O12       1.0  0.19400  0.06270  0.48300  1.0000
  O   O13       1.0  0.80600  0.93700  0.51700  1.0000
  O   O14       1.0  0.21600  0.81900  0.60600  1.0000
  O   O15       1.0  0.59400  0.42300  0.62300  1.0000
  O   O16       1.0  0.02990  0.26900  0.64000  1.0000
  O   O17       1.0  0.59400  0.14200  0.65900  1.0000
  O   O18       1.0  0.00108  0.53000  0.72800  1.0000
  O   O19       1.0  0.99900  0.03040  0.77200  1.0000
  O   O20       1.0  0.40600  0.64200  0.84100  1.0000
  O   O21       1.0  0.97000  0.76900  0.86000  1.0000
  O   O22       1.0  0.40600  0.92300  0.87700  1.0000
  O   O23       1.0  0.78400  0.31900  0.89400  1.0000
  O   O24       1.0  0.19400  0.43700  0.98300  1.0000
  V   V1        1.0  0.84900  0.40800  0.08610  1.0000
  V   V2        1.0  0.15100  0.90800  0.41400  1.0000
  V   V3        1.0  0.84900  0.09210  0.58600  1.0000
  V   V4        1.0  0.15100  0.59200  0.91400  1.0000
