data_image0
_chemical_formula_structural       Cs4O24Se2W6
_chemical_formula_sum              "Cs4 O24 Se2 W6"
_cell_length_a       7.28398
_cell_length_b       7.28397
_cell_length_c       12.3141
_cell_angle_alpha    90
_cell_angle_beta     90
_cell_angle_gamma    120

_space_group_name_H-M_alt    "P 1"
_space_group_IT_number       1

loop_
  _space_group_symop_operation_xyz
  'x, y, z'

loop_
  _atom_site_type_symbol
  _atom_site_label
  _atom_site_symmetry_multiplicity
  _atom_site_fract_x
  _atom_site_fract_y
  _atom_site_fract_z
  _atom_site_occupancy
  Cs  Cs1       1.0  0.33300  0.66700  0.08980  1.0000
  Cs  Cs2       1.0  0.66700  0.33300  0.23000  1.0000
  Cs  Cs3       1.0  0.66700  0.33300  0.59000  1.0000
  Cs  Cs4       1.0  0.33300  0.66700  0.73000  1.0000
  O   O1        1.0  0.39900  0.19200  0.03380  1.0000
  O   O2        1.0  0.80800  0.20700  0.03380  1.0000
  O   O3        1.0  0.79300  0.60100  0.03380  1.0000
  O   O4        1.0  0.12900  0.25000  0.22400  1.0000
  O   O5        1.0  0.12100  0.87100  0.22400  1.0000
  O   O6        1.0  0.75000  0.87900  0.22400  1.0000
  O   O7        1.0  0.46000  0.54900  0.35100  1.0000
  O   O8        1.0  0.08860  0.54000  0.35100  1.0000
  O   O9        1.0  0.45100  0.91100  0.35100  1.0000
  O   O10       1.0  0.25100  0.12100  0.40600  1.0000
  O   O11       1.0  0.87900  0.13000  0.40600  1.0000
  O   O12       1.0  0.87000  0.74900  0.40600  1.0000
  O   O13       1.0  0.19200  0.79300  0.53400  1.0000
  O   O14       1.0  0.60100  0.80800  0.53400  1.0000
  O   O15       1.0  0.20700  0.39900  0.53400  1.0000
  O   O16       1.0  0.87100  0.75000  0.72400  1.0000
  O   O17       1.0  0.87900  0.12900  0.72400  1.0000
  O   O18       1.0  0.25000  0.12100  0.72400  1.0000
  O   O19       1.0  0.54900  0.08860  0.85100  1.0000
  O   O20       1.0  0.54000  0.45100  0.85100  1.0000
  O   O21       1.0  0.91100  0.46000  0.85100  1.0000
  O   O22       1.0  0.13000  0.25100  0.90600  1.0000
  O   O23       1.0  0.12100  0.87000  0.90600  1.0000
  O   O24       1.0  0.74900  0.87900  0.90600  1.0000
  Se  Se1       1.0  0.00000  0.00000  0.16400  1.0000
  Se  Se2       1.0  0.00000  0.00000  0.66400  1.0000
  W   W1        1.0  0.66100  0.84700  0.39500  1.0000
  W   W2        1.0  0.15300  0.81400  0.39500  1.0000
  W   W3        1.0  0.18600  0.33900  0.39500  1.0000
  W   W4        1.0  0.33900  0.15300  0.89500  1.0000
  W   W5        1.0  0.84700  0.18600  0.89500  1.0000
  W   W6        1.0  0.81400  0.66100  0.89500  1.0000
