data_image0
_chemical_formula_structural       Ce4Ge12Pd20
_chemical_formula_sum              "Ce4 Ge12 Pd20"
_cell_length_a       20.4922
_cell_length_b       4.18167
_cell_length_c       7.38022
_cell_angle_alpha    90
_cell_angle_beta     90
_cell_angle_gamma    90

_space_group_name_H-M_alt    "P 1"
_space_group_IT_number       1

loop_
  _space_group_symop_operation_xyz
  'x, y, z'

loop_
  _atom_site_type_symbol
  _atom_site_label
  _atom_site_symmetry_multiplicity
  _atom_site_fract_x
  _atom_site_fract_y
  _atom_site_fract_z
  _atom_site_occupancy
  Ce  Ce1       1.0  0.85500  0.75000  0.12300  1.0000
  Ce  Ce2       1.0  0.35500  0.75000  0.37700  1.0000
  Ce  Ce3       1.0  0.64500  0.25000  0.62300  1.0000
  Ce  Ce4       1.0  0.14500  0.25000  0.87700  1.0000
  Ge  Ge1       1.0  0.41500  0.25000  0.09030  1.0000
  Ge  Ge2       1.0  0.73800  0.25000  0.12300  1.0000
  Ge  Ge3       1.0  0.07540  0.75000  0.15200  1.0000
  Ge  Ge4       1.0  0.57500  0.75000  0.34800  1.0000
  Ge  Ge5       1.0  0.23800  0.25000  0.37700  1.0000
  Ge  Ge6       1.0  0.91500  0.25000  0.41000  1.0000
  Ge  Ge7       1.0  0.08540  0.75000  0.59000  1.0000
  Ge  Ge8       1.0  0.76200  0.75000  0.62300  1.0000
  Ge  Ge9       1.0  0.42500  0.25000  0.65200  1.0000
  Ge  Ge10      1.0  0.92500  0.25000  0.84800  1.0000
  Ge  Ge11      1.0  0.26200  0.75000  0.87700  1.0000
  Ge  Ge12      1.0  0.58500  0.75000  0.91000  1.0000
  Pd  Pd1       1.0  0.29400  0.25000  0.07220  1.0000
  Pd  Pd2       1.0  0.48600  0.75000  0.12000  1.0000
  Pd  Pd3       1.0  0.99500  0.25000  0.12900  1.0000
  Pd  Pd4       1.0  0.61600  0.25000  0.14500  1.0000
  Pd  Pd5       1.0  0.20000  0.75000  0.17900  1.0000
  Pd  Pd6       1.0  0.70000  0.75000  0.32100  1.0000
  Pd  Pd7       1.0  0.11600  0.25000  0.35500  1.0000
  Pd  Pd8       1.0  0.49500  0.25000  0.37100  1.0000
  Pd  Pd9       1.0  0.98600  0.75000  0.38000  1.0000
  Pd  Pd10      1.0  0.79400  0.25000  0.42800  1.0000
  Pd  Pd11      1.0  0.20600  0.75000  0.57200  1.0000
  Pd  Pd12      1.0  0.01400  0.25000  0.62000  1.0000
  Pd  Pd13      1.0  0.50500  0.75000  0.62900  1.0000
  Pd  Pd14      1.0  0.88400  0.75000  0.64500  1.0000
  Pd  Pd15      1.0  0.30000  0.25000  0.67900  1.0000
  Pd  Pd16      1.0  0.80000  0.25000  0.82100  1.0000
  Pd  Pd17      1.0  0.38400  0.75000  0.85500  1.0000
  Pd  Pd18      1.0  0.00545  0.75000  0.87100  1.0000
  Pd  Pd19      1.0  0.51400  0.25000  0.88000  1.0000
  Pd  Pd20      1.0  0.70600  0.75000  0.92800  1.0000
