data_image0
_chemical_formula_structural       AlMnO6
_chemical_formula_sum              "Al1 Mn1 O6"
_cell_length_a       4.9636
_cell_length_b       4.9636
_cell_length_c       4.25028
_cell_angle_alpha    99.3554
_cell_angle_beta     99.3554
_cell_angle_gamma    119.987

_space_group_name_H-M_alt    "P 1"
_space_group_IT_number       1

loop_
  _space_group_symop_operation_xyz
  'x, y, z'

loop_
  _atom_site_type_symbol
  _atom_site_label
  _atom_site_symmetry_multiplicity
  _atom_site_fract_x
  _atom_site_fract_y
  _atom_site_fract_z
  _atom_site_occupancy
  Al  Al1       1.0  0.17500  0.82500  0.00000  1.0000
  Mn  Mn1       1.0  0.81900  0.18100  0.00000  1.0000
  O   O1        1.0  0.20100  0.20400  0.19800  1.0000
  O   O2        1.0  0.57100  0.92100  0.24800  1.0000
  O   O3        1.0  0.92700  0.56800  0.25600  1.0000
  O   O4        1.0  0.43200  0.07270  0.74400  1.0000
  O   O5        1.0  0.07930  0.42900  0.75200  1.0000
  O   O6        1.0  0.79600  0.79900  0.80200  1.0000
