data_image0
_chemical_formula_structural       MnO6Ti
_chemical_formula_sum              "Mn1 O6 Ti1"
_cell_length_a       5.07597
_cell_length_b       5.07597
_cell_length_c       4.44868
_cell_angle_alpha    102.57
_cell_angle_beta     102.57
_cell_angle_gamma    123.922

_space_group_name_H-M_alt    "P 1"
_space_group_IT_number       1

loop_
  _space_group_symop_operation_xyz
  'x, y, z'

loop_
  _atom_site_type_symbol
  _atom_site_label
  _atom_site_symmetry_multiplicity
  _atom_site_fract_x
  _atom_site_fract_y
  _atom_site_fract_z
  _atom_site_occupancy
  Mn  Mn1       1.0  0.13900  0.86100  0.00000  1.0000
  O   O1        1.0  0.97100  0.61700  0.23400  1.0000
  O   O2        1.0  0.57700  0.93700  0.24600  1.0000
  O   O3        1.0  0.26100  0.23000  0.27600  1.0000
  O   O4        1.0  0.77000  0.73900  0.72400  1.0000
  O   O5        1.0  0.06300  0.42300  0.75400  1.0000
  O   O6        1.0  0.38300  0.02920  0.76600  1.0000
  Ti  Ti1       1.0  0.83400  0.16600  0.00000  1.0000
