data_image0
_chemical_formula_structural       Ba4Eu8O20Zn4
_chemical_formula_sum              "Ba4 Eu8 O20 Zn4"
_cell_length_a       7.22865
_cell_length_b       12.4452
_cell_length_c       5.75763
_cell_angle_alpha    90
_cell_angle_beta     90
_cell_angle_gamma    90

_space_group_name_H-M_alt    "P 1"
_space_group_IT_number       1

loop_
  _space_group_symop_operation_xyz
  'x, y, z'

loop_
  _atom_site_type_symbol
  _atom_site_label
  _atom_site_symmetry_multiplicity
  _atom_site_fract_x
  _atom_site_fract_y
  _atom_site_fract_z
  _atom_site_occupancy
  Ba  Ba1       1.0  0.57600  0.40000  0.25000  1.0000
  Ba  Ba2       1.0  0.92400  0.90000  0.25000  1.0000
  Ba  Ba3       1.0  0.07560  0.10000  0.75000  1.0000
  Ba  Ba4       1.0  0.42400  0.60000  0.75000  1.0000
  Eu  Eu1       1.0  0.39500  0.07760  0.25000  1.0000
  Eu  Eu2       1.0  0.11900  0.29800  0.25000  1.0000
  Eu  Eu3       1.0  0.10500  0.57800  0.25000  1.0000
  Eu  Eu4       1.0  0.38100  0.79800  0.25000  1.0000
  Eu  Eu5       1.0  0.61900  0.20200  0.75000  1.0000
  Eu  Eu6       1.0  0.89500  0.42200  0.75000  1.0000
  Eu  Eu7       1.0  0.88100  0.70200  0.75000  1.0000
  Eu  Eu8       1.0  0.60500  0.92200  0.75000  1.0000
  O   O1        1.0  0.84700  0.27100  0.01200  1.0000
  O   O2        1.0  0.65300  0.77100  0.01200  1.0000
  O   O3        1.0  0.68600  0.05940  0.02060  1.0000
  O   O4        1.0  0.81400  0.55900  0.02060  1.0000
  O   O5        1.0  0.06480  0.10100  0.25000  1.0000
  O   O6        1.0  0.43500  0.60100  0.25000  1.0000
  O   O7        1.0  0.68600  0.05940  0.47900  1.0000
  O   O8        1.0  0.81400  0.55900  0.47900  1.0000
  O   O9        1.0  0.84700  0.27100  0.48800  1.0000
  O   O10       1.0  0.65300  0.77100  0.48800  1.0000
  O   O11       1.0  0.34700  0.22900  0.51200  1.0000
  O   O12       1.0  0.15300  0.72900  0.51200  1.0000
  O   O13       1.0  0.18600  0.44100  0.52100  1.0000
  O   O14       1.0  0.31400  0.94100  0.52100  1.0000
  O   O15       1.0  0.56500  0.39900  0.75000  1.0000
  O   O16       1.0  0.93500  0.89900  0.75000  1.0000
  O   O17       1.0  0.18600  0.44100  0.97900  1.0000
  O   O18       1.0  0.31400  0.94100  0.97900  1.0000
  O   O19       1.0  0.34700  0.22900  0.98800  1.0000
  O   O20       1.0  0.15300  0.72900  0.98800  1.0000
  Zn  Zn1       1.0  0.80500  0.15600  0.25000  1.0000
  Zn  Zn2       1.0  0.69500  0.65600  0.25000  1.0000
  Zn  Zn3       1.0  0.30500  0.34400  0.75000  1.0000
  Zn  Zn4       1.0  0.19500  0.84400  0.75000  1.0000
