data_image0
_chemical_formula_structural       Fe8K12Se16
_chemical_formula_sum              "Fe8 K12 Se16"
_cell_length_a       7.45562
_cell_length_b       11.1099
_cell_length_c       12.1742
_cell_angle_alpha    90
_cell_angle_beta     90
_cell_angle_gamma    90

_space_group_name_H-M_alt    "P 1"
_space_group_IT_number       1

loop_
  _space_group_symop_operation_xyz
  'x, y, z'

loop_
  _atom_site_type_symbol
  _atom_site_label
  _atom_site_symmetry_multiplicity
  _atom_site_fract_x
  _atom_site_fract_y
  _atom_site_fract_z
  _atom_site_occupancy
  Fe  Fe1       1.0  0.55400  0.13200  0.02920  1.0000
  Fe  Fe2       1.0  0.55400  0.36800  0.02920  1.0000
  Fe  Fe3       1.0  0.05380  0.13200  0.47100  1.0000
  Fe  Fe4       1.0  0.05380  0.36800  0.47100  1.0000
  Fe  Fe5       1.0  0.94600  0.63200  0.52900  1.0000
  Fe  Fe6       1.0  0.94600  0.86800  0.52900  1.0000
  Fe  Fe7       1.0  0.44600  0.63200  0.97100  1.0000
  Fe  Fe8       1.0  0.44600  0.86800  0.97100  1.0000
  K   K1        1.0  0.07780  0.06890  0.13500  1.0000
  K   K2        1.0  0.07780  0.43100  0.13500  1.0000
  K   K3        1.0  0.91100  0.75000  0.23900  1.0000
  K   K4        1.0  0.41100  0.75000  0.26100  1.0000
  K   K5        1.0  0.57800  0.06890  0.36500  1.0000
  K   K6        1.0  0.57800  0.43100  0.36500  1.0000
  K   K7        1.0  0.42200  0.56900  0.63500  1.0000
  K   K8        1.0  0.42200  0.93100  0.63500  1.0000
  K   K9        1.0  0.58900  0.25000  0.73900  1.0000
  K   K10       1.0  0.08940  0.25000  0.76100  1.0000
  K   K11       1.0  0.92200  0.56900  0.86500  1.0000
  K   K12       1.0  0.92200  0.93100  0.86500  1.0000
  Se  Se1       1.0  0.19100  0.75000  0.03310  1.0000
  Se  Se2       1.0  0.65300  0.55500  0.10900  1.0000
  Se  Se3       1.0  0.65300  0.94500  0.10900  1.0000
  Se  Se4       1.0  0.41700  0.25000  0.16900  1.0000
  Se  Se5       1.0  0.91700  0.25000  0.33100  1.0000
  Se  Se6       1.0  0.15300  0.55500  0.39100  1.0000
  Se  Se7       1.0  0.15300  0.94500  0.39100  1.0000
  Se  Se8       1.0  0.69100  0.75000  0.46700  1.0000
  Se  Se9       1.0  0.30900  0.25000  0.53300  1.0000
  Se  Se10      1.0  0.84700  0.05510  0.60900  1.0000
  Se  Se11      1.0  0.84700  0.44500  0.60900  1.0000
  Se  Se12      1.0  0.08340  0.75000  0.66900  1.0000
  Se  Se13      1.0  0.58300  0.75000  0.83100  1.0000
  Se  Se14      1.0  0.34700  0.05510  0.89100  1.0000
  Se  Se15      1.0  0.34700  0.44500  0.89100  1.0000
  Se  Se16      1.0  0.80900  0.25000  0.96700  1.0000
