data_image0
_chemical_formula_structural       Ba4Gd8O20Zn4
_chemical_formula_sum              "Ba4 Gd8 O20 Zn4"
_cell_length_a       7.13003
_cell_length_b       12.4341
_cell_length_c       5.75515
_cell_angle_alpha    90
_cell_angle_beta     90
_cell_angle_gamma    90

_space_group_name_H-M_alt    "P 1"
_space_group_IT_number       1

loop_
  _space_group_symop_operation_xyz
  'x, y, z'

loop_
  _atom_site_type_symbol
  _atom_site_label
  _atom_site_symmetry_multiplicity
  _atom_site_fract_x
  _atom_site_fract_y
  _atom_site_fract_z
  _atom_site_occupancy
  Ba  Ba1       1.0  0.57600  0.40000  0.25000  1.0000
  Ba  Ba2       1.0  0.92400  0.90000  0.25000  1.0000
  Ba  Ba3       1.0  0.07650  0.10000  0.75000  1.0000
  Ba  Ba4       1.0  0.42400  0.60000  0.75000  1.0000
  Gd  Gd1       1.0  0.39900  0.07450  0.25000  1.0000
  Gd  Gd2       1.0  0.11900  0.29200  0.25000  1.0000
  Gd  Gd3       1.0  0.10100  0.57400  0.25000  1.0000
  Gd  Gd4       1.0  0.38100  0.79200  0.25000  1.0000
  Gd  Gd5       1.0  0.61900  0.20800  0.75000  1.0000
  Gd  Gd6       1.0  0.89900  0.42600  0.75000  1.0000
  Gd  Gd7       1.0  0.88100  0.70800  0.75000  1.0000
  Gd  Gd8       1.0  0.60100  0.92600  0.75000  1.0000
  O   O1        1.0  0.85600  0.27600  0.00187  1.0000
  O   O2        1.0  0.64400  0.77600  0.00187  1.0000
  O   O3        1.0  0.66600  0.06520  0.00321  1.0000
  O   O4        1.0  0.83400  0.56500  0.00321  1.0000
  O   O5        1.0  0.07220  0.09930  0.25000  1.0000
  O   O6        1.0  0.42800  0.59900  0.25000  1.0000
  O   O7        1.0  0.66600  0.06520  0.49700  1.0000
  O   O8        1.0  0.83400  0.56500  0.49700  1.0000
  O   O9        1.0  0.85600  0.27600  0.49800  1.0000
  O   O10       1.0  0.64400  0.77600  0.49800  1.0000
  O   O11       1.0  0.35600  0.22400  0.50200  1.0000
  O   O12       1.0  0.14400  0.72400  0.50200  1.0000
  O   O13       1.0  0.16600  0.43500  0.50300  1.0000
  O   O14       1.0  0.33400  0.93500  0.50300  1.0000
  O   O15       1.0  0.57200  0.40100  0.75000  1.0000
  O   O16       1.0  0.92800  0.90100  0.75000  1.0000
  O   O17       1.0  0.16600  0.43500  0.99700  1.0000
  O   O18       1.0  0.33400  0.93500  0.99700  1.0000
  O   O19       1.0  0.35600  0.22400  0.99800  1.0000
  O   O20       1.0  0.14400  0.72400  0.99800  1.0000
  Zn  Zn1       1.0  0.80800  0.15100  0.25000  1.0000
  Zn  Zn2       1.0  0.69200  0.65100  0.25000  1.0000
  Zn  Zn3       1.0  0.30800  0.34900  0.75000  1.0000
  Zn  Zn4       1.0  0.19200  0.84900  0.75000  1.0000
