data_image0
_chemical_formula_structural       Pr20Si16
_chemical_formula_sum              "Pr20 Si16"
_cell_length_a       7.94814
_cell_length_b       7.94814
_cell_length_c       15.2836
_cell_angle_alpha    90
_cell_angle_beta     90
_cell_angle_gamma    90

_space_group_name_H-M_alt    "P 1"
_space_group_IT_number       1

loop_
  _space_group_symop_operation_xyz
  'x, y, z'

loop_
  _atom_site_type_symbol
  _atom_site_label
  _atom_site_symmetry_multiplicity
  _atom_site_fract_x
  _atom_site_fract_y
  _atom_site_fract_z
  _atom_site_occupancy
  Pr  Pr1       1.0  0.30900  0.30900  0.00000  1.0000
  Pr  Pr2       1.0  0.98900  0.62200  0.05210  1.0000
  Pr  Pr3       1.0  0.98100  0.12700  0.12400  1.0000
  Pr  Pr4       1.0  0.51900  0.62700  0.12600  1.0000
  Pr  Pr5       1.0  0.51100  0.12200  0.19800  1.0000
  Pr  Pr6       1.0  0.19100  0.80900  0.25000  1.0000
  Pr  Pr7       1.0  0.87800  0.48900  0.30200  1.0000
  Pr  Pr8       1.0  0.37300  0.48100  0.37400  1.0000
  Pr  Pr9       1.0  0.87300  0.01950  0.37600  1.0000
  Pr  Pr10      1.0  0.37800  0.01110  0.44800  1.0000
  Pr  Pr11      1.0  0.69100  0.69100  0.50000  1.0000
  Pr  Pr12      1.0  0.01110  0.37800  0.55200  1.0000
  Pr  Pr13      1.0  0.01950  0.87300  0.62400  1.0000
  Pr  Pr14      1.0  0.48100  0.37300  0.62600  1.0000
  Pr  Pr15      1.0  0.48900  0.87800  0.69800  1.0000
  Pr  Pr16      1.0  0.80900  0.19100  0.75000  1.0000
  Pr  Pr17      1.0  0.12200  0.51100  0.80200  1.0000
  Pr  Pr18      1.0  0.62700  0.51900  0.87400  1.0000
  Pr  Pr19      1.0  0.12700  0.98100  0.87600  1.0000
  Pr  Pr20      1.0  0.62200  0.98900  0.94800  1.0000
  Si  Si1       1.0  0.69600  0.33100  0.04780  1.0000
  Si  Si2       1.0  0.28900  0.92200  0.05950  1.0000
  Si  Si3       1.0  0.21100  0.42200  0.19000  1.0000
  Si  Si4       1.0  0.80400  0.83100  0.20200  1.0000
  Si  Si5       1.0  0.16900  0.19600  0.29800  1.0000
  Si  Si6       1.0  0.57800  0.78900  0.31000  1.0000
  Si  Si7       1.0  0.07760  0.71100  0.44000  1.0000
  Si  Si8       1.0  0.66900  0.30400  0.45200  1.0000
  Si  Si9       1.0  0.30400  0.66900  0.54800  1.0000
  Si  Si10      1.0  0.71100  0.07760  0.56000  1.0000
  Si  Si11      1.0  0.78900  0.57800  0.69000  1.0000
  Si  Si12      1.0  0.19600  0.16900  0.70200  1.0000
  Si  Si13      1.0  0.83100  0.80400  0.79800  1.0000
  Si  Si14      1.0  0.42200  0.21100  0.81000  1.0000
  Si  Si15      1.0  0.92200  0.28900  0.94000  1.0000
  Si  Si16      1.0  0.33100  0.69600  0.95200  1.0000
