data_image0
_chemical_formula_structural       F20N4O8Xe4
_chemical_formula_sum              "F20 N4 O8 Xe4"
_cell_length_a       6.3413
_cell_length_b       5.34661
_cell_length_c       13.1526
_cell_angle_alpha    90
_cell_angle_beta     100.485
_cell_angle_gamma    90

_space_group_name_H-M_alt    "P 1"
_space_group_IT_number       1

loop_
  _space_group_symop_operation_xyz
  'x, y, z'

loop_
  _atom_site_type_symbol
  _atom_site_label
  _atom_site_symmetry_multiplicity
  _atom_site_fract_x
  _atom_site_fract_y
  _atom_site_fract_z
  _atom_site_occupancy
  F   F1        1.0  0.53900  0.77000  0.04050  1.0000
  F   F2        1.0  0.88000  0.54400  0.07070  1.0000
  F   F3        1.0  0.14700  0.80800  0.18200  1.0000
  F   F4        1.0  0.56900  0.10400  0.18500  1.0000
  F   F5        1.0  0.55100  0.61600  0.22900  1.0000
  F   F6        1.0  0.94900  0.11600  0.27100  1.0000
  F   F7        1.0  0.93100  0.60400  0.31500  1.0000
  F   F8        1.0  0.35300  0.30800  0.31800  1.0000
  F   F9        1.0  0.62000  0.04380  0.42900  1.0000
  F   F10       1.0  0.96100  0.27000  0.45900  1.0000
  F   F11       1.0  0.03900  0.73000  0.54100  1.0000
  F   F12       1.0  0.38000  0.95600  0.57100  1.0000
  F   F13       1.0  0.64700  0.69200  0.68200  1.0000
  F   F14       1.0  0.06860  0.39600  0.68500  1.0000
  F   F15       1.0  0.05120  0.88400  0.72900  1.0000
  F   F16       1.0  0.44900  0.38400  0.77100  1.0000
  F   F17       1.0  0.43100  0.89600  0.81500  1.0000
  F   F18       1.0  0.85300  0.19200  0.81800  1.0000
  F   F19       1.0  0.12000  0.45600  0.92900  1.0000
  F   F20       1.0  0.46100  0.23000  0.95900  1.0000
  N   N1        1.0  0.26400  0.48500  0.10000  1.0000
  N   N2        1.0  0.23600  0.98500  0.40000  1.0000
  N   N3        1.0  0.76400  0.01530  0.60000  1.0000
  N   N4        1.0  0.73600  0.51500  0.90000  1.0000
  O   O1        1.0  0.86700  0.09520  0.04900  1.0000
  O   O2        1.0  0.23600  0.29800  0.13200  1.0000
  O   O3        1.0  0.26400  0.79800  0.36800  1.0000
  O   O4        1.0  0.63300  0.59500  0.45100  1.0000
  O   O5        1.0  0.36700  0.40500  0.54900  1.0000
  O   O6        1.0  0.73600  0.20200  0.63200  1.0000
  O   O7        1.0  0.76400  0.70200  0.86800  1.0000
  O   O8        1.0  0.13300  0.90500  0.95100  1.0000
  Xe  Xe1       1.0  0.80900  0.87100  0.14400  1.0000
  Xe  Xe2       1.0  0.69100  0.37100  0.35600  1.0000
  Xe  Xe3       1.0  0.30900  0.62900  0.64400  1.0000
  Xe  Xe4       1.0  0.19100  0.12900  0.85600  1.0000
