data_image0
_chemical_formula_structural       MnO6Sb
_chemical_formula_sum              "Mn1 O6 Sb1"
_cell_length_a       5.23945
_cell_length_b       5.23945
_cell_length_c       4.62965
_cell_angle_alpha    105.445
_cell_angle_beta     105.445
_cell_angle_gamma    121.433

_space_group_name_H-M_alt    "P 1"
_space_group_IT_number       1

loop_
  _space_group_symop_operation_xyz
  'x, y, z'

loop_
  _atom_site_type_symbol
  _atom_site_label
  _atom_site_symmetry_multiplicity
  _atom_site_fract_x
  _atom_site_fract_y
  _atom_site_fract_z
  _atom_site_occupancy
  Mn  Mn1       1.0  0.83600  0.16400  0.00000  1.0000
  O   O1        1.0  0.97300  0.60300  0.25700  1.0000
  O   O2        1.0  0.25700  0.27300  0.25800  1.0000
  O   O3        1.0  0.64300  0.99600  0.26900  1.0000
  O   O4        1.0  0.00404  0.35700  0.73100  1.0000
  O   O5        1.0  0.72700  0.74300  0.74200  1.0000
  O   O6        1.0  0.39700  0.02720  0.74300  1.0000
  Sb  Sb1       1.0  0.16100  0.83900  0.00000  1.0000
