data_image0
_chemical_formula_structural       As12Co4Hf20
_chemical_formula_sum              "As12 Co4 Hf20"
_cell_length_a       17.3877
_cell_length_b       3.67569
_cell_length_c       10.435
_cell_angle_alpha    90
_cell_angle_beta     90
_cell_angle_gamma    90

_space_group_name_H-M_alt    "P 1"
_space_group_IT_number       1

loop_
  _space_group_symop_operation_xyz
  'x, y, z'

loop_
  _atom_site_type_symbol
  _atom_site_label
  _atom_site_symmetry_multiplicity
  _atom_site_fract_x
  _atom_site_fract_y
  _atom_site_fract_z
  _atom_site_occupancy
  As  As1       1.0  0.61900  0.25000  0.00895  1.0000
  As  As2       1.0  0.78100  0.75000  0.18600  1.0000
  As  As3       1.0  0.00736  0.25000  0.18900  1.0000
  As  As4       1.0  0.50700  0.25000  0.31100  1.0000
  As  As5       1.0  0.28100  0.75000  0.31400  1.0000
  As  As6       1.0  0.11900  0.25000  0.49100  1.0000
  As  As7       1.0  0.88100  0.75000  0.50900  1.0000
  As  As8       1.0  0.71900  0.25000  0.68600  1.0000
  As  As9       1.0  0.49300  0.75000  0.68900  1.0000
  As  As10      1.0  0.99300  0.75000  0.81100  1.0000
  As  As11      1.0  0.21900  0.25000  0.81400  1.0000
  As  As12      1.0  0.38100  0.75000  0.99100  1.0000
  Co  Co1       1.0  0.09180  0.75000  0.13200  1.0000
  Co  Co2       1.0  0.59200  0.75000  0.36800  1.0000
  Co  Co3       1.0  0.40800  0.25000  0.63200  1.0000
  Co  Co4       1.0  0.90800  0.25000  0.86800  1.0000
  Hf  Hf1       1.0  0.22400  0.75000  0.01590  1.0000
  Hf  Hf2       1.0  0.92300  0.75000  0.05690  1.0000
  Hf  Hf3       1.0  0.52200  0.75000  0.12000  1.0000
  Hf  Hf4       1.0  0.36800  0.25000  0.18500  1.0000
  Hf  Hf5       1.0  0.16700  0.25000  0.24200  1.0000
  Hf  Hf6       1.0  0.66700  0.25000  0.25800  1.0000
  Hf  Hf7       1.0  0.86800  0.25000  0.31500  1.0000
  Hf  Hf8       1.0  0.02170  0.75000  0.38000  1.0000
  Hf  Hf9       1.0  0.42300  0.75000  0.44300  1.0000
  Hf  Hf10      1.0  0.72400  0.75000  0.48400  1.0000
  Hf  Hf11      1.0  0.27600  0.25000  0.51600  1.0000
  Hf  Hf12      1.0  0.57700  0.25000  0.55700  1.0000
  Hf  Hf13      1.0  0.97800  0.25000  0.62000  1.0000
  Hf  Hf14      1.0  0.13200  0.75000  0.68500  1.0000
  Hf  Hf15      1.0  0.33300  0.75000  0.74200  1.0000
  Hf  Hf16      1.0  0.83300  0.75000  0.75800  1.0000
  Hf  Hf17      1.0  0.63200  0.75000  0.81500  1.0000
  Hf  Hf18      1.0  0.47800  0.25000  0.88000  1.0000
  Hf  Hf19      1.0  0.07740  0.25000  0.94300  1.0000
  Hf  Hf20      1.0  0.77600  0.25000  0.98400  1.0000
