data_image0
_chemical_formula_structural       Ba4Er8O20Zn4
_chemical_formula_sum              "Ba4 Er8 O20 Zn4"
_cell_length_a       7.01708
_cell_length_b       12.2531
_cell_length_c       5.67812
_cell_angle_alpha    90
_cell_angle_beta     90
_cell_angle_gamma    90

_space_group_name_H-M_alt    "P 1"
_space_group_IT_number       1

loop_
  _space_group_symop_operation_xyz
  'x, y, z'

loop_
  _atom_site_type_symbol
  _atom_site_label
  _atom_site_symmetry_multiplicity
  _atom_site_fract_x
  _atom_site_fract_y
  _atom_site_fract_z
  _atom_site_occupancy
  Ba  Ba1       1.0  0.57700  0.39900  0.25000  1.0000
  Ba  Ba2       1.0  0.92300  0.89900  0.25000  1.0000
  Ba  Ba3       1.0  0.07740  0.10100  0.75000  1.0000
  Ba  Ba4       1.0  0.42300  0.60100  0.75000  1.0000
  Er  Er1       1.0  0.40000  0.07440  0.25000  1.0000
  Er  Er2       1.0  0.12000  0.29200  0.25000  1.0000
  Er  Er3       1.0  0.09960  0.57400  0.25000  1.0000
  Er  Er4       1.0  0.38000  0.79200  0.25000  1.0000
  Er  Er5       1.0  0.62000  0.20800  0.75000  1.0000
  Er  Er6       1.0  0.90000  0.42600  0.75000  1.0000
  Er  Er7       1.0  0.88000  0.70800  0.75000  1.0000
  Er  Er8       1.0  0.60000  0.92600  0.75000  1.0000
  O   O1        1.0  0.36000  0.22400  0.00000  1.0000
  O   O2        1.0  0.86000  0.27600  0.00000  1.0000
  O   O3        1.0  0.14000  0.72400  0.00000  1.0000
  O   O4        1.0  0.64000  0.77600  0.00000  1.0000
  O   O5        1.0  0.66400  0.06550  0.00023  1.0000
  O   O6        1.0  0.83600  0.56500  0.00023  1.0000
  O   O7        1.0  0.07780  0.10100  0.25000  1.0000
  O   O8        1.0  0.42200  0.60100  0.25000  1.0000
  O   O9        1.0  0.66400  0.06550  0.50000  1.0000
  O   O10       1.0  0.83600  0.56500  0.50000  1.0000
  O   O11       1.0  0.36000  0.22400  0.50000  1.0000
  O   O12       1.0  0.14000  0.72400  0.50000  1.0000
  O   O13       1.0  0.86000  0.27600  0.50000  1.0000
  O   O14       1.0  0.64000  0.77600  0.50000  1.0000
  O   O15       1.0  0.16400  0.43500  0.50000  1.0000
  O   O16       1.0  0.33600  0.93500  0.50000  1.0000
  O   O17       1.0  0.57800  0.39900  0.75000  1.0000
  O   O18       1.0  0.92200  0.89900  0.75000  1.0000
  O   O19       1.0  0.16400  0.43500  0.00000  1.0000
  O   O20       1.0  0.33600  0.93500  0.00000  1.0000
  Zn  Zn1       1.0  0.80800  0.15100  0.25000  1.0000
  Zn  Zn2       1.0  0.69200  0.65100  0.25000  1.0000
  Zn  Zn3       1.0  0.30800  0.34900  0.75000  1.0000
  Zn  Zn4       1.0  0.19200  0.84900  0.75000  1.0000
