data_image0
_chemical_formula_structural       MnO6U
_chemical_formula_sum              "Mn1 O6 U1"
_cell_length_a       5.28436
_cell_length_b       5.28426
_cell_length_c       4.70161
_cell_angle_alpha    100.935
_cell_angle_beta     100.934
_cell_angle_gamma    120.234

_space_group_name_H-M_alt    "P 1"
_space_group_IT_number       1

loop_
  _space_group_symop_operation_xyz
  'x, y, z'

loop_
  _atom_site_type_symbol
  _atom_site_label
  _atom_site_symmetry_multiplicity
  _atom_site_fract_x
  _atom_site_fract_y
  _atom_site_fract_z
  _atom_site_occupancy
  Mn  Mn1       1.0  0.83300  0.16700  0.00000  1.0000
  O   O1        1.0  0.60200  0.95400  0.23400  1.0000
  O   O2        1.0  0.93200  0.55600  0.23900  1.0000
  O   O3        1.0  0.20200  0.22500  0.24000  1.0000
  O   O4        1.0  0.77500  0.79800  0.76000  1.0000
  O   O5        1.0  0.44400  0.06770  0.76100  1.0000
  O   O6        1.0  0.04620  0.39800  0.76600  1.0000
  U   U1        1.0  0.16500  0.83500  0.00000  1.0000
