data_image0
_chemical_formula_structural       K4Na4O20Si8
_chemical_formula_sum              "K4 Na4 O20 Si8"
_cell_length_a       4.82586
_cell_length_b       13.5142
_cell_length_c       7.36764
_cell_angle_alpha    90
_cell_angle_beta     91.1645
_cell_angle_gamma    90

_space_group_name_H-M_alt    "P 1"
_space_group_IT_number       1

loop_
  _space_group_symop_operation_xyz
  'x, y, z'

loop_
  _atom_site_type_symbol
  _atom_site_label
  _atom_site_symmetry_multiplicity
  _atom_site_fract_x
  _atom_site_fract_y
  _atom_site_fract_z
  _atom_site_occupancy
  K   K1        1.0  0.79500  0.70000  0.21400  1.0000
  K   K2        1.0  0.20500  0.20000  0.28600  1.0000
  K   K3        1.0  0.79500  0.80000  0.71400  1.0000
  K   K4        1.0  0.20500  0.30000  0.78600  1.0000
  Na  Na1       1.0  0.72300  0.40700  0.02430  1.0000
  Na  Na2       1.0  0.27700  0.90700  0.47600  1.0000
  Na  Na3       1.0  0.72300  0.09290  0.52400  1.0000
  Na  Na4       1.0  0.27700  0.59300  0.97600  1.0000
  O   O1        1.0  0.78400  0.24300  0.00824  1.0000
  O   O2        1.0  0.63200  0.88400  0.06740  1.0000
  O   O3        1.0  0.25100  0.42400  0.07500  1.0000
  O   O4        1.0  0.13500  0.93200  0.17000  1.0000
  O   O5        1.0  0.74500  0.07060  0.18300  1.0000
  O   O6        1.0  0.25500  0.57100  0.31700  1.0000
  O   O7        1.0  0.86500  0.43200  0.33000  1.0000
  O   O8        1.0  0.74900  0.92400  0.42500  1.0000
  O   O9        1.0  0.36800  0.38400  0.43300  1.0000
  O   O10       1.0  0.21600  0.74300  0.49200  1.0000
  O   O11       1.0  0.78400  0.25700  0.50800  1.0000
  O   O12       1.0  0.63200  0.61600  0.56700  1.0000
  O   O13       1.0  0.25100  0.07590  0.57500  1.0000
  O   O14       1.0  0.13500  0.56800  0.67000  1.0000
  O   O15       1.0  0.74500  0.42900  0.68300  1.0000
  O   O16       1.0  0.25500  0.92900  0.81700  1.0000
  O   O17       1.0  0.86500  0.06770  0.83000  1.0000
  O   O18       1.0  0.74900  0.57600  0.92500  1.0000
  O   O19       1.0  0.36800  0.11600  0.93300  1.0000
  O   O20       1.0  0.21600  0.75700  0.99200  1.0000
  Si  Si1       1.0  0.29900  0.86900  0.01310  1.0000
  Si  Si2       1.0  0.80500  0.95100  0.22000  1.0000
  Si  Si3       1.0  0.19500  0.45100  0.28000  1.0000
  Si  Si4       1.0  0.70100  0.36900  0.48700  1.0000
  Si  Si5       1.0  0.29900  0.63100  0.51300  1.0000
  Si  Si6       1.0  0.80500  0.54900  0.72000  1.0000
  Si  Si7       1.0  0.19500  0.04920  0.78000  1.0000
  Si  Si8       1.0  0.70100  0.13100  0.98700  1.0000
