data_image0
_chemical_formula_structural       MnO6Zr
_chemical_formula_sum              "Mn1 O6 Zr1"
_cell_length_a       5.39392
_cell_length_b       5.39392
_cell_length_c       3.64702
_cell_angle_alpha    104.74
_cell_angle_beta     104.74
_cell_angle_gamma    115.503

_space_group_name_H-M_alt    "P 1"
_space_group_IT_number       1

loop_
  _space_group_symop_operation_xyz
  'x, y, z'

loop_
  _atom_site_type_symbol
  _atom_site_label
  _atom_site_symmetry_multiplicity
  _atom_site_fract_x
  _atom_site_fract_y
  _atom_site_fract_z
  _atom_site_occupancy
  Mn  Mn1       1.0  0.80900  0.19100  0.00000  1.0000
  O   O1        1.0  0.22400  0.30000  0.16600  1.0000
  O   O2        1.0  0.63200  0.88000  0.18200  1.0000
  O   O3        1.0  0.93100  0.57900  0.34200  1.0000
  O   O4        1.0  0.42100  0.06900  0.65800  1.0000
  O   O5        1.0  0.12000  0.36800  0.81800  1.0000
  O   O6        1.0  0.70000  0.77600  0.83400  1.0000
  Zr  Zr1       1.0  0.16900  0.83100  0.00000  1.0000
