data_image0
_chemical_formula_structural       MnNpO6
_chemical_formula_sum              "Mn1 Np1 O6"
_cell_length_a       5.22927
_cell_length_b       5.22927
_cell_length_c       4.73659
_cell_angle_alpha    99.9909
_cell_angle_beta     99.9909
_cell_angle_gamma    121.209

_space_group_name_H-M_alt    "P 1"
_space_group_IT_number       1

loop_
  _space_group_symop_operation_xyz
  'x, y, z'

loop_
  _atom_site_type_symbol
  _atom_site_label
  _atom_site_symmetry_multiplicity
  _atom_site_fract_x
  _atom_site_fract_y
  _atom_site_fract_z
  _atom_site_occupancy
  Mn  Mn1       1.0  0.83800  0.16200  0.00000  1.0000
  Np  Np1       1.0  0.16700  0.83300  0.00000  1.0000
  O   O1        1.0  0.93500  0.56400  0.22900  1.0000
  O   O2        1.0  0.20300  0.21900  0.23300  1.0000
  O   O3        1.0  0.59300  0.94500  0.23400  1.0000
  O   O4        1.0  0.05500  0.40700  0.76600  1.0000
  O   O5        1.0  0.78100  0.79700  0.76700  1.0000
  O   O6        1.0  0.43600  0.06520  0.77100  1.0000
