data_image0
_chemical_formula_structural       Cl20Pb4Rb12
_chemical_formula_sum              "Cl20 Pb4 Rb12"
_cell_length_a       8.76243
_cell_length_b       15.8321
_cell_length_c       8.4066
_cell_angle_alpha    90
_cell_angle_beta     90
_cell_angle_gamma    90

_space_group_name_H-M_alt    "P 1"
_space_group_IT_number       1

loop_
  _space_group_symop_operation_xyz
  'x, y, z'

loop_
  _atom_site_type_symbol
  _atom_site_label
  _atom_site_symmetry_multiplicity
  _atom_site_fract_x
  _atom_site_fract_y
  _atom_site_fract_z
  _atom_site_occupancy
  Cl  Cl1       1.0  0.27500  0.25000  0.02210  1.0000
  Cl  Cl2       1.0  0.39000  0.62500  0.12800  1.0000
  Cl  Cl3       1.0  0.39000  0.87500  0.12800  1.0000
  Cl  Cl4       1.0  0.95200  0.11300  0.17700  1.0000
  Cl  Cl5       1.0  0.95200  0.38700  0.17700  1.0000
  Cl  Cl6       1.0  0.45200  0.11300  0.32300  1.0000
  Cl  Cl7       1.0  0.45200  0.38700  0.32300  1.0000
  Cl  Cl8       1.0  0.89000  0.62500  0.37200  1.0000
  Cl  Cl9       1.0  0.89000  0.87500  0.37200  1.0000
  Cl  Cl10      1.0  0.77500  0.25000  0.47800  1.0000
  Cl  Cl11      1.0  0.22500  0.75000  0.52200  1.0000
  Cl  Cl12      1.0  0.11000  0.12500  0.62800  1.0000
  Cl  Cl13      1.0  0.11000  0.37500  0.62800  1.0000
  Cl  Cl14      1.0  0.54800  0.61300  0.67700  1.0000
  Cl  Cl15      1.0  0.54800  0.88700  0.67700  1.0000
  Cl  Cl16      1.0  0.04760  0.61300  0.82300  1.0000
  Cl  Cl17      1.0  0.04760  0.88700  0.82300  1.0000
  Cl  Cl18      1.0  0.61000  0.12500  0.87200  1.0000
  Cl  Cl19      1.0  0.61000  0.37500  0.87200  1.0000
  Cl  Cl20      1.0  0.72500  0.75000  0.97800  1.0000
  Pb  Pb1       1.0  0.56600  0.25000  0.14200  1.0000
  Pb  Pb2       1.0  0.06630  0.25000  0.35800  1.0000
  Pb  Pb3       1.0  0.93400  0.75000  0.64200  1.0000
  Pb  Pb4       1.0  0.43400  0.75000  0.85800  1.0000
  Rb  Rb1       1.0  0.73800  0.54600  0.03310  1.0000
  Rb  Rb2       1.0  0.73800  0.95400  0.03310  1.0000
  Rb  Rb3       1.0  0.07880  0.75000  0.13600  1.0000
  Rb  Rb4       1.0  0.57900  0.75000  0.36400  1.0000
  Rb  Rb5       1.0  0.23800  0.54600  0.46700  1.0000
  Rb  Rb6       1.0  0.23800  0.95400  0.46700  1.0000
  Rb  Rb7       1.0  0.76200  0.04600  0.53300  1.0000
  Rb  Rb8       1.0  0.76200  0.45400  0.53300  1.0000
  Rb  Rb9       1.0  0.42100  0.25000  0.63600  1.0000
  Rb  Rb10      1.0  0.92100  0.25000  0.86400  1.0000
  Rb  Rb11      1.0  0.26200  0.04600  0.96700  1.0000
  Rb  Rb12      1.0  0.26200  0.45400  0.96700  1.0000
