data_image0
_chemical_formula_structural       Cu20Se12Tl4
_chemical_formula_sum              "Cu20 Se12 Tl4"
_cell_length_a       12.895
_cell_length_b       12.895
_cell_length_c       3.95242
_cell_angle_alpha    90
_cell_angle_beta     90
_cell_angle_gamma    90

_space_group_name_H-M_alt    "P 1"
_space_group_IT_number       1

loop_
  _space_group_symop_operation_xyz
  'x, y, z'

loop_
  _atom_site_type_symbol
  _atom_site_label
  _atom_site_symmetry_multiplicity
  _atom_site_fract_x
  _atom_site_fract_y
  _atom_site_fract_z
  _atom_site_occupancy
  Cu  Cu1       1.0  0.39700  0.01230  0.00000  1.0000
  Cu  Cu2       1.0  0.81800  0.18200  0.00000  1.0000
  Cu  Cu3       1.0  0.41800  0.21000  0.00000  1.0000
  Cu  Cu4       1.0  0.01230  0.39700  0.00000  1.0000
  Cu  Cu5       1.0  0.21000  0.41800  0.00000  1.0000
  Cu  Cu6       1.0  0.79000  0.58200  0.00000  1.0000
  Cu  Cu7       1.0  0.98800  0.60300  0.00000  1.0000
  Cu  Cu8       1.0  0.58200  0.79000  0.00000  1.0000
  Cu  Cu9       1.0  0.18200  0.81800  0.00000  1.0000
  Cu  Cu10      1.0  0.60300  0.98800  0.00000  1.0000
  Cu  Cu11      1.0  0.71000  0.08190  0.50000  1.0000
  Cu  Cu12      1.0  0.51200  0.10300  0.50000  1.0000
  Cu  Cu13      1.0  0.91800  0.29000  0.50000  1.0000
  Cu  Cu14      1.0  0.31800  0.31800  0.50000  1.0000
  Cu  Cu15      1.0  0.89700  0.48800  0.50000  1.0000
  Cu  Cu16      1.0  0.10300  0.51200  0.50000  1.0000
  Cu  Cu17      1.0  0.68200  0.68200  0.50000  1.0000
  Cu  Cu18      1.0  0.08190  0.71000  0.50000  1.0000
  Cu  Cu19      1.0  0.48800  0.89700  0.50000  1.0000
  Cu  Cu20      1.0  0.29000  0.91800  0.50000  1.0000
  Se  Se1       1.0  0.61600  0.17700  0.00000  1.0000
  Se  Se2       1.0  0.82300  0.38400  0.00000  1.0000
  Se  Se3       1.0  0.39700  0.39700  0.00000  1.0000
  Se  Se4       1.0  0.60300  0.60300  0.00000  1.0000
  Se  Se5       1.0  0.17700  0.61600  0.00000  1.0000
  Se  Se6       1.0  0.38400  0.82300  0.00000  1.0000
  Se  Se7       1.0  0.89700  0.10300  0.50000  1.0000
  Se  Se8       1.0  0.32300  0.11600  0.50000  1.0000
  Se  Se9       1.0  0.11600  0.32300  0.50000  1.0000
  Se  Se10      1.0  0.88400  0.67700  0.50000  1.0000
  Se  Se11      1.0  0.67700  0.88400  0.50000  1.0000
  Se  Se12      1.0  0.10300  0.89700  0.50000  1.0000
  Tl  Tl1       1.0  0.10600  0.10600  0.00000  1.0000
  Tl  Tl2       1.0  0.89400  0.89400  0.00000  1.0000
  Tl  Tl3       1.0  0.60600  0.39400  0.50000  1.0000
  Tl  Tl4       1.0  0.39400  0.60600  0.50000  1.0000
