data_image0
_chemical_formula_structural       F24Mn6Na2Rb4
_chemical_formula_sum              "F24 Mn6 Na2 Rb4"
_cell_length_a       6.84097
_cell_length_b       7.30717
_cell_length_c       9.87489
_cell_angle_alpha    90.1035
_cell_angle_beta     85.0384
_cell_angle_gamma    89.4374

_space_group_name_H-M_alt    "P 1"
_space_group_IT_number       1

loop_
  _space_group_symop_operation_xyz
  'x, y, z'

loop_
  _atom_site_type_symbol
  _atom_site_label
  _atom_site_symmetry_multiplicity
  _atom_site_fract_x
  _atom_site_fract_y
  _atom_site_fract_z
  _atom_site_occupancy
  F   F1        1.0  0.40900  0.76200  0.01590  1.0000
  F   F2        1.0  0.73400  0.55200  0.07830  1.0000
  F   F3        1.0  0.75500  0.94300  0.09710  1.0000
  F   F4        1.0  0.05540  0.71900  0.12000  1.0000
  F   F5        1.0  0.36300  0.05440  0.16600  1.0000
  F   F6        1.0  0.37700  0.46200  0.17100  1.0000
  F   F7        1.0  0.95400  0.94700  0.31900  1.0000
  F   F8        1.0  0.87500  0.54200  0.32000  1.0000
  F   F9        1.0  0.58700  0.77800  0.32200  1.0000
  F   F10       1.0  0.24500  0.57200  0.43200  1.0000
  F   F11       1.0  0.06210  0.26300  0.43200  1.0000
  F   F12       1.0  0.26200  0.94900  0.45800  1.0000
  F   F13       1.0  0.73800  0.05090  0.54200  1.0000
  F   F14       1.0  0.93800  0.73700  0.56800  1.0000
  F   F15       1.0  0.75500  0.42800  0.56800  1.0000
  F   F16       1.0  0.41300  0.22200  0.67800  1.0000
  F   F17       1.0  0.12500  0.45800  0.68000  1.0000
  F   F18       1.0  0.04570  0.05320  0.68100  1.0000
  F   F19       1.0  0.62300  0.53800  0.82900  1.0000
  F   F20       1.0  0.63700  0.94600  0.83400  1.0000
  F   F21       1.0  0.94500  0.28100  0.88000  1.0000
  F   F22       1.0  0.24500  0.05750  0.90300  1.0000
  F   F23       1.0  0.26600  0.44800  0.92200  1.0000
  F   F24       1.0  0.59100  0.23800  0.98400  1.0000
  Mn  Mn1       1.0  0.50000  0.00000  0.00000  1.0000
  Mn  Mn2       1.0  0.50000  0.50000  0.00000  1.0000
  Mn  Mn3       1.0  0.81600  0.74800  0.21400  1.0000
  Mn  Mn4       1.0  0.00000  0.00000  0.50000  1.0000
  Mn  Mn5       1.0  0.00000  0.50000  0.50000  1.0000
  Mn  Mn6       1.0  0.18400  0.25200  0.78600  1.0000
  Na  Na1       1.0  0.29000  0.76900  0.25700  1.0000
  Na  Na2       1.0  0.71000  0.23100  0.74300  1.0000
  Rb  Rb1       1.0  0.01910  0.25900  0.14200  1.0000
  Rb  Rb2       1.0  0.49800  0.25500  0.38700  1.0000
  Rb  Rb3       1.0  0.50200  0.74500  0.61300  1.0000
  Rb  Rb4       1.0  0.98100  0.74100  0.85800  1.0000
