data_image0
_chemical_formula_structural       LiMnO6Ta
_chemical_formula_sum              "Li1 Mn1 O6 Ta1"
_cell_length_a       5.19553
_cell_length_b       5.19553
_cell_length_c       4.85064
_cell_angle_alpha    97.7695
_cell_angle_beta     97.7695
_cell_angle_gamma    123.329

_space_group_name_H-M_alt    "P 1"
_space_group_IT_number       1

loop_
  _space_group_symop_operation_xyz
  'x, y, z'

loop_
  _atom_site_type_symbol
  _atom_site_label
  _atom_site_symmetry_multiplicity
  _atom_site_fract_x
  _atom_site_fract_y
  _atom_site_fract_z
  _atom_site_occupancy
  Li  Li1       1.0  0.37400  0.62600  0.50000  1.0000
  Mn  Mn1       1.0  0.83000  0.17000  0.00000  1.0000
  O   O1        1.0  0.55600  0.92500  0.21800  1.0000
  O   O2        1.0  0.19600  0.22100  0.23200  1.0000
  O   O3        1.0  0.94400  0.55000  0.23700  1.0000
  O   O4        1.0  0.45000  0.05640  0.76300  1.0000
  O   O5        1.0  0.77900  0.80400  0.76800  1.0000
  O   O6        1.0  0.07530  0.44400  0.78200  1.0000
  Ta  Ta1       1.0  0.14200  0.85800  0.00000  1.0000
