data_image0
_chemical_formula_structural       Cs4F24Mn6Na2
_chemical_formula_sum              "Cs4 F24 Mn6 Na2"
_cell_length_a       7.0325
_cell_length_b       7.34837
_cell_length_c       10.1081
_cell_angle_alpha    90.0054
_cell_angle_beta     85.6674
_cell_angle_gamma    89.6977

_space_group_name_H-M_alt    "P 1"
_space_group_IT_number       1

loop_
  _space_group_symop_operation_xyz
  'x, y, z'

loop_
  _atom_site_type_symbol
  _atom_site_label
  _atom_site_symmetry_multiplicity
  _atom_site_fract_x
  _atom_site_fract_y
  _atom_site_fract_z
  _atom_site_occupancy
  Cs  Cs1       1.0  0.98300  0.24900  0.11900  1.0000
  Cs  Cs2       1.0  0.49100  0.24300  0.36200  1.0000
  Cs  Cs3       1.0  0.50900  0.75700  0.63800  1.0000
  Cs  Cs4       1.0  0.01690  0.75100  0.88100  1.0000
  F   F1        1.0  0.45200  0.23700  0.06450  1.0000
  F   F2        1.0  0.26000  0.55300  0.07350  1.0000
  F   F3        1.0  0.26800  0.93400  0.08050  1.0000
  F   F4        1.0  0.60200  0.53900  0.16500  1.0000
  F   F5        1.0  0.64200  0.95200  0.16900  1.0000
  F   F6        1.0  0.92900  0.73100  0.17800  1.0000
  F   F7        1.0  0.13200  0.03430  0.33800  1.0000
  F   F8        1.0  0.14100  0.45400  0.34200  1.0000
  F   F9        1.0  0.46300  0.76800  0.36100  1.0000
  F   F10       1.0  0.76500  0.56500  0.39500  1.0000
  F   F11       1.0  0.78100  0.94300  0.41200  1.0000
  F   F12       1.0  0.09870  0.73700  0.49400  1.0000
  F   F13       1.0  0.90100  0.26300  0.50600  1.0000
  F   F14       1.0  0.21900  0.05740  0.58800  1.0000
  F   F15       1.0  0.23500  0.43500  0.60500  1.0000
  F   F16       1.0  0.53700  0.23200  0.63900  1.0000
  F   F17       1.0  0.85900  0.54600  0.65800  1.0000
  F   F18       1.0  0.86800  0.96600  0.66200  1.0000
  F   F19       1.0  0.07080  0.26900  0.82200  1.0000
  F   F20       1.0  0.35800  0.04760  0.83100  1.0000
  F   F21       1.0  0.39800  0.46100  0.83500  1.0000
  F   F22       1.0  0.73200  0.06630  0.92000  1.0000
  F   F23       1.0  0.74000  0.44700  0.92700  1.0000
  F   F24       1.0  0.54800  0.76300  0.93500  1.0000
  Mn  Mn1       1.0  0.50000  0.00000  0.00000  1.0000
  Mn  Mn2       1.0  0.50000  0.50000  0.00000  1.0000
  Mn  Mn3       1.0  0.70100  0.75100  0.27500  1.0000
  Mn  Mn4       1.0  0.00000  0.00000  0.50000  1.0000
  Mn  Mn5       1.0  0.00000  0.50000  0.50000  1.0000
  Mn  Mn6       1.0  0.29900  0.24900  0.72500  1.0000
  Na  Na1       1.0  0.21100  0.74100  0.25200  1.0000
  Na  Na2       1.0  0.78900  0.25900  0.74800  1.0000
