data_image0
_chemical_formula_structural       Ag4Hg8N4O20
_chemical_formula_sum              "Ag4 Hg8 N4 O20"
_cell_length_a       6.0977
_cell_length_b       6.74265
_cell_length_c       12.5185
_cell_angle_alpha    90
_cell_angle_beta     90
_cell_angle_gamma    89.9997

_space_group_name_H-M_alt    "P 1"
_space_group_IT_number       1

loop_
  _space_group_symop_operation_xyz
  'x, y, z'

loop_
  _atom_site_type_symbol
  _atom_site_label
  _atom_site_symmetry_multiplicity
  _atom_site_fract_x
  _atom_site_fract_y
  _atom_site_fract_z
  _atom_site_occupancy
  Ag  Ag1       1.0  0.78300  0.75000  0.14800  1.0000
  Ag  Ag2       1.0  0.28300  0.75000  0.35200  1.0000
  Ag  Ag3       1.0  0.71700  0.25000  0.64800  1.0000
  Ag  Ag4       1.0  0.21700  0.25000  0.85200  1.0000
  Hg  Hg1       1.0  0.20200  0.50200  0.10400  1.0000
  Hg  Hg2       1.0  0.20200  0.99800  0.10400  1.0000
  Hg  Hg3       1.0  0.70200  0.99800  0.39600  1.0000
  Hg  Hg4       1.0  0.70200  0.50200  0.39600  1.0000
  Hg  Hg5       1.0  0.29800  0.00160  0.60400  1.0000
  Hg  Hg6       1.0  0.29800  0.49800  0.60400  1.0000
  Hg  Hg7       1.0  0.79800  0.00160  0.89600  1.0000
  Hg  Hg8       1.0  0.79800  0.49800  0.89600  1.0000
  N   N1        1.0  0.69500  0.25000  0.14200  1.0000
  N   N2        1.0  0.19500  0.25000  0.35800  1.0000
  N   N3        1.0  0.80500  0.75000  0.64200  1.0000
  N   N4        1.0  0.30500  0.75000  0.85800  1.0000
  O   O1        1.0  0.09470  0.25000  0.02550  1.0000
  O   O2        1.0  0.63200  0.08790  0.10000  1.0000
  O   O3        1.0  0.63200  0.41200  0.10000  1.0000
  O   O4        1.0  0.33600  0.75000  0.17600  1.0000
  O   O5        1.0  0.81900  0.25000  0.22300  1.0000
  O   O6        1.0  0.31900  0.25000  0.27700  1.0000
  O   O7        1.0  0.83600  0.75000  0.32400  1.0000
  O   O8        1.0  0.13200  0.41200  0.40000  1.0000
  O   O9        1.0  0.13200  0.08790  0.40000  1.0000
  O   O10       1.0  0.59500  0.25000  0.47400  1.0000
  O   O11       1.0  0.40500  0.75000  0.52600  1.0000
  O   O12       1.0  0.86800  0.91200  0.60000  1.0000
  O   O13       1.0  0.86800  0.58800  0.60000  1.0000
  O   O14       1.0  0.16400  0.25000  0.67600  1.0000
  O   O15       1.0  0.68100  0.75000  0.72300  1.0000
  O   O16       1.0  0.18100  0.75000  0.77700  1.0000
  O   O17       1.0  0.66400  0.25000  0.82400  1.0000
  O   O18       1.0  0.36800  0.58800  0.90000  1.0000
  O   O19       1.0  0.36800  0.91200  0.90000  1.0000
  O   O20       1.0  0.90500  0.75000  0.97400  1.0000
