data_image0
_chemical_formula_structural       Gd8Ge16Ti12
_chemical_formula_sum              "Gd8 Ge16 Ti12"
_cell_length_a       7.04669
_cell_length_b       13.4922
_cell_length_c       7.19543
_cell_angle_alpha    90
_cell_angle_beta     90
_cell_angle_gamma    90

_space_group_name_H-M_alt    "P 1"
_space_group_IT_number       1

loop_
  _space_group_symop_operation_xyz
  'x, y, z'

loop_
  _atom_site_type_symbol
  _atom_site_label
  _atom_site_symmetry_multiplicity
  _atom_site_fract_x
  _atom_site_fract_y
  _atom_site_fract_z
  _atom_site_occupancy
  Gd  Gd1       1.0  0.99900  0.59500  0.17300  1.0000
  Gd  Gd2       1.0  0.99900  0.90500  0.17300  1.0000
  Gd  Gd3       1.0  0.49900  0.59500  0.32700  1.0000
  Gd  Gd4       1.0  0.49900  0.90500  0.32700  1.0000
  Gd  Gd5       1.0  0.50100  0.09500  0.67300  1.0000
  Gd  Gd6       1.0  0.50100  0.40500  0.67300  1.0000
  Gd  Gd7       1.0  0.00119  0.09500  0.82700  1.0000
  Gd  Gd8       1.0  0.00119  0.40500  0.82700  1.0000
  Ge  Ge1       1.0  0.33200  0.04540  0.04470  1.0000
  Ge  Ge2       1.0  0.33200  0.45500  0.04470  1.0000
  Ge  Ge3       1.0  0.30200  0.75000  0.13300  1.0000
  Ge  Ge4       1.0  0.96700  0.25000  0.13400  1.0000
  Ge  Ge5       1.0  0.46700  0.25000  0.36600  1.0000
  Ge  Ge6       1.0  0.80200  0.75000  0.36700  1.0000
  Ge  Ge7       1.0  0.83200  0.04540  0.45500  1.0000
  Ge  Ge8       1.0  0.83200  0.45500  0.45500  1.0000
  Ge  Ge9       1.0  0.16800  0.54500  0.54500  1.0000
  Ge  Ge10      1.0  0.16800  0.95500  0.54500  1.0000
  Ge  Ge11      1.0  0.19800  0.25000  0.63300  1.0000
  Ge  Ge12      1.0  0.53300  0.75000  0.63400  1.0000
  Ge  Ge13      1.0  0.03310  0.75000  0.86600  1.0000
  Ge  Ge14      1.0  0.69800  0.25000  0.86700  1.0000
  Ge  Ge15      1.0  0.66800  0.54500  0.95500  1.0000
  Ge  Ge16      1.0  0.66800  0.95500  0.95500  1.0000
  Ti  Ti1       1.0  0.34000  0.25000  0.01010  1.0000
  Ti  Ti2       1.0  0.66400  0.12800  0.16700  1.0000
  Ti  Ti3       1.0  0.66400  0.37200  0.16700  1.0000
  Ti  Ti4       1.0  0.16400  0.12800  0.33300  1.0000
  Ti  Ti5       1.0  0.16400  0.37200  0.33300  1.0000
  Ti  Ti6       1.0  0.84000  0.25000  0.49000  1.0000
  Ti  Ti7       1.0  0.16000  0.75000  0.51000  1.0000
  Ti  Ti8       1.0  0.83600  0.62800  0.66700  1.0000
  Ti  Ti9       1.0  0.83600  0.87200  0.66700  1.0000
  Ti  Ti10      1.0  0.33600  0.62800  0.83300  1.0000
  Ti  Ti11      1.0  0.33600  0.87200  0.83300  1.0000
  Ti  Ti12      1.0  0.66000  0.75000  0.99000  1.0000
