data_image0
_chemical_formula_structural       Ni19P12Yb5
_chemical_formula_sum              "Ni19 P12 Yb5"
_cell_length_a       3.67837
_cell_length_b       9.11803
_cell_length_c       14.3568
_cell_angle_alpha    103.754
_cell_angle_beta     97.3601
_cell_angle_gamma    90

_space_group_name_H-M_alt    "P 1"
_space_group_IT_number       1

loop_
  _space_group_symop_operation_xyz
  'x, y, z'

loop_
  _atom_site_type_symbol
  _atom_site_label
  _atom_site_symmetry_multiplicity
  _atom_site_fract_x
  _atom_site_fract_y
  _atom_site_fract_z
  _atom_site_occupancy
  Ni  Ni1       1.0  0.50000  0.50000  0.00000  1.0000
  Ni  Ni2       1.0  0.02740  0.33500  0.05470  1.0000
  Ni  Ni3       1.0  0.56600  0.19900  0.13200  1.0000
  Ni  Ni4       1.0  0.58700  0.94800  0.17500  1.0000
  Ni  Ni5       1.0  0.11700  0.38700  0.23500  1.0000
  Ni  Ni6       1.0  0.65100  0.59300  0.30200  1.0000
  Ni  Ni7       1.0  0.15700  0.98900  0.31400  1.0000
  Ni  Ni8       1.0  0.20500  0.77400  0.41000  1.0000
  Ni  Ni9       1.0  0.72000  0.00762  0.44000  1.0000
  Ni  Ni10      1.0  0.74200  0.59300  0.48400  1.0000
  Ni  Ni11      1.0  0.25800  0.40700  0.51600  1.0000
  Ni  Ni12      1.0  0.28000  0.99200  0.56000  1.0000
  Ni  Ni13      1.0  0.79500  0.22600  0.59000  1.0000
  Ni  Ni14      1.0  0.84300  0.01060  0.68600  1.0000
  Ni  Ni15      1.0  0.34900  0.40700  0.69800  1.0000
  Ni  Ni16      1.0  0.88300  0.61300  0.76500  1.0000
  Ni  Ni17      1.0  0.41300  0.05240  0.82500  1.0000
  Ni  Ni18      1.0  0.43400  0.80100  0.86800  1.0000
  Ni  Ni19      1.0  0.97300  0.66500  0.94500  1.0000
  P   P1        1.0  0.51500  0.76900  0.03030  1.0000
  P   P2        1.0  0.57500  0.44800  0.15100  1.0000
  P   P3        1.0  0.10100  0.12200  0.20300  1.0000
  P   P4        1.0  0.65100  0.83700  0.30100  1.0000
  P   P5        1.0  0.19400  0.51900  0.38800  1.0000
  P   P6        1.0  0.23300  0.15800  0.46600  1.0000
  P   P7        1.0  0.76700  0.84200  0.53400  1.0000
  P   P8        1.0  0.80600  0.48100  0.61200  1.0000
  P   P9        1.0  0.34900  0.16300  0.69900  1.0000
  P   P10       1.0  0.89900  0.87800  0.79700  1.0000
  P   P11       1.0  0.42500  0.55200  0.84900  1.0000
  P   P12       1.0  0.48500  0.23100  0.97000  1.0000
  Yb  Yb1       1.0  0.00000  0.00000  0.00000  1.0000
  Yb  Yb2       1.0  0.07860  0.68300  0.15700  1.0000
  Yb  Yb3       1.0  0.67500  0.26900  0.35100  1.0000
  Yb  Yb4       1.0  0.32500  0.73100  0.64900  1.0000
  Yb  Yb5       1.0  0.92100  0.31700  0.84300  1.0000
