data_image0
_chemical_formula_structural       MnNiO6
_chemical_formula_sum              "Mn1 Ni1 O6"
_cell_length_a       4.75966
_cell_length_b       4.75966
_cell_length_c       4.46723
_cell_angle_alpha    100.796
_cell_angle_beta     100.796
_cell_angle_gamma    119.971

_space_group_name_H-M_alt    "P 1"
_space_group_IT_number       1

loop_
  _space_group_symop_operation_xyz
  'x, y, z'

loop_
  _atom_site_type_symbol
  _atom_site_label
  _atom_site_symmetry_multiplicity
  _atom_site_fract_x
  _atom_site_fract_y
  _atom_site_fract_z
  _atom_site_occupancy
  Mn  Mn1       1.0  0.16700  0.83300  0.00000  1.0000
  Ni  Ni1       1.0  0.83300  0.16700  0.00000  1.0000
  O   O1        1.0  0.24000  0.24900  0.23400  1.0000
  O   O2        1.0  0.92000  0.57600  0.23800  1.0000
  O   O3        1.0  0.59400  0.92800  0.23800  1.0000
  O   O4        1.0  0.07230  0.40600  0.76200  1.0000
  O   O5        1.0  0.42400  0.07980  0.76200  1.0000
  O   O6        1.0  0.75100  0.76000  0.76600  1.0000
