data_image0
_chemical_formula_structural       Cs2Mn2O24P8
_chemical_formula_sum              "Cs2 Mn2 O24 P8"
_cell_length_a       5.18883
_cell_length_b       13.5159
_cell_length_c       7.36986
_cell_angle_alpha    90.0002
_cell_angle_beta     102.044
_cell_angle_gamma    89.9995

_space_group_name_H-M_alt    "P 1"
_space_group_IT_number       1

loop_
  _space_group_symop_operation_xyz
  'x, y, z'

loop_
  _atom_site_type_symbol
  _atom_site_label
  _atom_site_symmetry_multiplicity
  _atom_site_fract_x
  _atom_site_fract_y
  _atom_site_fract_z
  _atom_site_occupancy
  Cs  Cs1       1.0  0.38000  0.00000  0.16600  1.0000
  Cs  Cs2       1.0  0.62000  0.50000  0.83400  1.0000
  Mn  Mn1       1.0  0.49900  0.26500  0.48600  1.0000
  Mn  Mn2       1.0  0.50100  0.76500  0.51400  1.0000
  O   O1        1.0  0.94200  0.22800  0.05140  1.0000
  O   O2        1.0  0.83100  0.87700  0.07270  1.0000
  O   O3        1.0  0.34600  0.58800  0.09100  1.0000
  O   O4        1.0  0.97000  0.39000  0.21100  1.0000
  O   O5        1.0  0.38000  0.27900  0.22300  1.0000
  O   O6        1.0  0.96400  0.65200  0.23300  1.0000
  O   O7        1.0  0.36500  0.76200  0.24900  1.0000
  O   O8        1.0  0.77600  0.18100  0.43400  1.0000
  O   O9        1.0  0.78300  0.84400  0.46100  1.0000
  O   O10       1.0  0.10700  0.51500  0.46200  1.0000
  O   O11       1.0  0.73400  0.39700  0.47800  1.0000
  O   O12       1.0  0.26100  0.13200  0.49500  1.0000
  O   O13       1.0  0.73900  0.63200  0.50500  1.0000
  O   O14       1.0  0.26600  0.89700  0.52200  1.0000
  O   O15       1.0  0.89300  0.01480  0.53800  1.0000
  O   O16       1.0  0.21700  0.34400  0.53900  1.0000
  O   O17       1.0  0.22500  0.68100  0.56600  1.0000
  O   O18       1.0  0.63500  0.26200  0.75100  1.0000
  O   O19       1.0  0.03610  0.15200  0.76700  1.0000
  O   O20       1.0  0.62000  0.77900  0.77700  1.0000
  O   O21       1.0  0.02970  0.89000  0.78900  1.0000
  O   O22       1.0  0.65400  0.08810  0.90900  1.0000
  O   O23       1.0  0.16900  0.37700  0.92700  1.0000
  O   O24       1.0  0.05770  0.72800  0.94900  1.0000
  P   P1        1.0  0.13900  0.32200  0.09380  1.0000
  P   P2        1.0  0.21500  0.67900  0.13500  1.0000
  P   P3        1.0  0.99600  0.40500  0.42800  1.0000
  P   P4        1.0  0.99600  0.62500  0.44600  1.0000
  P   P5        1.0  0.00362  0.12500  0.55400  1.0000
  P   P6        1.0  0.00409  0.90500  0.57200  1.0000
  P   P7        1.0  0.78500  0.17900  0.86500  1.0000
  P   P8        1.0  0.86100  0.82200  0.90600  1.0000
