data_image0
_chemical_formula_structural       Ca4H4Mn4O20Si4
_chemical_formula_sum              "Ca4 H4 Mn4 O20 Si4"
_cell_length_a       5.84905
_cell_length_b       7.18262
_cell_length_c       8.68076
_cell_angle_alpha    90
_cell_angle_beta     90
_cell_angle_gamma    90

_space_group_name_H-M_alt    "P 1"
_space_group_IT_number       1

loop_
  _space_group_symop_operation_xyz
  'x, y, z'

loop_
  _atom_site_type_symbol
  _atom_site_label
  _atom_site_symmetry_multiplicity
  _atom_site_fract_x
  _atom_site_fract_y
  _atom_site_fract_z
  _atom_site_occupancy
  Ca  Ca1       1.0  0.47800  0.62600  0.17500  1.0000
  Ca  Ca2       1.0  0.52200  0.12600  0.32500  1.0000
  Ca  Ca3       1.0  0.02210  0.37400  0.67500  1.0000
  Ca  Ca4       1.0  0.97800  0.87400  0.82500  1.0000
  H   H1        1.0  0.02850  0.56200  0.01670  1.0000
  H   H2        1.0  0.97200  0.06200  0.48300  1.0000
  H   H3        1.0  0.47200  0.43800  0.51700  1.0000
  H   H4        1.0  0.52800  0.93800  0.98300  1.0000
  Mn  Mn1       1.0  0.24700  0.24200  0.00358  1.0000
  Mn  Mn2       1.0  0.75300  0.74200  0.49600  1.0000
  Mn  Mn3       1.0  0.25300  0.75800  0.50400  1.0000
  Mn  Mn4       1.0  0.74700  0.25800  0.99600  1.0000
  O   O1        1.0  0.08160  0.69800  0.05980  1.0000
  O   O2        1.0  0.50400  0.09980  0.06010  1.0000
  O   O3        1.0  0.98900  0.04490  0.06420  1.0000
  O   O4        1.0  0.75900  0.37800  0.20800  1.0000
  O   O5        1.0  0.23000  0.33900  0.22500  1.0000
  O   O6        1.0  0.77000  0.83900  0.27500  1.0000
  O   O7        1.0  0.24100  0.87800  0.29200  1.0000
  O   O8        1.0  0.01140  0.54500  0.43600  1.0000
  O   O9        1.0  0.49600  0.60000  0.44000  1.0000
  O   O10       1.0  0.91800  0.19800  0.44000  1.0000
  O   O11       1.0  0.41800  0.30200  0.56000  1.0000
  O   O12       1.0  0.99600  0.90000  0.56000  1.0000
  O   O13       1.0  0.51100  0.95500  0.56400  1.0000
  O   O14       1.0  0.74100  0.62200  0.70800  1.0000
  O   O15       1.0  0.27000  0.66100  0.72500  1.0000
  O   O16       1.0  0.73000  0.16100  0.77500  1.0000
  O   O17       1.0  0.25900  0.12200  0.79200  1.0000
  O   O18       1.0  0.48900  0.45500  0.93600  1.0000
  O   O19       1.0  0.00358  0.40000  0.94000  1.0000
  O   O20       1.0  0.58200  0.80200  0.94000  1.0000
  Si  Si1       1.0  0.01150  0.86700  0.18200  1.0000
  Si  Si2       1.0  0.98800  0.36700  0.31800  1.0000
  Si  Si3       1.0  0.48900  0.13300  0.68200  1.0000
  Si  Si4       1.0  0.51100  0.63300  0.81800  1.0000
