data_image0
_chemical_formula_structural       Er8Si16Ti12
_chemical_formula_sum              "Er8 Si16 Ti12"
_cell_length_a       7.017
_cell_length_b       7.017
_cell_length_c       12.888
_cell_angle_alpha    90
_cell_angle_beta     90
_cell_angle_gamma    90

_space_group_name_H-M_alt    "P 1"
_space_group_IT_number       1

loop_
  _space_group_symop_operation_xyz
  'x, y, z'

loop_
  _atom_site_type_symbol
  _atom_site_label
  _atom_site_symmetry_multiplicity
  _atom_site_fract_x
  _atom_site_fract_y
  _atom_site_fract_z
  _atom_site_occupancy
  Er  Er1       1.0  0.99800  0.65900  0.03350  1.0000
  Er  Er2       1.0  0.50200  0.15900  0.21700  1.0000
  Er  Er3       1.0  0.84100  0.49800  0.28300  1.0000
  Er  Er4       1.0  0.34100  0.00192  0.46700  1.0000
  Er  Er5       1.0  0.00192  0.34100  0.53300  1.0000
  Er  Er6       1.0  0.49800  0.84100  0.71700  1.0000
  Er  Er7       1.0  0.15900  0.50200  0.78300  1.0000
  Er  Er8       1.0  0.65900  0.99800  0.96700  1.0000
  Si  Si1       1.0  0.29200  0.95400  0.06470  1.0000
  Si  Si2       1.0  0.70300  0.36800  0.06630  1.0000
  Si  Si3       1.0  0.79700  0.86800  0.18400  1.0000
  Si  Si4       1.0  0.20800  0.45400  0.18500  1.0000
  Si  Si5       1.0  0.54600  0.79200  0.31500  1.0000
  Si  Si6       1.0  0.13200  0.20300  0.31600  1.0000
  Si  Si7       1.0  0.63200  0.29700  0.43400  1.0000
  Si  Si8       1.0  0.04640  0.70800  0.43500  1.0000
  Si  Si9       1.0  0.70800  0.04640  0.56500  1.0000
  Si  Si10      1.0  0.29700  0.63200  0.56600  1.0000
  Si  Si11      1.0  0.20300  0.13200  0.68400  1.0000
  Si  Si12      1.0  0.79200  0.54600  0.68500  1.0000
  Si  Si13      1.0  0.45400  0.20800  0.81500  1.0000
  Si  Si14      1.0  0.86800  0.79700  0.81600  1.0000
  Si  Si15      1.0  0.36800  0.70300  0.93400  1.0000
  Si  Si16      1.0  0.95400  0.29200  0.93500  1.0000
  Ti  Ti1       1.0  0.32700  0.32700  0.00000  1.0000
  Ti  Ti2       1.0  0.00726  0.15200  0.12400  1.0000
  Ti  Ti3       1.0  0.49300  0.65200  0.12600  1.0000
  Ti  Ti4       1.0  0.17300  0.82700  0.25000  1.0000
  Ti  Ti5       1.0  0.34800  0.50700  0.37400  1.0000
  Ti  Ti6       1.0  0.84800  0.99300  0.37600  1.0000
  Ti  Ti7       1.0  0.67300  0.67300  0.50000  1.0000
  Ti  Ti8       1.0  0.99300  0.84800  0.62400  1.0000
  Ti  Ti9       1.0  0.50700  0.34800  0.62600  1.0000
  Ti  Ti10      1.0  0.82700  0.17300  0.75000  1.0000
  Ti  Ti11      1.0  0.65200  0.49300  0.87400  1.0000
  Ti  Ti12      1.0  0.15200  0.00726  0.87600  1.0000
