data_image0
_chemical_formula_structural       C4Cl12N12S8
_chemical_formula_sum              "C4 Cl12 N12 S8"
_cell_length_a       7.17877
_cell_length_b       9.05139
_cell_length_c       11.1873
_cell_angle_alpha    84.8933
_cell_angle_beta     78.8926
_cell_angle_gamma    77.2936

_space_group_name_H-M_alt    "P 1"
_space_group_IT_number       1

loop_
  _space_group_symop_operation_xyz
  'x, y, z'

loop_
  _atom_site_type_symbol
  _atom_site_label
  _atom_site_symmetry_multiplicity
  _atom_site_fract_x
  _atom_site_fract_y
  _atom_site_fract_z
  _atom_site_occupancy
  C   C1        1.0  0.73700  0.90400  0.17500  1.0000
  C   C2        1.0  0.25100  0.67800  0.37400  1.0000
  C   C3        1.0  0.74900  0.32200  0.62600  1.0000
  C   C4        1.0  0.26300  0.09640  0.82500  1.0000
  Cl  Cl1       1.0  0.22600  0.73400  0.00224  1.0000
  Cl  Cl2       1.0  0.14000  0.09700  0.17300  1.0000
  Cl  Cl3       1.0  0.64500  0.03280  0.28600  1.0000
  Cl  Cl4       1.0  0.72800  0.41400  0.29800  1.0000
  Cl  Cl5       1.0  0.17300  0.85200  0.43900  1.0000
  Cl  Cl6       1.0  0.34300  0.26800  0.48800  1.0000
  Cl  Cl7       1.0  0.65700  0.73200  0.51200  1.0000
  Cl  Cl8       1.0  0.82700  0.14800  0.56100  1.0000
  Cl  Cl9       1.0  0.27200  0.58600  0.70200  1.0000
  Cl  Cl10      1.0  0.35500  0.96700  0.71400  1.0000
  Cl  Cl11      1.0  0.86000  0.90300  0.82700  1.0000
  Cl  Cl12      1.0  0.77400  0.26600  0.99800  1.0000
  N   N1        1.0  0.82900  0.65000  0.01810  1.0000
  N   N2        1.0  0.64400  0.92800  0.08120  1.0000
  N   N3        1.0  0.88500  0.79600  0.20000  1.0000
  N   N4        1.0  0.33300  0.40800  0.23600  1.0000
  N   N5        1.0  0.40200  0.67200  0.28400  1.0000
  N   N6        1.0  0.14400  0.57800  0.42100  1.0000
  N   N7        1.0  0.85600  0.42200  0.57900  1.0000
  N   N8        1.0  0.59800  0.32800  0.71600  1.0000
  N   N9        1.0  0.66700  0.59200  0.76400  1.0000
  N   N10       1.0  0.11500  0.20400  0.80000  1.0000
  N   N11       1.0  0.35600  0.07210  0.91900  1.0000
  N   N12       1.0  0.17100  0.35000  0.98200  1.0000
  S   S1        1.0  0.31300  0.19500  0.02300  1.0000
  S   S2        1.0  0.97200  0.65700  0.11100  1.0000
  S   S3        1.0  0.48500  0.51900  0.20900  1.0000
  S   S4        1.0  0.18400  0.41200  0.36500  1.0000
  S   S5        1.0  0.81600  0.58800  0.63500  1.0000
  S   S6        1.0  0.51500  0.48100  0.79100  1.0000
  S   S7        1.0  0.02760  0.34300  0.88900  1.0000
  S   S8        1.0  0.68700  0.80500  0.97700  1.0000
