data_image0
_chemical_formula_structural       C8Cl12N12S4
_chemical_formula_sum              "C8 Cl12 N12 S4"
_cell_length_a       11.9441
_cell_length_b       7.47258
_cell_length_c       7.5275
_cell_angle_alpha    90
_cell_angle_beta     97.1577
_cell_angle_gamma    90

_space_group_name_H-M_alt    "P 1"
_space_group_IT_number       1

loop_
  _space_group_symop_operation_xyz
  'x, y, z'

loop_
  _atom_site_type_symbol
  _atom_site_label
  _atom_site_symmetry_multiplicity
  _atom_site_fract_x
  _atom_site_fract_y
  _atom_site_fract_z
  _atom_site_occupancy
  C   C1        1.0  0.24000  0.26300  0.09940  1.0000
  C   C2        1.0  0.15700  0.52900  0.14800  1.0000
  C   C3        1.0  0.84300  0.02900  0.35200  1.0000
  C   C4        1.0  0.76000  0.76300  0.40100  1.0000
  C   C5        1.0  0.24000  0.23700  0.59900  1.0000
  C   C6        1.0  0.15700  0.97100  0.64800  1.0000
  C   C7        1.0  0.84300  0.47100  0.85200  1.0000
  C   C8        1.0  0.76000  0.73700  0.90100  1.0000
  Cl  Cl1       1.0  0.22900  0.03360  0.10100  1.0000
  Cl  Cl2       1.0  0.04180  0.63600  0.21400  1.0000
  Cl  Cl3       1.0  0.54500  0.07260  0.21900  1.0000
  Cl  Cl4       1.0  0.45500  0.57300  0.28100  1.0000
  Cl  Cl5       1.0  0.95800  0.13600  0.28600  1.0000
  Cl  Cl6       1.0  0.77100  0.53400  0.39900  1.0000
  Cl  Cl7       1.0  0.22900  0.46600  0.60100  1.0000
  Cl  Cl8       1.0  0.04180  0.86400  0.71400  1.0000
  Cl  Cl9       1.0  0.54500  0.42700  0.71900  1.0000
  Cl  Cl10      1.0  0.45500  0.92700  0.78100  1.0000
  Cl  Cl11      1.0  0.95800  0.36400  0.78600  1.0000
  Cl  Cl12      1.0  0.77100  0.96600  0.89900  1.0000
  N   N1        1.0  0.32600  0.32600  0.02230  1.0000
  N   N2        1.0  0.22900  0.63500  0.07770  1.0000
  N   N3        1.0  0.15900  0.35100  0.17100  1.0000
  N   N4        1.0  0.84100  0.85100  0.32900  1.0000
  N   N5        1.0  0.77100  0.13500  0.42200  1.0000
  N   N6        1.0  0.67400  0.82600  0.47800  1.0000
  N   N7        1.0  0.32600  0.17400  0.52200  1.0000
  N   N8        1.0  0.22900  0.86500  0.57800  1.0000
  N   N9        1.0  0.15900  0.14900  0.67100  1.0000
  N   N10       1.0  0.84100  0.64900  0.82900  1.0000
  N   N11       1.0  0.77100  0.36500  0.92200  1.0000
  N   N12       1.0  0.67400  0.67400  0.97800  1.0000
  S   S1        1.0  0.34500  0.54100  0.03260  1.0000
  S   S2        1.0  0.65500  0.04050  0.46700  1.0000
  S   S3        1.0  0.34500  0.95900  0.53300  1.0000
  S   S4        1.0  0.65500  0.45900  0.96700  1.0000
