data_image0
_chemical_formula_structural       Al4B4O14Sr2
_chemical_formula_sum              "Al4 B4 O14 Sr2"
_cell_length_a       4.90526
_cell_length_b       4.90526
_cell_length_c       16.1289
_cell_angle_alpha    98.7466
_cell_angle_beta     98.7466
_cell_angle_gamma    60

_space_group_name_H-M_alt    "P 1"
_space_group_IT_number       1

loop_
  _space_group_symop_operation_xyz
  'x, y, z'

loop_
  _atom_site_type_symbol
  _atom_site_label
  _atom_site_symmetry_multiplicity
  _atom_site_fract_x
  _atom_site_fract_y
  _atom_site_fract_z
  _atom_site_occupancy
  Al  Al1       1.0  0.71500  0.71500  0.14500  1.0000
  Al  Al2       1.0  0.78500  0.78500  0.35500  1.0000
  Al  Al3       1.0  0.21500  0.21500  0.64500  1.0000
  Al  Al4       1.0  0.28500  0.28500  0.85500  1.0000
  B   B1        1.0  0.36700  0.36700  0.10200  1.0000
  B   B2        1.0  0.13300  0.13300  0.39800  1.0000
  B   B3        1.0  0.86700  0.86700  0.60200  1.0000
  B   B4        1.0  0.63300  0.63300  0.89800  1.0000
  O   O1        1.0  0.42100  0.06260  0.09790  1.0000
  O   O2        1.0  0.61400  0.42100  0.09790  1.0000
  O   O3        1.0  0.06260  0.61400  0.09790  1.0000
  O   O4        1.0  0.75000  0.75000  0.25000  1.0000
  O   O5        1.0  0.43700  0.07910  0.40200  1.0000
  O   O6        1.0  0.88600  0.43700  0.40200  1.0000
  O   O7        1.0  0.07910  0.88600  0.40200  1.0000
  O   O8        1.0  0.92100  0.11400  0.59800  1.0000
  O   O9        1.0  0.11400  0.56300  0.59800  1.0000
  O   O10       1.0  0.56300  0.92100  0.59800  1.0000
  O   O11       1.0  0.25000  0.25000  0.75000  1.0000
  O   O12       1.0  0.93700  0.38600  0.90200  1.0000
  O   O13       1.0  0.38600  0.57900  0.90200  1.0000
  O   O14       1.0  0.57900  0.93700  0.90200  1.0000
  Sr  Sr1       1.0  0.00000  0.00000  0.00000  1.0000
  Sr  Sr2       1.0  0.50000  0.50000  0.50000  1.0000
