data_image0
_chemical_formula_structural       F6La6O18Si6
_chemical_formula_sum              "F6 La6 O18 Si6"
_cell_length_a       7.0252
_cell_length_b       7.0252
_cell_length_c       10.8234
_cell_angle_alpha    90
_cell_angle_beta     90
_cell_angle_gamma    120

_space_group_name_H-M_alt    "P 1"
_space_group_IT_number       1

loop_
  _space_group_symop_operation_xyz
  'x, y, z'

loop_
  _atom_site_type_symbol
  _atom_site_label
  _atom_site_symmetry_multiplicity
  _atom_site_fract_x
  _atom_site_fract_y
  _atom_site_fract_z
  _atom_site_occupancy
  F   F1        1.0  0.00000  0.00000  0.00000  1.0000
  F   F2        1.0  0.33300  0.66700  0.07880  1.0000
  F   F3        1.0  0.33300  0.66700  0.42100  1.0000
  F   F4        1.0  0.00000  0.00000  0.50000  1.0000
  F   F5        1.0  0.66700  0.33300  0.57900  1.0000
  F   F6        1.0  0.66700  0.33300  0.92100  1.0000
  La  La1       1.0  0.64400  0.00000  0.00000  1.0000
  La  La2       1.0  0.35600  0.35600  0.00000  1.0000
  La  La3       1.0  0.00000  0.64400  0.00000  1.0000
  La  La4       1.0  0.00000  0.64400  0.50000  1.0000
  La  La5       1.0  0.35600  0.35600  0.50000  1.0000
  La  La6       1.0  0.64400  0.00000  0.50000  1.0000
  O   O1        1.0  0.40000  0.07860  0.12200  1.0000
  O   O2        1.0  0.92100  0.32200  0.12200  1.0000
  O   O3        1.0  0.67800  0.60000  0.12200  1.0000
  O   O4        1.0  0.19700  0.23900  0.25000  1.0000
  O   O5        1.0  0.04200  0.80300  0.25000  1.0000
  O   O6        1.0  0.76100  0.95800  0.25000  1.0000
  O   O7        1.0  0.92100  0.32200  0.37800  1.0000
  O   O8        1.0  0.67800  0.60000  0.37800  1.0000
  O   O9        1.0  0.40000  0.07860  0.37800  1.0000
  O   O10       1.0  0.07860  0.40000  0.62200  1.0000
  O   O11       1.0  0.60000  0.67800  0.62200  1.0000
  O   O12       1.0  0.32200  0.92100  0.62200  1.0000
  O   O13       1.0  0.80300  0.04200  0.75000  1.0000
  O   O14       1.0  0.23900  0.19700  0.75000  1.0000
  O   O15       1.0  0.95800  0.76100  0.75000  1.0000
  O   O16       1.0  0.60000  0.67800  0.87800  1.0000
  O   O17       1.0  0.32200  0.92100  0.87800  1.0000
  O   O18       1.0  0.07860  0.40000  0.87800  1.0000
  Si  Si1       1.0  0.27400  0.04680  0.25000  1.0000
  Si  Si2       1.0  0.95300  0.22800  0.25000  1.0000
  Si  Si3       1.0  0.77200  0.72600  0.25000  1.0000
  Si  Si4       1.0  0.04680  0.27400  0.75000  1.0000
  Si  Si5       1.0  0.72600  0.77200  0.75000  1.0000
  Si  Si6       1.0  0.22800  0.95300  0.75000  1.0000
