data_image0
_chemical_formula_structural       Ba4O20Sm8Zn4
_chemical_formula_sum              "Ba4 O20 Sm8 Zn4"
_cell_length_a       7.20171
_cell_length_b       12.5621
_cell_length_c       5.80985
_cell_angle_alpha    90
_cell_angle_beta     90
_cell_angle_gamma    90

_space_group_name_H-M_alt    "P 1"
_space_group_IT_number       1

loop_
  _space_group_symop_operation_xyz
  'x, y, z'

loop_
  _atom_site_type_symbol
  _atom_site_label
  _atom_site_symmetry_multiplicity
  _atom_site_fract_x
  _atom_site_fract_y
  _atom_site_fract_z
  _atom_site_occupancy
  Ba  Ba1       1.0  0.57700  0.40100  0.25000  1.0000
  Ba  Ba2       1.0  0.92300  0.90100  0.25000  1.0000
  Ba  Ba3       1.0  0.07740  0.09860  0.75000  1.0000
  Ba  Ba4       1.0  0.42300  0.59900  0.75000  1.0000
  O   O1        1.0  0.85400  0.27600  0.00390  1.0000
  O   O2        1.0  0.64600  0.77600  0.00390  1.0000
  O   O3        1.0  0.66900  0.06470  0.00543  1.0000
  O   O4        1.0  0.83100  0.56500  0.00543  1.0000
  O   O5        1.0  0.06960  0.09880  0.25000  1.0000
  O   O6        1.0  0.43000  0.59900  0.25000  1.0000
  O   O7        1.0  0.66900  0.06470  0.49500  1.0000
  O   O8        1.0  0.83100  0.56500  0.49500  1.0000
  O   O9        1.0  0.85400  0.27600  0.49600  1.0000
  O   O10       1.0  0.64600  0.77600  0.49600  1.0000
  O   O11       1.0  0.35400  0.22400  0.50400  1.0000
  O   O12       1.0  0.14600  0.72400  0.50400  1.0000
  O   O13       1.0  0.16900  0.43500  0.50500  1.0000
  O   O14       1.0  0.33100  0.93500  0.50500  1.0000
  O   O15       1.0  0.57000  0.40100  0.75000  1.0000
  O   O16       1.0  0.93000  0.90100  0.75000  1.0000
  O   O17       1.0  0.16900  0.43500  0.99500  1.0000
  O   O18       1.0  0.33100  0.93500  0.99500  1.0000
  O   O19       1.0  0.35400  0.22400  0.99600  1.0000
  O   O20       1.0  0.14600  0.72400  0.99600  1.0000
  Sm  Sm1       1.0  0.39900  0.07490  0.25000  1.0000
  Sm  Sm2       1.0  0.11900  0.29300  0.25000  1.0000
  Sm  Sm3       1.0  0.10100  0.57500  0.25000  1.0000
  Sm  Sm4       1.0  0.38100  0.79300  0.25000  1.0000
  Sm  Sm5       1.0  0.61900  0.20700  0.75000  1.0000
  Sm  Sm6       1.0  0.89900  0.42500  0.75000  1.0000
  Sm  Sm7       1.0  0.88100  0.70700  0.75000  1.0000
  Sm  Sm8       1.0  0.60100  0.92500  0.75000  1.0000
  Zn  Zn1       1.0  0.80900  0.15100  0.25000  1.0000
  Zn  Zn2       1.0  0.69100  0.65100  0.25000  1.0000
  Zn  Zn3       1.0  0.30900  0.34900  0.75000  1.0000
  Zn  Zn4       1.0  0.19100  0.84900  0.75000  1.0000
