data_image0
_chemical_formula_structural       Cs4F24K2Mn6
_chemical_formula_sum              "Cs4 F24 K2 Mn6"
_cell_length_a       7.40778
_cell_length_b       7.40778
_cell_length_c       12.0912
_cell_angle_alpha    106.385
_cell_angle_beta     106.385
_cell_angle_gamma    60.0939

_space_group_name_H-M_alt    "P 1"
_space_group_IT_number       1

loop_
  _space_group_symop_operation_xyz
  'x, y, z'

loop_
  _atom_site_type_symbol
  _atom_site_label
  _atom_site_symmetry_multiplicity
  _atom_site_fract_x
  _atom_site_fract_y
  _atom_site_fract_z
  _atom_site_occupancy
  Cs  Cs1       1.0  0.52100  0.08840  0.16900  1.0000
  Cs  Cs2       1.0  0.91200  0.47900  0.33100  1.0000
  Cs  Cs3       1.0  0.08840  0.52100  0.66900  1.0000
  Cs  Cs4       1.0  0.47900  0.91200  0.83100  1.0000
  F   F1        1.0  0.73200  0.59500  0.03710  1.0000
  F   F2        1.0  0.31800  0.79400  0.03840  1.0000
  F   F3        1.0  0.92300  0.82500  0.04480  1.0000
  F   F4        1.0  0.55300  0.47400  0.15200  1.0000
  F   F5        1.0  0.03210  0.12300  0.15400  1.0000
  F   F6        1.0  0.11800  0.47800  0.15500  1.0000
  F   F7        1.0  0.52200  0.88200  0.34500  1.0000
  F   F8        1.0  0.87700  0.96800  0.34600  1.0000
  F   F9        1.0  0.52600  0.44700  0.34800  1.0000
  F   F10       1.0  0.17500  0.07720  0.45500  1.0000
  F   F11       1.0  0.20600  0.68200  0.46200  1.0000
  F   F12       1.0  0.40500  0.26800  0.46300  1.0000
  F   F13       1.0  0.59500  0.73200  0.53700  1.0000
  F   F14       1.0  0.79400  0.31800  0.53800  1.0000
  F   F15       1.0  0.82500  0.92300  0.54500  1.0000
  F   F16       1.0  0.47400  0.55300  0.65200  1.0000
  F   F17       1.0  0.12300  0.03210  0.65400  1.0000
  F   F18       1.0  0.47800  0.11800  0.65500  1.0000
  F   F19       1.0  0.88200  0.52200  0.84500  1.0000
  F   F20       1.0  0.96800  0.87700  0.84600  1.0000
  F   F21       1.0  0.44700  0.52600  0.84800  1.0000
  F   F22       1.0  0.07720  0.17500  0.95500  1.0000
  F   F23       1.0  0.68200  0.20600  0.96200  1.0000
  F   F24       1.0  0.26800  0.40500  0.96300  1.0000
  K   K1        1.0  0.22300  0.77700  0.25000  1.0000
  K   K2        1.0  0.77700  0.22300  0.75000  1.0000
  Mn  Mn1       1.0  0.00000  0.00000  0.00000  1.0000
  Mn  Mn2       1.0  0.00000  0.50000  0.00000  1.0000
  Mn  Mn3       1.0  0.50000  0.50000  0.00000  1.0000
  Mn  Mn4       1.0  0.50000  0.00000  0.50000  1.0000
  Mn  Mn5       1.0  0.50000  0.50000  0.50000  1.0000
  Mn  Mn6       1.0  0.00000  0.00000  0.50000  1.0000
