data_image0
_chemical_formula_structural       O24P4Pb4V4
_chemical_formula_sum              "O24 P4 Pb4 V4"
_cell_length_a       5.45638
_cell_length_b       9.87033
_cell_length_c       8.48712
_cell_angle_alpha    90
_cell_angle_beta     91.1317
_cell_angle_gamma    90

_space_group_name_H-M_alt    "P 1"
_space_group_IT_number       1

loop_
  _space_group_symop_operation_xyz
  'x, y, z'

loop_
  _atom_site_type_symbol
  _atom_site_label
  _atom_site_symmetry_multiplicity
  _atom_site_fract_x
  _atom_site_fract_y
  _atom_site_fract_z
  _atom_site_occupancy
  O   O1        1.0  0.68700  0.92500  0.02600  1.0000
  O   O2        1.0  0.88400  0.42300  0.11300  1.0000
  O   O3        1.0  0.25300  0.83800  0.11900  1.0000
  O   O4        1.0  0.49600  0.27800  0.14000  1.0000
  O   O5        1.0  0.92400  0.13500  0.16900  1.0000
  O   O6        1.0  0.51400  0.52500  0.22400  1.0000
  O   O7        1.0  0.48600  0.02530  0.27600  1.0000
  O   O8        1.0  0.07610  0.63500  0.33100  1.0000
  O   O9        1.0  0.50400  0.77800  0.36000  1.0000
  O   O10       1.0  0.74700  0.33800  0.38100  1.0000
  O   O11       1.0  0.11600  0.92300  0.38700  1.0000
  O   O12       1.0  0.31300  0.42500  0.47400  1.0000
  O   O13       1.0  0.68700  0.57500  0.52600  1.0000
  O   O14       1.0  0.88400  0.07650  0.61300  1.0000
  O   O15       1.0  0.25300  0.66200  0.61900  1.0000
  O   O16       1.0  0.49600  0.22200  0.64000  1.0000
  O   O17       1.0  0.92400  0.36500  0.66900  1.0000
  O   O18       1.0  0.51400  0.97500  0.72400  1.0000
  O   O19       1.0  0.48600  0.47500  0.77600  1.0000
  O   O20       1.0  0.07610  0.86500  0.83100  1.0000
  O   O21       1.0  0.50400  0.72200  0.86000  1.0000
  O   O22       1.0  0.74700  0.16200  0.88100  1.0000
  O   O23       1.0  0.11600  0.57700  0.88700  1.0000
  O   O24       1.0  0.31300  0.07490  0.97400  1.0000
  P   P1        1.0  0.66300  0.39000  0.21300  1.0000
  P   P2        1.0  0.33700  0.89000  0.28700  1.0000
  P   P3        1.0  0.66300  0.11000  0.71300  1.0000
  P   P4        1.0  0.33700  0.61000  0.78700  1.0000
  Pb  Pb1       1.0  0.86200  0.68700  0.07550  1.0000
  Pb  Pb2       1.0  0.13800  0.18700  0.42400  1.0000
  Pb  Pb3       1.0  0.86200  0.81300  0.57600  1.0000
  Pb  Pb4       1.0  0.13800  0.31300  0.92400  1.0000
  V   V1        1.0  0.65600  0.08970  0.08900  1.0000
  V   V2        1.0  0.34400  0.59000  0.41100  1.0000
  V   V3        1.0  0.65600  0.41000  0.58900  1.0000
  V   V4        1.0  0.34400  0.91000  0.91100  1.0000
