data_image0
_chemical_formula_structural       Cs4Mo6O24Te2
_chemical_formula_sum              "Cs4 Mo6 O24 Te2"
_cell_length_a       7.41529
_cell_length_b       7.4153
_cell_length_c       11.9852
_cell_angle_alpha    90
_cell_angle_beta     90
_cell_angle_gamma    120

_space_group_name_H-M_alt    "P 1"
_space_group_IT_number       1

loop_
  _space_group_symop_operation_xyz
  'x, y, z'

loop_
  _atom_site_type_symbol
  _atom_site_label
  _atom_site_symmetry_multiplicity
  _atom_site_fract_x
  _atom_site_fract_y
  _atom_site_fract_z
  _atom_site_occupancy
  Cs  Cs1       1.0  0.33300  0.66700  0.09250  1.0000
  Cs  Cs2       1.0  0.66700  0.33300  0.23500  1.0000
  Cs  Cs3       1.0  0.66700  0.33300  0.59300  1.0000
  Cs  Cs4       1.0  0.33300  0.66700  0.73500  1.0000
  Mo  Mo1       1.0  0.13500  0.33900  0.39600  1.0000
  Mo  Mo2       1.0  0.66100  0.79600  0.39600  1.0000
  Mo  Mo3       1.0  0.20400  0.86500  0.39600  1.0000
  Mo  Mo4       1.0  0.33900  0.20400  0.89600  1.0000
  Mo  Mo5       1.0  0.86500  0.66100  0.89600  1.0000
  Mo  Mo6       1.0  0.79600  0.13500  0.89600  1.0000
  O   O1        1.0  0.79600  0.60900  0.03720  1.0000
  O   O2        1.0  0.39100  0.18700  0.03720  1.0000
  O   O3        1.0  0.81300  0.20400  0.03720  1.0000
  O   O4        1.0  0.11800  0.85700  0.22800  1.0000
  O   O5        1.0  0.14300  0.26000  0.22800  1.0000
  O   O6        1.0  0.74000  0.88200  0.22800  1.0000
  O   O7        1.0  0.08700  0.54700  0.35600  1.0000
  O   O8        1.0  0.45300  0.54000  0.35600  1.0000
  O   O9        1.0  0.46000  0.91300  0.35600  1.0000
  O   O10       1.0  0.87300  0.12500  0.40900  1.0000
  O   O11       1.0  0.25200  0.12700  0.40900  1.0000
  O   O12       1.0  0.87500  0.74800  0.40900  1.0000
  O   O13       1.0  0.20400  0.39100  0.53700  1.0000
  O   O14       1.0  0.60900  0.81300  0.53700  1.0000
  O   O15       1.0  0.18700  0.79600  0.53700  1.0000
  O   O16       1.0  0.88200  0.14300  0.72800  1.0000
  O   O17       1.0  0.85700  0.74000  0.72800  1.0000
  O   O18       1.0  0.26000  0.11800  0.72800  1.0000
  O   O19       1.0  0.54000  0.08700  0.85600  1.0000
  O   O20       1.0  0.91300  0.45300  0.85600  1.0000
  O   O21       1.0  0.54700  0.46000  0.85600  1.0000
  O   O22       1.0  0.12500  0.25200  0.90900  1.0000
  O   O23       1.0  0.12700  0.87500  0.90900  1.0000
  O   O24       1.0  0.74800  0.87300  0.90900  1.0000
  Te  Te1       1.0  0.00000  0.00000  0.15200  1.0000
  Te  Te2       1.0  0.00000  0.00000  0.65200  1.0000
