data_image0
_chemical_formula_structural       Ge16Tb20
_chemical_formula_sum              "Ge16 Tb20"
_cell_length_a       7.68753
_cell_length_b       14.7645
_cell_length_c       7.76773
_cell_angle_alpha    90
_cell_angle_beta     90
_cell_angle_gamma    90

_space_group_name_H-M_alt    "P 1"
_space_group_IT_number       1

loop_
  _space_group_symop_operation_xyz
  'x, y, z'

loop_
  _atom_site_type_symbol
  _atom_site_label
  _atom_site_symmetry_multiplicity
  _atom_site_fract_x
  _atom_site_fract_y
  _atom_site_fract_z
  _atom_site_occupancy
  Ge  Ge1       1.0  0.28000  0.04420  0.03290  1.0000
  Ge  Ge2       1.0  0.28000  0.45600  0.03290  1.0000
  Ge  Ge3       1.0  0.91700  0.25000  0.11600  1.0000
  Ge  Ge4       1.0  0.33200  0.75000  0.13700  1.0000
  Ge  Ge5       1.0  0.83200  0.75000  0.36300  1.0000
  Ge  Ge6       1.0  0.41700  0.25000  0.38400  1.0000
  Ge  Ge7       1.0  0.78000  0.04420  0.46700  1.0000
  Ge  Ge8       1.0  0.78000  0.45600  0.46700  1.0000
  Ge  Ge9       1.0  0.22000  0.54400  0.53300  1.0000
  Ge  Ge10      1.0  0.22000  0.95600  0.53300  1.0000
  Ge  Ge11      1.0  0.58300  0.75000  0.61600  1.0000
  Ge  Ge12      1.0  0.16800  0.25000  0.63700  1.0000
  Ge  Ge13      1.0  0.66800  0.25000  0.86300  1.0000
  Ge  Ge14      1.0  0.08320  0.75000  0.88400  1.0000
  Ge  Ge15      1.0  0.72000  0.54400  0.96700  1.0000
  Ge  Ge16      1.0  0.72000  0.95600  0.96700  1.0000
  Tb  Tb1       1.0  0.28600  0.25000  0.00192  1.0000
  Tb  Tb2       1.0  0.62100  0.11700  0.16000  1.0000
  Tb  Tb3       1.0  0.62100  0.38300  0.16000  1.0000
  Tb  Tb4       1.0  0.02700  0.60100  0.17700  1.0000
  Tb  Tb5       1.0  0.02700  0.89900  0.17700  1.0000
  Tb  Tb6       1.0  0.52700  0.60100  0.32300  1.0000
  Tb  Tb7       1.0  0.52700  0.89900  0.32300  1.0000
  Tb  Tb8       1.0  0.12100  0.11700  0.34000  1.0000
  Tb  Tb9       1.0  0.12100  0.38300  0.34000  1.0000
  Tb  Tb10      1.0  0.78600  0.25000  0.49800  1.0000
  Tb  Tb11      1.0  0.21400  0.75000  0.50200  1.0000
  Tb  Tb12      1.0  0.87900  0.61700  0.66000  1.0000
  Tb  Tb13      1.0  0.87900  0.88300  0.66000  1.0000
  Tb  Tb14      1.0  0.47300  0.10100  0.67700  1.0000
  Tb  Tb15      1.0  0.47300  0.39900  0.67700  1.0000
  Tb  Tb16      1.0  0.97300  0.10100  0.82300  1.0000
  Tb  Tb17      1.0  0.97300  0.39900  0.82300  1.0000
  Tb  Tb18      1.0  0.37900  0.61700  0.84000  1.0000
  Tb  Tb19      1.0  0.37900  0.88300  0.84000  1.0000
  Tb  Tb20      1.0  0.71400  0.75000  0.99800  1.0000
