data_image0
_chemical_formula_structural       FeLiMnO6
_chemical_formula_sum              "Fe1 Li1 Mn1 O6"
_cell_length_a       4.83901
_cell_length_b       4.83901
_cell_length_c       5.03381
_cell_angle_alpha    103.026
_cell_angle_beta     103.026
_cell_angle_gamma    119.923

_space_group_name_H-M_alt    "P 1"
_space_group_IT_number       1

loop_
  _space_group_symop_operation_xyz
  'x, y, z'

loop_
  _atom_site_type_symbol
  _atom_site_label
  _atom_site_symmetry_multiplicity
  _atom_site_fract_x
  _atom_site_fract_y
  _atom_site_fract_z
  _atom_site_occupancy
  Fe  Fe1       1.0  0.83600  0.16400  0.00000  1.0000
  Li  Li1       1.0  0.00000  0.00000  0.50000  1.0000
  Mn  Mn1       1.0  0.16800  0.83200  0.00000  1.0000
  O   O1        1.0  0.95600  0.60200  0.22500  1.0000
  O   O2        1.0  0.61000  0.96200  0.22700  1.0000
  O   O3        1.0  0.22900  0.23500  0.23900  1.0000
  O   O4        1.0  0.76500  0.77100  0.76100  1.0000
  O   O5        1.0  0.03840  0.39000  0.77300  1.0000
  O   O6        1.0  0.39800  0.04420  0.77500  1.0000
