data_image0
_chemical_formula_structural       K2O24P8Sm2
_chemical_formula_sum              "K2 O24 P8 Sm2"
_cell_length_a       7.23856
_cell_length_b       7.23856
_cell_length_c       10.4856
_cell_angle_alpha    101.018
_cell_angle_beta     101.018
_cell_angle_gamma    115.019

_space_group_name_H-M_alt    "P 1"
_space_group_IT_number       1

loop_
  _space_group_symop_operation_xyz
  'x, y, z'

loop_
  _atom_site_type_symbol
  _atom_site_label
  _atom_site_symmetry_multiplicity
  _atom_site_fract_x
  _atom_site_fract_y
  _atom_site_fract_z
  _atom_site_occupancy
  K   K1        1.0  0.31900  0.68100  0.25000  1.0000
  K   K2        1.0  0.68100  0.31900  0.75000  1.0000
  O   O1        1.0  0.33700  0.36400  0.07770  1.0000
  O   O2        1.0  0.03810  0.78300  0.08040  1.0000
  O   O3        1.0  0.86100  0.01220  0.08970  1.0000
  O   O4        1.0  0.80800  0.33100  0.09430  1.0000
  O   O5        1.0  0.42100  0.00727  0.11500  1.0000
  O   O6        1.0  0.74400  0.70400  0.18500  1.0000
  O   O7        1.0  0.29600  0.25600  0.31500  1.0000
  O   O8        1.0  0.99300  0.57900  0.38500  1.0000
  O   O9        1.0  0.66900  0.19200  0.40600  1.0000
  O   O10       1.0  0.98800  0.13900  0.41000  1.0000
  O   O11       1.0  0.21700  0.96200  0.42000  1.0000
  O   O12       1.0  0.63600  0.66300  0.42200  1.0000
  O   O13       1.0  0.36400  0.33700  0.57800  1.0000
  O   O14       1.0  0.78300  0.03810  0.58000  1.0000
  O   O15       1.0  0.01220  0.86100  0.59000  1.0000
  O   O16       1.0  0.33100  0.80800  0.59400  1.0000
  O   O17       1.0  0.00727  0.42100  0.61500  1.0000
  O   O18       1.0  0.70400  0.74400  0.68500  1.0000
  O   O19       1.0  0.25600  0.29600  0.81500  1.0000
  O   O20       1.0  0.57900  0.99300  0.88500  1.0000
  O   O21       1.0  0.19200  0.66900  0.90600  1.0000
  O   O22       1.0  0.13900  0.98800  0.91000  1.0000
  O   O23       1.0  0.96200  0.21700  0.92000  1.0000
  O   O24       1.0  0.66300  0.63600  0.92200  1.0000
  P   P1        1.0  0.21500  0.86500  0.00176  1.0000
  P   P2        1.0  0.80600  0.76500  0.06550  1.0000
  P   P3        1.0  0.23500  0.19400  0.43400  1.0000
  P   P4        1.0  0.13500  0.78500  0.49800  1.0000
  P   P5        1.0  0.86500  0.21500  0.50200  1.0000
  P   P6        1.0  0.76500  0.80600  0.56600  1.0000
  P   P7        1.0  0.19400  0.23500  0.93400  1.0000
  P   P8        1.0  0.78500  0.13500  0.99800  1.0000
  Sm  Sm1       1.0  0.62000  0.38000  0.25000  1.0000
  Sm  Sm2       1.0  0.38000  0.62000  0.75000  1.0000
