data_image0
_chemical_formula_structural       As4H4O20Pb4Zn4
_chemical_formula_sum              "As4 H4 O20 Pb4 Zn4"
_cell_length_a       7.60255
_cell_length_b       9.355
_cell_length_c       6.0977
_cell_angle_alpha    90
_cell_angle_beta     90
_cell_angle_gamma    90

_space_group_name_H-M_alt    "P 1"
_space_group_IT_number       1

loop_
  _space_group_symop_operation_xyz
  'x, y, z'

loop_
  _atom_site_type_symbol
  _atom_site_label
  _atom_site_symmetry_multiplicity
  _atom_site_fract_x
  _atom_site_fract_y
  _atom_site_fract_z
  _atom_site_occupancy
  As  As1       1.0  0.87900  0.68700  0.01050  1.0000
  As  As2       1.0  0.12100  0.18700  0.49000  1.0000
  As  As3       1.0  0.62100  0.31300  0.51000  1.0000
  As  As4       1.0  0.37900  0.81300  0.99000  1.0000
  H   H1        1.0  0.50600  0.48900  0.01030  1.0000
  H   H2        1.0  0.49400  0.98900  0.49000  1.0000
  H   H3        1.0  0.99400  0.51100  0.51000  1.0000
  H   H4        1.0  0.00593  0.01090  0.99000  1.0000
  O   O1        1.0  0.39300  0.43500  0.00366  1.0000
  O   O2        1.0  0.56000  0.92600  0.00931  1.0000
  O   O3        1.0  0.70100  0.57800  0.05850  1.0000
  O   O4        1.0  0.35800  0.72000  0.23400  1.0000
  O   O5        1.0  0.89100  0.79700  0.23900  1.0000
  O   O6        1.0  0.10900  0.29700  0.26100  1.0000
  O   O7        1.0  0.64200  0.22000  0.26600  1.0000
  O   O8        1.0  0.29900  0.07840  0.44100  1.0000
  O   O9        1.0  0.44000  0.42600  0.49100  1.0000
  O   O10       1.0  0.60700  0.93500  0.49600  1.0000
  O   O11       1.0  0.10700  0.56500  0.50400  1.0000
  O   O12       1.0  0.94000  0.07420  0.50900  1.0000
  O   O13       1.0  0.79900  0.42200  0.55900  1.0000
  O   O14       1.0  0.14200  0.28000  0.73400  1.0000
  O   O15       1.0  0.60900  0.20300  0.73900  1.0000
  O   O16       1.0  0.39100  0.70300  0.76100  1.0000
  O   O17       1.0  0.85800  0.78000  0.76600  1.0000
  O   O18       1.0  0.20100  0.92200  0.94100  1.0000
  O   O19       1.0  0.05960  0.57400  0.99100  1.0000
  O   O20       1.0  0.89300  0.06480  0.99600  1.0000
  Pb  Pb1       1.0  0.36600  0.17200  0.02680  1.0000
  Pb  Pb2       1.0  0.63400  0.67200  0.47300  1.0000
  Pb  Pb3       1.0  0.13400  0.82800  0.52700  1.0000
  Pb  Pb4       1.0  0.86600  0.32800  0.97300  1.0000
  Zn  Zn1       1.0  0.23700  0.50700  0.23900  1.0000
  Zn  Zn2       1.0  0.76300  0.00674  0.26100  1.0000
  Zn  Zn3       1.0  0.26300  0.49300  0.73900  1.0000
  Zn  Zn4       1.0  0.73700  0.99300  0.76100  1.0000
