data_image0
_chemical_formula_structural       Cs4F4H12O12P4
_chemical_formula_sum              "Cs4 F4 H12 O12 P4"
_cell_length_a       5.45522
_cell_length_b       4.78601
_cell_length_c       18.042
_cell_angle_alpha    90
_cell_angle_beta     91.3058
_cell_angle_gamma    90

_space_group_name_H-M_alt    "P 1"
_space_group_IT_number       1

loop_
  _space_group_symop_operation_xyz
  'x, y, z'

loop_
  _atom_site_type_symbol
  _atom_site_label
  _atom_site_symmetry_multiplicity
  _atom_site_fract_x
  _atom_site_fract_y
  _atom_site_fract_z
  _atom_site_occupancy
  Cs  Cs1       1.0  0.27700  0.33700  0.08490  1.0000
  Cs  Cs2       1.0  0.72300  0.83700  0.41500  1.0000
  Cs  Cs3       1.0  0.27700  0.16300  0.58500  1.0000
  Cs  Cs4       1.0  0.72300  0.66300  0.91500  1.0000
  F   F1        1.0  0.78300  0.19700  0.01790  1.0000
  F   F2        1.0  0.21700  0.69700  0.48200  1.0000
  F   F3        1.0  0.78300  0.30300  0.51800  1.0000
  F   F4        1.0  0.21700  0.80300  0.98200  1.0000
  H   H1        1.0  0.74300  0.03030  0.05620  1.0000
  H   H2        1.0  0.67000  0.94700  0.22700  1.0000
  H   H3        1.0  0.81800  0.41300  0.24700  1.0000
  H   H4        1.0  0.18200  0.91300  0.25300  1.0000
  H   H5        1.0  0.33000  0.44700  0.27300  1.0000
  H   H6        1.0  0.25700  0.53000  0.44400  1.0000
  H   H7        1.0  0.74300  0.47000  0.55600  1.0000
  H   H8        1.0  0.67000  0.55300  0.72700  1.0000
  H   H9        1.0  0.81800  0.08660  0.74700  1.0000
  H   H10       1.0  0.18200  0.58700  0.75300  1.0000
  H   H11       1.0  0.33000  0.05350  0.77300  1.0000
  H   H12       1.0  0.25700  0.97000  0.94400  1.0000
  O   O1        1.0  0.67700  0.83200  0.09850  1.0000
  O   O2        1.0  0.06810  0.85000  0.18200  1.0000
  O   O3        1.0  0.73500  0.47200  0.19600  1.0000
  O   O4        1.0  0.26500  0.97200  0.30400  1.0000
  O   O5        1.0  0.93200  0.35000  0.31800  1.0000
  O   O6        1.0  0.32300  0.33200  0.40100  1.0000
  O   O7        1.0  0.67700  0.66800  0.59900  1.0000
  O   O8        1.0  0.06810  0.65000  0.68200  1.0000
  O   O9        1.0  0.73500  0.02810  0.69600  1.0000
  O   O10       1.0  0.26500  0.52800  0.80400  1.0000
  O   O11       1.0  0.93200  0.15000  0.81800  1.0000
  O   O12       1.0  0.32300  0.16800  0.90100  1.0000
  P   P1        1.0  0.79500  0.78500  0.17500  1.0000
  P   P2        1.0  0.20500  0.28500  0.32500  1.0000
  P   P3        1.0  0.79500  0.71500  0.67500  1.0000
  P   P4        1.0  0.20500  0.21500  0.82500  1.0000
