data_image0
_chemical_formula_structural       Ge16Pr20
_chemical_formula_sum              "Ge16 Pr20"
_cell_length_a       8.00298
_cell_length_b       15.3407
_cell_length_c       8.09133
_cell_angle_alpha    90
_cell_angle_beta     90
_cell_angle_gamma    90

_space_group_name_H-M_alt    "P 1"
_space_group_IT_number       1

loop_
  _space_group_symop_operation_xyz
  'x, y, z'

loop_
  _atom_site_type_symbol
  _atom_site_label
  _atom_site_symmetry_multiplicity
  _atom_site_fract_x
  _atom_site_fract_y
  _atom_site_fract_z
  _atom_site_occupancy
  Ge  Ge1       1.0  0.72200  0.54500  0.03100  1.0000
  Ge  Ge2       1.0  0.72200  0.95500  0.03100  1.0000
  Ge  Ge3       1.0  0.08930  0.75000  0.10800  1.0000
  Ge  Ge4       1.0  0.67500  0.25000  0.13100  1.0000
  Ge  Ge5       1.0  0.17500  0.25000  0.36900  1.0000
  Ge  Ge6       1.0  0.58900  0.75000  0.39200  1.0000
  Ge  Ge7       1.0  0.22200  0.54500  0.46900  1.0000
  Ge  Ge8       1.0  0.22200  0.95500  0.46900  1.0000
  Ge  Ge9       1.0  0.77800  0.04510  0.53100  1.0000
  Ge  Ge10      1.0  0.77800  0.45500  0.53100  1.0000
  Ge  Ge11      1.0  0.41100  0.25000  0.60800  1.0000
  Ge  Ge12      1.0  0.82500  0.75000  0.63100  1.0000
  Ge  Ge13      1.0  0.32500  0.75000  0.86900  1.0000
  Ge  Ge14      1.0  0.91100  0.25000  0.89200  1.0000
  Ge  Ge15      1.0  0.27800  0.04510  0.96900  1.0000
  Ge  Ge16      1.0  0.27800  0.45500  0.96900  1.0000
  Pr  Pr1       1.0  0.71400  0.75000  0.00218  1.0000
  Pr  Pr2       1.0  0.38000  0.61400  0.16100  1.0000
  Pr  Pr3       1.0  0.38000  0.88600  0.16100  1.0000
  Pr  Pr4       1.0  0.97500  0.10300  0.17900  1.0000
  Pr  Pr5       1.0  0.97500  0.39700  0.17900  1.0000
  Pr  Pr6       1.0  0.47500  0.10300  0.32100  1.0000
  Pr  Pr7       1.0  0.47500  0.39700  0.32100  1.0000
  Pr  Pr8       1.0  0.88000  0.61400  0.33900  1.0000
  Pr  Pr9       1.0  0.88000  0.88600  0.33900  1.0000
  Pr  Pr10      1.0  0.21400  0.75000  0.49800  1.0000
  Pr  Pr11      1.0  0.78600  0.25000  0.50200  1.0000
  Pr  Pr12      1.0  0.12000  0.11400  0.66100  1.0000
  Pr  Pr13      1.0  0.12000  0.38600  0.66100  1.0000
  Pr  Pr14      1.0  0.52500  0.60300  0.67900  1.0000
  Pr  Pr15      1.0  0.52500  0.89700  0.67900  1.0000
  Pr  Pr16      1.0  0.02530  0.60300  0.82100  1.0000
  Pr  Pr17      1.0  0.02530  0.89700  0.82100  1.0000
  Pr  Pr18      1.0  0.62000  0.11400  0.83900  1.0000
  Pr  Pr19      1.0  0.62000  0.38600  0.83900  1.0000
  Pr  Pr20      1.0  0.28600  0.25000  0.99800  1.0000
