data_image0
_chemical_formula_structural       Be4O24P8
_chemical_formula_sum              "Be4 O24 P8"
_cell_length_a       6.92355
_cell_length_b       12.7667
_cell_length_c       4.76301
_cell_angle_alpha    90
_cell_angle_beta     106.22
_cell_angle_gamma    90

_space_group_name_H-M_alt    "P 1"
_space_group_IT_number       1

loop_
  _space_group_symop_operation_xyz
  'x, y, z'

loop_
  _atom_site_type_symbol
  _atom_site_label
  _atom_site_symmetry_multiplicity
  _atom_site_fract_x
  _atom_site_fract_y
  _atom_site_fract_z
  _atom_site_occupancy
  Be  Be1       1.0  0.76300  0.06710  0.13600  1.0000
  Be  Be2       1.0  0.73700  0.56700  0.36400  1.0000
  Be  Be3       1.0  0.26300  0.43300  0.63600  1.0000
  Be  Be4       1.0  0.23700  0.93300  0.86400  1.0000
  O   O1        1.0  0.76500  0.94900  0.02860  1.0000
  O   O2        1.0  0.84800  0.76200  0.03260  1.0000
  O   O3        1.0  0.15800  0.65800  0.05690  1.0000
  O   O4        1.0  0.83800  0.56700  0.09800  1.0000
  O   O5        1.0  0.37000  0.85700  0.11700  1.0000
  O   O6        1.0  0.51300  0.61400  0.24800  1.0000
  O   O7        1.0  0.98700  0.11400  0.25200  1.0000
  O   O8        1.0  0.13000  0.35700  0.38300  1.0000
  O   O9        1.0  0.66200  0.06690  0.40200  1.0000
  O   O10       1.0  0.34200  0.15800  0.44300  1.0000
  O   O11       1.0  0.65200  0.26200  0.46700  1.0000
  O   O12       1.0  0.73500  0.44900  0.47100  1.0000
  O   O13       1.0  0.26500  0.55100  0.52900  1.0000
  O   O14       1.0  0.34800  0.73800  0.53300  1.0000
  O   O15       1.0  0.65800  0.84200  0.55700  1.0000
  O   O16       1.0  0.33800  0.93300  0.59800  1.0000
  O   O17       1.0  0.87000  0.64300  0.61700  1.0000
  O   O18       1.0  0.01320  0.88600  0.74800  1.0000
  O   O19       1.0  0.48700  0.38600  0.75200  1.0000
  O   O20       1.0  0.63000  0.14300  0.88300  1.0000
  O   O21       1.0  0.16200  0.43300  0.90200  1.0000
  O   O22       1.0  0.84200  0.34200  0.94300  1.0000
  O   O23       1.0  0.15200  0.23800  0.96700  1.0000
  O   O24       1.0  0.23500  0.05140  0.97100  1.0000
  P   P1        1.0  0.08020  0.35000  0.05820  1.0000
  P   P2        1.0  0.17000  0.13100  0.15200  1.0000
  P   P3        1.0  0.33000  0.63100  0.34800  1.0000
  P   P4        1.0  0.42000  0.85000  0.44200  1.0000
  P   P5        1.0  0.58000  0.15000  0.55800  1.0000
  P   P6        1.0  0.67000  0.36900  0.65200  1.0000
  P   P7        1.0  0.83000  0.86900  0.84800  1.0000
  P   P8        1.0  0.92000  0.65000  0.94200  1.0000
