data_image0
_chemical_formula_structural       Br4H8Li4O20
_chemical_formula_sum              "Br4 H8 Li4 O20"
_cell_length_a       5.67532
_cell_length_b       7.01329
_cell_length_c       9.9143
_cell_angle_alpha    94.3441
_cell_angle_beta     90
_cell_angle_gamma    113.867

_space_group_name_H-M_alt    "P 1"
_space_group_IT_number       1

loop_
  _space_group_symop_operation_xyz
  'x, y, z'

loop_
  _atom_site_type_symbol
  _atom_site_label
  _atom_site_symmetry_multiplicity
  _atom_site_fract_x
  _atom_site_fract_y
  _atom_site_fract_z
  _atom_site_occupancy
  Br  Br1       1.0  0.16300  0.31900  0.23200  1.0000
  Br  Br2       1.0  0.84400  0.68100  0.26800  1.0000
  Br  Br3       1.0  0.15600  0.31900  0.73200  1.0000
  Br  Br4       1.0  0.83700  0.68100  0.76800  1.0000
  H   H1        1.0  0.65900  0.77300  0.02530  1.0000
  H   H2        1.0  0.31500  0.89800  0.03530  1.0000
  H   H3        1.0  0.41700  0.10200  0.46500  1.0000
  H   H4        1.0  0.88600  0.22700  0.47500  1.0000
  H   H5        1.0  0.11400  0.77300  0.52500  1.0000
  H   H6        1.0  0.58300  0.89800  0.53500  1.0000
  H   H7        1.0  0.68500  0.10200  0.96500  1.0000
  H   H8        1.0  0.34100  0.22700  0.97500  1.0000
  Li  Li1       1.0  0.00000  0.50000  0.00000  1.0000
  Li  Li2       1.0  0.54300  0.00000  0.25000  1.0000
  Li  Li3       1.0  0.50000  0.50000  0.50000  1.0000
  Li  Li4       1.0  0.45700  0.00000  0.75000  1.0000
  O   O1        1.0  0.46400  0.19800  0.03740  1.0000
  O   O2        1.0  0.79300  0.65000  0.09700  1.0000
  O   O3        1.0  0.30200  0.00830  0.10100  1.0000
  O   O4        1.0  0.86600  0.17100  0.17000  1.0000
  O   O5        1.0  0.20900  0.55300  0.17600  1.0000
  O   O6        1.0  0.65500  0.44700  0.32400  1.0000
  O   O7        1.0  0.69500  0.82900  0.33000  1.0000
  O   O8        1.0  0.29300  0.99200  0.39900  1.0000
  O   O9        1.0  0.14300  0.35000  0.40300  1.0000
  O   O10       1.0  0.26500  0.80200  0.46300  1.0000
  O   O11       1.0  0.73500  0.19800  0.53700  1.0000
  O   O12       1.0  0.85700  0.65000  0.59700  1.0000
  O   O13       1.0  0.70700  0.00830  0.60100  1.0000
  O   O14       1.0  0.30500  0.17100  0.67000  1.0000
  O   O15       1.0  0.34500  0.55300  0.67600  1.0000
  O   O16       1.0  0.79100  0.44700  0.82400  1.0000
  O   O17       1.0  0.13400  0.82900  0.83000  1.0000
  O   O18       1.0  0.69800  0.99200  0.89900  1.0000
  O   O19       1.0  0.20700  0.35000  0.90300  1.0000
  O   O20       1.0  0.53600  0.80200  0.96300  1.0000
