data_image0
_chemical_formula_structural       N20Si14Sr2
_chemical_formula_sum              "N20 Si14 Sr2"
_cell_length_a       6.84148
_cell_length_b       6.71648
_cell_length_c       9.61679
_cell_angle_alpha    90
_cell_angle_beta     106.16
_cell_angle_gamma    90

_space_group_name_H-M_alt    "P 1"
_space_group_IT_number       1

loop_
  _space_group_symop_operation_xyz
  'x, y, z'

loop_
  _atom_site_type_symbol
  _atom_site_label
  _atom_site_symmetry_multiplicity
  _atom_site_fract_x
  _atom_site_fract_y
  _atom_site_fract_z
  _atom_site_occupancy
  N   N1        1.0  0.15000  0.16400  0.01830  1.0000
  N   N2        1.0  0.50000  0.53900  0.02370  1.0000
  N   N3        1.0  0.88800  0.38400  0.13400  1.0000
  N   N4        1.0  0.44300  0.88300  0.17200  1.0000
  N   N5        1.0  0.28600  0.50000  0.22500  1.0000
  N   N6        1.0  0.70600  0.58600  0.32500  1.0000
  N   N7        1.0  0.75000  0.15400  0.33100  1.0000
  N   N8        1.0  0.31600  0.12900  0.36200  1.0000
  N   N9        1.0  0.07940  0.42000  0.44000  1.0000
  N   N10       1.0  0.56900  0.87000  0.47800  1.0000
  N   N11       1.0  0.15000  0.83600  0.51800  1.0000
  N   N12       1.0  0.50000  0.46100  0.52400  1.0000
  N   N13       1.0  0.88800  0.61600  0.63400  1.0000
  N   N14       1.0  0.44300  0.11700  0.67200  1.0000
  N   N15       1.0  0.28600  0.50000  0.72500  1.0000
  N   N16       1.0  0.70600  0.41400  0.82500  1.0000
  N   N17       1.0  0.75000  0.84600  0.83100  1.0000
  N   N18       1.0  0.31600  0.87100  0.86200  1.0000
  N   N19       1.0  0.07940  0.58000  0.94000  1.0000
  N   N20       1.0  0.56900  0.13000  0.97800  1.0000
  Si  Si1       1.0  0.35200  0.02680  0.01550  1.0000
  Si  Si2       1.0  0.10900  0.39400  0.07360  1.0000
  Si  Si3       1.0  0.48400  0.63000  0.18800  1.0000
  Si  Si4       1.0  0.85000  0.37600  0.31000  1.0000
  Si  Si5       1.0  0.54000  0.02620  0.32800  1.0000
  Si  Si6       1.0  0.29600  0.38000  0.38400  1.0000
  Si  Si7       1.0  0.66700  0.63600  0.49300  1.0000
  Si  Si8       1.0  0.35200  0.97300  0.51600  1.0000
  Si  Si9       1.0  0.10900  0.60600  0.57400  1.0000
  Si  Si10      1.0  0.48400  0.37000  0.68800  1.0000
  Si  Si11      1.0  0.85000  0.62400  0.81000  1.0000
  Si  Si12      1.0  0.54000  0.97400  0.82800  1.0000
  Si  Si13      1.0  0.29600  0.62000  0.88400  1.0000
  Si  Si14      1.0  0.66700  0.36400  0.99300  1.0000
  Sr  Sr1       1.0  0.95700  0.94300  0.16900  1.0000
  Sr  Sr2       1.0  0.95700  0.05690  0.66900  1.0000
