data_image0
_chemical_formula_structural       LiMnNpO6
_chemical_formula_sum              "Li1 Mn1 Np1 O6"
_cell_length_a       5.21811
_cell_length_b       5.21811
_cell_length_c       5.17803
_cell_angle_alpha    101.077
_cell_angle_beta     101.077
_cell_angle_gamma    120.171

_space_group_name_H-M_alt    "P 1"
_space_group_IT_number       1

loop_
  _space_group_symop_operation_xyz
  'x, y, z'

loop_
  _atom_site_type_symbol
  _atom_site_label
  _atom_site_symmetry_multiplicity
  _atom_site_fract_x
  _atom_site_fract_y
  _atom_site_fract_z
  _atom_site_occupancy
  Li  Li1       1.0  0.97600  0.02370  0.50000  1.0000
  Mn  Mn1       1.0  0.83700  0.16300  0.00000  1.0000
  Np  Np1       1.0  0.17200  0.82800  0.00000  1.0000
  O   O1        1.0  0.94600  0.58500  0.21700  1.0000
  O   O2        1.0  0.61100  0.95600  0.22200  1.0000
  O   O3        1.0  0.19700  0.21500  0.23300  1.0000
  O   O4        1.0  0.78500  0.80300  0.76700  1.0000
  O   O5        1.0  0.04440  0.38900  0.77800  1.0000
  O   O6        1.0  0.41500  0.05390  0.78300  1.0000
