data_image0
_chemical_formula_structural       C8Ca4H8O16
_chemical_formula_sum              "C8 Ca4 H8 O16"
_cell_length_a       6.63082
_cell_length_b       6.63082
_cell_length_c       8.39958
_cell_angle_alpha    90
_cell_angle_beta     90
_cell_angle_gamma    90

_space_group_name_H-M_alt    "P 1"
_space_group_IT_number       1

loop_
  _space_group_symop_operation_xyz
  'x, y, z'

loop_
  _atom_site_type_symbol
  _atom_site_label
  _atom_site_symmetry_multiplicity
  _atom_site_fract_x
  _atom_site_fract_y
  _atom_site_fract_z
  _atom_site_occupancy
  C   C1        1.0  0.31800  0.83000  0.91200  1.0000
  C   C2        1.0  0.68200  0.17000  0.41200  1.0000
  C   C3        1.0  0.81800  0.67000  0.33800  1.0000
  C   C4        1.0  0.18200  0.33000  0.83800  1.0000
  C   C5        1.0  0.17000  0.68200  0.58800  1.0000
  C   C6        1.0  0.83000  0.31800  0.08760  1.0000
  C   C7        1.0  0.33000  0.18200  0.16200  1.0000
  C   C8        1.0  0.67000  0.81800  0.66200  1.0000
  Ca  Ca1       1.0  0.80700  0.80700  0.00000  1.0000
  Ca  Ca2       1.0  0.19300  0.19300  0.50000  1.0000
  Ca  Ca3       1.0  0.30700  0.69300  0.25000  1.0000
  Ca  Ca4       1.0  0.69300  0.30700  0.75000  1.0000
  H   H1        1.0  0.35100  0.92000  0.80500  1.0000
  H   H2        1.0  0.64900  0.07980  0.30500  1.0000
  H   H3        1.0  0.85100  0.58000  0.44500  1.0000
  H   H4        1.0  0.14900  0.42000  0.94500  1.0000
  H   H5        1.0  0.07980  0.64900  0.69500  1.0000
  H   H6        1.0  0.92000  0.35100  0.19500  1.0000
  H   H7        1.0  0.42000  0.14900  0.05530  1.0000
  H   H8        1.0  0.58000  0.85100  0.55500  1.0000
  O   O1        1.0  0.13700  0.78900  0.94400  1.0000
  O   O2        1.0  0.86300  0.21100  0.44400  1.0000
  O   O3        1.0  0.63700  0.71100  0.30600  1.0000
  O   O4        1.0  0.36300  0.28900  0.80600  1.0000
  O   O5        1.0  0.21100  0.86300  0.55600  1.0000
  O   O6        1.0  0.78900  0.13700  0.05590  1.0000
  O   O7        1.0  0.28900  0.36300  0.19400  1.0000
  O   O8        1.0  0.71100  0.63700  0.69400  1.0000
  O   O9        1.0  0.46300  0.77300  0.00000  1.0000
  O   O10       1.0  0.53700  0.22700  0.50000  1.0000
  O   O11       1.0  0.96300  0.72700  0.25000  1.0000
  O   O12       1.0  0.03670  0.27300  0.75000  1.0000
  O   O13       1.0  0.22700  0.53700  0.50000  1.0000
  O   O14       1.0  0.77300  0.46300  0.00043  1.0000
  O   O15       1.0  0.27300  0.03670  0.25000  1.0000
  O   O16       1.0  0.72700  0.96300  0.75000  1.0000
