data_image0
_chemical_formula_structural       Mn4O24Sb4V4
_chemical_formula_sum              "Mn4 O24 Sb4 V4"
_cell_length_a       4.64514
_cell_length_b       4.98459
_cell_length_c       17.1268
_cell_angle_alpha    90
_cell_angle_beta     90
_cell_angle_gamma    90

_space_group_name_H-M_alt    "P 1"
_space_group_IT_number       1

loop_
  _space_group_symop_operation_xyz
  'x, y, z'

loop_
  _atom_site_type_symbol
  _atom_site_label
  _atom_site_symmetry_multiplicity
  _atom_site_fract_x
  _atom_site_fract_y
  _atom_site_fract_z
  _atom_site_occupancy
  Mn  Mn1       1.0  0.50000  0.75000  0.05710  1.0000
  Mn  Mn2       1.0  0.00000  0.25000  0.44300  1.0000
  Mn  Mn3       1.0  0.00000  0.75000  0.55700  1.0000
  Mn  Mn4       1.0  0.50000  0.25000  0.94300  1.0000
  O   O1        1.0  0.25000  0.10900  0.04190  1.0000
  O   O2        1.0  0.75000  0.39100  0.04190  1.0000
  O   O3        1.0  0.21100  0.55900  0.13300  1.0000
  O   O4        1.0  0.78900  0.94100  0.13300  1.0000
  O   O5        1.0  0.24400  0.07700  0.20400  1.0000
  O   O6        1.0  0.75600  0.42300  0.20400  1.0000
  O   O7        1.0  0.25600  0.57700  0.29600  1.0000
  O   O8        1.0  0.74400  0.92300  0.29600  1.0000
  O   O9        1.0  0.28900  0.05870  0.36700  1.0000
  O   O10       1.0  0.71100  0.44100  0.36700  1.0000
  O   O11       1.0  0.25000  0.60900  0.45800  1.0000
  O   O12       1.0  0.75000  0.89100  0.45800  1.0000
  O   O13       1.0  0.25000  0.10900  0.54200  1.0000
  O   O14       1.0  0.75000  0.39100  0.54200  1.0000
  O   O15       1.0  0.28900  0.55900  0.63300  1.0000
  O   O16       1.0  0.71100  0.94100  0.63300  1.0000
  O   O17       1.0  0.25600  0.07700  0.70400  1.0000
  O   O18       1.0  0.74400  0.42300  0.70400  1.0000
  O   O19       1.0  0.24400  0.57700  0.79600  1.0000
  O   O20       1.0  0.75600  0.92300  0.79600  1.0000
  O   O21       1.0  0.21100  0.05870  0.86700  1.0000
  O   O22       1.0  0.78900  0.44100  0.86700  1.0000
  O   O23       1.0  0.25000  0.60900  0.95800  1.0000
  O   O24       1.0  0.75000  0.89100  0.95800  1.0000
  Sb  Sb1       1.0  0.00000  0.75000  0.21800  1.0000
  Sb  Sb2       1.0  0.50000  0.25000  0.28200  1.0000
  Sb  Sb3       1.0  0.50000  0.75000  0.71800  1.0000
  Sb  Sb4       1.0  0.00000  0.25000  0.78200  1.0000
  V   V1        1.0  0.00000  0.25000  0.10300  1.0000
  V   V2        1.0  0.50000  0.75000  0.39700  1.0000
  V   V3        1.0  0.50000  0.25000  0.60300  1.0000
  V   V4        1.0  0.00000  0.75000  0.89700  1.0000
