data_image0
_chemical_formula_structural       B24Cr4Sc8
_chemical_formula_sum              "B24 Cr4 Sc8"
_cell_length_a       8.88339
_cell_length_b       11.1514
_cell_length_c       3.36361
_cell_angle_alpha    90
_cell_angle_beta     90
_cell_angle_gamma    90

_space_group_name_H-M_alt    "P 1"
_space_group_IT_number       1

loop_
  _space_group_symop_operation_xyz
  'x, y, z'

loop_
  _atom_site_type_symbol
  _atom_site_label
  _atom_site_symmetry_multiplicity
  _atom_site_fract_x
  _atom_site_fract_y
  _atom_site_fract_z
  _atom_site_occupancy
  B   B1        1.0  0.59900  0.02710  0.50000  1.0000
  B   B2        1.0  0.05380  0.06530  0.50000  1.0000
  B   B3        1.0  0.25200  0.07950  0.50000  1.0000
  B   B4        1.0  0.63100  0.18300  0.50000  1.0000
  B   B5        1.0  0.98100  0.21200  0.50000  1.0000
  B   B6        1.0  0.29500  0.23700  0.50000  1.0000
  B   B7        1.0  0.79500  0.26300  0.50000  1.0000
  B   B8        1.0  0.48100  0.28800  0.50000  1.0000
  B   B9        1.0  0.13100  0.31700  0.50000  1.0000
  B   B10       1.0  0.75200  0.42100  0.50000  1.0000
  B   B11       1.0  0.55400  0.43500  0.50000  1.0000
  B   B12       1.0  0.09860  0.47300  0.50000  1.0000
  B   B13       1.0  0.90100  0.52700  0.50000  1.0000
  B   B14       1.0  0.44600  0.56500  0.50000  1.0000
  B   B15       1.0  0.24800  0.57900  0.50000  1.0000
  B   B16       1.0  0.86900  0.68300  0.50000  1.0000
  B   B17       1.0  0.51900  0.71200  0.50000  1.0000
  B   B18       1.0  0.20500  0.73700  0.50000  1.0000
  B   B19       1.0  0.70500  0.76300  0.50000  1.0000
  B   B20       1.0  0.01930  0.78800  0.50000  1.0000
  B   B21       1.0  0.36900  0.81700  0.50000  1.0000
  B   B22       1.0  0.74800  0.92100  0.50000  1.0000
  B   B23       1.0  0.94600  0.93500  0.50000  1.0000
  B   B24       1.0  0.40100  0.97300  0.50000  1.0000
  Cr  Cr1       1.0  0.14100  0.18000  0.00000  1.0000
  Cr  Cr2       1.0  0.64100  0.32000  0.00000  1.0000
  Cr  Cr3       1.0  0.35900  0.68000  0.00000  1.0000
  Cr  Cr4       1.0  0.85900  0.82000  0.00000  1.0000
  Sc  Sc1       1.0  0.82300  0.08550  0.00000  1.0000
  Sc  Sc2       1.0  0.44300  0.13100  0.00000  1.0000
  Sc  Sc3       1.0  0.94300  0.36900  0.00000  1.0000
  Sc  Sc4       1.0  0.32300  0.41400  0.00000  1.0000
  Sc  Sc5       1.0  0.67700  0.58600  0.00000  1.0000
  Sc  Sc6       1.0  0.05690  0.63100  0.00000  1.0000
  Sc  Sc7       1.0  0.55700  0.86900  0.00000  1.0000
  Sc  Sc8       1.0  0.17700  0.91400  0.00000  1.0000
