data_image0
_chemical_formula_structural       Li2O24P6Ti4
_chemical_formula_sum              "Li2 O24 P6 Ti4"
_cell_length_a       8.43444
_cell_length_b       8.43444
_cell_length_c       8.43444
_cell_angle_alpha    119.259
_cell_angle_beta     60.7411
_cell_angle_gamma    119.259

_space_group_name_H-M_alt    "P 1"
_space_group_IT_number       1

loop_
  _space_group_symop_operation_xyz
  'x, y, z'

loop_
  _atom_site_type_symbol
  _atom_site_label
  _atom_site_symmetry_multiplicity
  _atom_site_fract_x
  _atom_site_fract_y
  _atom_site_fract_z
  _atom_site_occupancy
  Li  Li1       1.0  0.00000  0.00000  0.00000  1.0000
  Li  Li2       1.0  0.50000  0.50000  0.50000  1.0000
  O   O1        1.0  0.38000  0.81600  0.00242  1.0000
  O   O2        1.0  0.26200  0.08820  0.05560  1.0000
  O   O3        1.0  0.94400  0.26200  0.08820  1.0000
  O   O4        1.0  0.49800  0.68400  0.12000  1.0000
  O   O5        1.0  0.00242  0.62000  0.18400  1.0000
  O   O6        1.0  0.44400  0.41200  0.23800  1.0000
  O   O7        1.0  0.91200  0.94400  0.26200  1.0000
  O   O8        1.0  0.12000  0.50200  0.31600  1.0000
  O   O9        1.0  0.18400  0.99800  0.38000  1.0000
  O   O10       1.0  0.76200  0.44400  0.41200  1.0000
  O   O11       1.0  0.58800  0.76200  0.44400  1.0000
  O   O12       1.0  0.31600  0.88000  0.49800  1.0000
  O   O13       1.0  0.68400  0.12000  0.50200  1.0000
  O   O14       1.0  0.41200  0.23800  0.55600  1.0000
  O   O15       1.0  0.23800  0.55600  0.58800  1.0000
  O   O16       1.0  0.81600  0.00242  0.62000  1.0000
  O   O17       1.0  0.88000  0.49800  0.68400  1.0000
  O   O18       1.0  0.08820  0.05560  0.73800  1.0000
  O   O19       1.0  0.55600  0.58800  0.76200  1.0000
  O   O20       1.0  0.99800  0.38000  0.81600  1.0000
  O   O21       1.0  0.50200  0.31600  0.88000  1.0000
  O   O22       1.0  0.05560  0.73800  0.91200  1.0000
  O   O23       1.0  0.73800  0.91200  0.94400  1.0000
  O   O24       1.0  0.62000  0.18400  0.99800  1.0000
  P   P1        1.0  0.45800  0.25000  0.04240  1.0000
  P   P2        1.0  0.95800  0.45800  0.25000  1.0000
  P   P3        1.0  0.75000  0.95800  0.45800  1.0000
  P   P4        1.0  0.25000  0.04240  0.54200  1.0000
  P   P5        1.0  0.04240  0.54200  0.75000  1.0000
  P   P6        1.0  0.54200  0.75000  0.95800  1.0000
  Ti  Ti1       1.0  0.13900  0.86100  0.13900  1.0000
  Ti  Ti2       1.0  0.36100  0.63900  0.36000  1.0000
  Ti  Ti3       1.0  0.63900  0.36100  0.63900  1.0000
  Ti  Ti4       1.0  0.86100  0.13900  0.86100  1.0000
