data_image0
_chemical_formula_structural       LiMnO6Pa
_chemical_formula_sum              "Li1 Mn1 O6 Pa1"
_cell_length_a       5.39342
_cell_length_b       5.39342
_cell_length_c       5.13408
_cell_angle_alpha    100.844
_cell_angle_beta     100.844
_cell_angle_gamma    120.11

_space_group_name_H-M_alt    "P 1"
_space_group_IT_number       1

loop_
  _space_group_symop_operation_xyz
  'x, y, z'

loop_
  _atom_site_type_symbol
  _atom_site_label
  _atom_site_symmetry_multiplicity
  _atom_site_fract_x
  _atom_site_fract_y
  _atom_site_fract_z
  _atom_site_occupancy
  Li  Li1       1.0  0.96200  0.03840  0.50000  1.0000
  Mn  Mn1       1.0  0.83500  0.16500  0.00000  1.0000
  O   O1        1.0  0.61600  0.95500  0.21600  1.0000
  O   O2        1.0  0.93100  0.54800  0.22700  1.0000
  O   O3        1.0  0.17800  0.20800  0.24000  1.0000
  O   O4        1.0  0.79200  0.82200  0.76000  1.0000
  O   O5        1.0  0.45200  0.06950  0.77400  1.0000
  O   O6        1.0  0.04540  0.38400  0.78400  1.0000
  Pa  Pa1       1.0  0.17000  0.83000  0.00000  1.0000
