data_image0
_chemical_formula_structural       Dy8Si16Ti12
_chemical_formula_sum              "Dy8 Si16 Ti12"
_cell_length_a       7.04494
_cell_length_b       7.04494
_cell_length_c       12.9527
_cell_angle_alpha    90
_cell_angle_beta     90
_cell_angle_gamma    90

_space_group_name_H-M_alt    "P 1"
_space_group_IT_number       1

loop_
  _space_group_symop_operation_xyz
  'x, y, z'

loop_
  _atom_site_type_symbol
  _atom_site_label
  _atom_site_symmetry_multiplicity
  _atom_site_fract_x
  _atom_site_fract_y
  _atom_site_fract_z
  _atom_site_occupancy
  Dy  Dy1       1.0  0.99800  0.66000  0.03340  1.0000
  Dy  Dy2       1.0  0.50200  0.16000  0.21700  1.0000
  Dy  Dy3       1.0  0.84000  0.49800  0.28300  1.0000
  Dy  Dy4       1.0  0.34000  0.00222  0.46700  1.0000
  Dy  Dy5       1.0  0.00222  0.34000  0.53300  1.0000
  Dy  Dy6       1.0  0.49800  0.84000  0.71700  1.0000
  Dy  Dy7       1.0  0.16000  0.50200  0.78300  1.0000
  Dy  Dy8       1.0  0.66000  0.99800  0.96700  1.0000
  Si  Si1       1.0  0.29100  0.95400  0.06490  1.0000
  Si  Si2       1.0  0.70200  0.37000  0.06530  1.0000
  Si  Si3       1.0  0.79800  0.87000  0.18500  1.0000
  Si  Si4       1.0  0.20900  0.45400  0.18500  1.0000
  Si  Si5       1.0  0.54600  0.79100  0.31500  1.0000
  Si  Si6       1.0  0.13000  0.20200  0.31500  1.0000
  Si  Si7       1.0  0.63000  0.29800  0.43500  1.0000
  Si  Si8       1.0  0.04620  0.70900  0.43500  1.0000
  Si  Si9       1.0  0.70900  0.04620  0.56500  1.0000
  Si  Si10      1.0  0.29800  0.63000  0.56500  1.0000
  Si  Si11      1.0  0.20200  0.13000  0.68500  1.0000
  Si  Si12      1.0  0.79100  0.54600  0.68500  1.0000
  Si  Si13      1.0  0.45400  0.20900  0.81500  1.0000
  Si  Si14      1.0  0.87000  0.79800  0.81500  1.0000
  Si  Si15      1.0  0.37000  0.70200  0.93500  1.0000
  Si  Si16      1.0  0.95400  0.29100  0.93500  1.0000
  Ti  Ti1       1.0  0.32800  0.32800  0.00000  1.0000
  Ti  Ti2       1.0  0.00794  0.15300  0.12300  1.0000
  Ti  Ti3       1.0  0.49200  0.65300  0.12700  1.0000
  Ti  Ti4       1.0  0.17200  0.82800  0.25000  1.0000
  Ti  Ti5       1.0  0.34700  0.50800  0.37300  1.0000
  Ti  Ti6       1.0  0.84700  0.99200  0.37700  1.0000
  Ti  Ti7       1.0  0.67200  0.67200  0.50000  1.0000
  Ti  Ti8       1.0  0.99200  0.84700  0.62300  1.0000
  Ti  Ti9       1.0  0.50800  0.34700  0.62700  1.0000
  Ti  Ti10      1.0  0.82800  0.17200  0.75000  1.0000
  Ti  Ti11      1.0  0.65300  0.49200  0.87300  1.0000
  Ti  Ti12      1.0  0.15300  0.00794  0.87700  1.0000
