data_image0
_chemical_formula_structural       LiMnO6Tc
_chemical_formula_sum              "Li1 Mn1 O6 Tc1"
_cell_length_a       5.04283
_cell_length_b       5.04283
_cell_length_c       4.88588
_cell_angle_alpha    98.4601
_cell_angle_beta     98.4601
_cell_angle_gamma    121.007

_space_group_name_H-M_alt    "P 1"
_space_group_IT_number       1

loop_
  _space_group_symop_operation_xyz
  'x, y, z'

loop_
  _atom_site_type_symbol
  _atom_site_label
  _atom_site_symmetry_multiplicity
  _atom_site_fract_x
  _atom_site_fract_y
  _atom_site_fract_z
  _atom_site_occupancy
  Li  Li1       1.0  0.37600  0.62400  0.50000  1.0000
  Mn  Mn1       1.0  0.82900  0.17100  0.00000  1.0000
  O   O1        1.0  0.19500  0.20700  0.22000  1.0000
  O   O2        1.0  0.55800  0.95100  0.23000  1.0000
  O   O3        1.0  0.95900  0.57700  0.23400  1.0000
  O   O4        1.0  0.42300  0.04080  0.76600  1.0000
  O   O5        1.0  0.04880  0.44200  0.77000  1.0000
  O   O6        1.0  0.79300  0.80500  0.78000  1.0000
  Tc  Tc1       1.0  0.15800  0.84200  0.00000  1.0000
