data_image0
_chemical_formula_structural       C8Cl4H20O4
_chemical_formula_sum              "C8 Cl4 H20 O4"
_cell_length_a       6.27046
_cell_length_b       7.84022
_cell_length_c       8.09148
_cell_angle_alpha    90
_cell_angle_beta     110.08
_cell_angle_gamma    90

_space_group_name_H-M_alt    "P 1"
_space_group_IT_number       1

loop_
  _space_group_symop_operation_xyz
  'x, y, z'

loop_
  _atom_site_type_symbol
  _atom_site_label
  _atom_site_symmetry_multiplicity
  _atom_site_fract_x
  _atom_site_fract_y
  _atom_site_fract_z
  _atom_site_occupancy
  C   C1        1.0  0.63200  0.82700  0.15600  1.0000
  C   C2        1.0  0.01510  0.90100  0.20900  1.0000
  C   C3        1.0  0.48500  0.40100  0.29100  1.0000
  C   C4        1.0  0.86800  0.32700  0.34400  1.0000
  C   C5        1.0  0.13200  0.67300  0.65600  1.0000
  C   C6        1.0  0.51500  0.59900  0.70900  1.0000
  C   C7        1.0  0.98500  0.09890  0.79100  1.0000
  C   C8        1.0  0.36800  0.17300  0.84400  1.0000
  Cl  Cl1       1.0  0.89700  0.38800  0.13100  1.0000
  Cl  Cl2       1.0  0.60300  0.88800  0.36900  1.0000
  Cl  Cl3       1.0  0.39700  0.11200  0.63100  1.0000
  Cl  Cl4       1.0  0.10300  0.61200  0.86900  1.0000
  H   H1        1.0  0.46100  0.84200  0.05980  1.0000
  H   H2        1.0  0.44700  0.43500  0.15200  1.0000
  H   H3        1.0  0.11200  0.98300  0.15200  1.0000
  H   H4        1.0  0.68900  0.69300  0.17800  1.0000
  H   H5        1.0  0.05890  0.76700  0.19900  1.0000
  H   H6        1.0  0.44100  0.26700  0.30100  1.0000
  H   H7        1.0  0.81100  0.19300  0.32200  1.0000
  H   H8        1.0  0.38800  0.48300  0.34800  1.0000
  H   H9        1.0  0.05330  0.93500  0.34800  1.0000
  H   H10       1.0  0.03880  0.34200  0.44000  1.0000
  H   H11       1.0  0.96100  0.65800  0.56000  1.0000
  H   H12       1.0  0.94700  0.06460  0.65200  1.0000
  H   H13       1.0  0.61200  0.51700  0.65200  1.0000
  H   H14       1.0  0.18900  0.80700  0.67800  1.0000
  H   H15       1.0  0.55900  0.73300  0.69900  1.0000
  H   H16       1.0  0.94100  0.23300  0.80100  1.0000
  H   H17       1.0  0.31100  0.30700  0.82200  1.0000
  H   H18       1.0  0.88800  0.01690  0.84800  1.0000
  H   H19       1.0  0.55300  0.56500  0.84800  1.0000
  H   H20       1.0  0.53900  0.15800  0.94000  1.0000
  O   O1        1.0  0.77900  0.93100  0.11000  1.0000
  O   O2        1.0  0.72100  0.43100  0.39000  1.0000
  O   O3        1.0  0.27900  0.56900  0.61000  1.0000
  O   O4        1.0  0.22100  0.06940  0.89000  1.0000
