data_image0
_chemical_formula_structural       Ba4O20Tm8Zn4
_chemical_formula_sum              "Ba4 O20 Tm8 Zn4"
_cell_length_a       6.98854
_cell_length_b       12.1891
_cell_length_c       5.65579
_cell_angle_alpha    90
_cell_angle_beta     90
_cell_angle_gamma    90

_space_group_name_H-M_alt    "P 1"
_space_group_IT_number       1

loop_
  _space_group_symop_operation_xyz
  'x, y, z'

loop_
  _atom_site_type_symbol
  _atom_site_label
  _atom_site_symmetry_multiplicity
  _atom_site_fract_x
  _atom_site_fract_y
  _atom_site_fract_z
  _atom_site_occupancy
  Ba  Ba1       1.0  0.58000  0.39900  0.25000  1.0000
  Ba  Ba2       1.0  0.92000  0.89900  0.25000  1.0000
  Ba  Ba3       1.0  0.08000  0.10100  0.75000  1.0000
  Ba  Ba4       1.0  0.42000  0.60100  0.75000  1.0000
  O   O1        1.0  0.66400  0.06520  0.00000  1.0000
  O   O2        1.0  0.16400  0.43500  0.00000  1.0000
  O   O3        1.0  0.83600  0.56500  0.00000  1.0000
  O   O4        1.0  0.33600  0.93500  0.00000  1.0000
  O   O5        1.0  0.36400  0.22400  0.00107  1.0000
  O   O6        1.0  0.13600  0.72400  0.00107  1.0000
  O   O7        1.0  0.08110  0.10200  0.25000  1.0000
  O   O8        1.0  0.41900  0.60200  0.25000  1.0000
  O   O9        1.0  0.36400  0.22400  0.49900  1.0000
  O   O10       1.0  0.13600  0.72400  0.49900  1.0000
  O   O11       1.0  0.16400  0.43500  0.50000  1.0000
  O   O12       1.0  0.33600  0.93500  0.50000  1.0000
  O   O13       1.0  0.66400  0.06520  0.50000  1.0000
  O   O14       1.0  0.83600  0.56500  0.50000  1.0000
  O   O15       1.0  0.86400  0.27600  0.50100  1.0000
  O   O16       1.0  0.63600  0.77600  0.50100  1.0000
  O   O17       1.0  0.58100  0.39800  0.75000  1.0000
  O   O18       1.0  0.91900  0.89800  0.75000  1.0000
  O   O19       1.0  0.86400  0.27600  0.99900  1.0000
  O   O20       1.0  0.63600  0.77600  0.99900  1.0000
  Tm  Tm1       1.0  0.40200  0.07450  0.25000  1.0000
  Tm  Tm2       1.0  0.12200  0.29200  0.25000  1.0000
  Tm  Tm3       1.0  0.09790  0.57400  0.25000  1.0000
  Tm  Tm4       1.0  0.37800  0.79200  0.25000  1.0000
  Tm  Tm5       1.0  0.62200  0.20800  0.75000  1.0000
  Tm  Tm6       1.0  0.90200  0.42600  0.75000  1.0000
  Tm  Tm7       1.0  0.87800  0.70800  0.75000  1.0000
  Tm  Tm8       1.0  0.59800  0.92600  0.75000  1.0000
  Zn  Zn1       1.0  0.81000  0.15100  0.25000  1.0000
  Zn  Zn2       1.0  0.69000  0.65100  0.25000  1.0000
  Zn  Zn3       1.0  0.31000  0.34900  0.75000  1.0000
  Zn  Zn4       1.0  0.19000  0.84900  0.75000  1.0000
