data_image0
_chemical_formula_structural       Ag6H9I3O18
_chemical_formula_sum              "Ag6 H9 I3 O18"
_cell_length_a       5.89295
_cell_length_b       5.89297
_cell_length_c       12.4999
_cell_angle_alpha    89.9998
_cell_angle_beta     90
_cell_angle_gamma    120

_space_group_name_H-M_alt    "P 1"
_space_group_IT_number       1

loop_
  _space_group_symop_operation_xyz
  'x, y, z'

loop_
  _atom_site_type_symbol
  _atom_site_label
  _atom_site_symmetry_multiplicity
  _atom_site_fract_x
  _atom_site_fract_y
  _atom_site_fract_z
  _atom_site_occupancy
  Ag  Ag1       1.0  0.33300  0.66700  0.05250  1.0000
  Ag  Ag2       1.0  0.33300  0.66700  0.28100  1.0000
  Ag  Ag3       1.0  0.00000  0.00000  0.38600  1.0000
  Ag  Ag4       1.0  0.00000  0.00000  0.61400  1.0000
  Ag  Ag5       1.0  0.66700  0.33300  0.71900  1.0000
  Ag  Ag6       1.0  0.66700  0.33300  0.94700  1.0000
  H   H1        1.0  0.83300  0.16700  0.16700  1.0000
  H   H2        1.0  0.83300  0.66700  0.16700  1.0000
  H   H3        1.0  0.33300  0.16700  0.16700  1.0000
  H   H4        1.0  0.50000  0.50000  0.50000  1.0000
  H   H5        1.0  0.50000  0.00000  0.50000  1.0000
  H   H6        1.0  0.00000  0.50000  0.50000  1.0000
  H   H7        1.0  0.16700  0.83300  0.83300  1.0000
  H   H8        1.0  0.16700  0.33300  0.83300  1.0000
  H   H9        1.0  0.66700  0.83300  0.83300  1.0000
  I   I1        1.0  0.00000  0.00000  0.00000  1.0000
  I   I2        1.0  0.66700  0.33300  0.33300  1.0000
  I   I3        1.0  0.33300  0.66700  0.66700  1.0000
  O   O1        1.0  0.96100  0.71400  0.08550  1.0000
  O   O2        1.0  0.75200  0.03870  0.08550  1.0000
  O   O3        1.0  0.28600  0.24800  0.08550  1.0000
  O   O4        1.0  0.91400  0.29500  0.24800  1.0000
  O   O5        1.0  0.70500  0.62000  0.24800  1.0000
  O   O6        1.0  0.38000  0.08580  0.24800  1.0000
  O   O7        1.0  0.62800  0.04700  0.41900  1.0000
  O   O8        1.0  0.41900  0.37200  0.41900  1.0000
  O   O9        1.0  0.95300  0.58100  0.41900  1.0000
  O   O10       1.0  0.37200  0.95300  0.58100  1.0000
  O   O11       1.0  0.04700  0.41900  0.58100  1.0000
  O   O12       1.0  0.58100  0.62800  0.58100  1.0000
  O   O13       1.0  0.08590  0.70600  0.75200  1.0000
  O   O14       1.0  0.29400  0.38000  0.75200  1.0000
  O   O15       1.0  0.62000  0.91400  0.75200  1.0000
  O   O16       1.0  0.71400  0.75200  0.91400  1.0000
  O   O17       1.0  0.03880  0.28600  0.91400  1.0000
  O   O18       1.0  0.24800  0.96100  0.91400  1.0000
