data_image0
_chemical_formula_structural       Cu4La12O8S12
_chemical_formula_sum              "Cu4 La12 O8 S12"
_cell_length_a       14.0327
_cell_length_b       3.93001
_cell_length_c       12.5215
_cell_angle_alpha    90
_cell_angle_beta     90
_cell_angle_gamma    90

_space_group_name_H-M_alt    "P 1"
_space_group_IT_number       1

loop_
  _space_group_symop_operation_xyz
  'x, y, z'

loop_
  _atom_site_type_symbol
  _atom_site_label
  _atom_site_symmetry_multiplicity
  _atom_site_fract_x
  _atom_site_fract_y
  _atom_site_fract_z
  _atom_site_occupancy
  Cu  Cu1       1.0  0.41400  0.75000  0.17200  1.0000
  Cu  Cu2       1.0  0.91400  0.75000  0.32800  1.0000
  Cu  Cu3       1.0  0.08590  0.25000  0.67200  1.0000
  Cu  Cu4       1.0  0.58600  0.25000  0.82800  1.0000
  La  La1       1.0  0.63200  0.25000  0.09630  1.0000
  La  La2       1.0  0.92300  0.25000  0.10000  1.0000
  La  La3       1.0  0.20800  0.25000  0.11300  1.0000
  La  La4       1.0  0.70800  0.25000  0.38700  1.0000
  La  La5       1.0  0.42300  0.25000  0.40000  1.0000
  La  La6       1.0  0.13200  0.25000  0.40400  1.0000
  La  La7       1.0  0.86800  0.75000  0.59600  1.0000
  La  La8       1.0  0.57700  0.75000  0.60000  1.0000
  La  La9       1.0  0.29200  0.75000  0.61300  1.0000
  La  La10      1.0  0.79200  0.75000  0.88700  1.0000
  La  La11      1.0  0.07740  0.75000  0.90000  1.0000
  La  La12      1.0  0.36800  0.75000  0.90400  1.0000
  O   O1        1.0  0.07350  0.25000  0.00670  1.0000
  O   O2        1.0  0.22900  0.75000  0.00692  1.0000
  O   O3        1.0  0.72900  0.75000  0.49300  1.0000
  O   O4        1.0  0.57400  0.25000  0.49300  1.0000
  O   O5        1.0  0.42600  0.75000  0.50700  1.0000
  O   O6        1.0  0.27100  0.25000  0.50700  1.0000
  O   O7        1.0  0.77100  0.25000  0.99300  1.0000
  O   O8        1.0  0.92600  0.75000  0.99300  1.0000
  S   S1        1.0  0.41300  0.25000  0.06750  1.0000
  S   S2        1.0  0.78100  0.75000  0.21100  1.0000
  S   S3        1.0  0.05560  0.75000  0.23500  1.0000
  S   S4        1.0  0.55600  0.75000  0.26500  1.0000
  S   S5        1.0  0.28100  0.75000  0.28900  1.0000
  S   S6        1.0  0.91300  0.25000  0.43300  1.0000
  S   S7        1.0  0.08690  0.75000  0.56700  1.0000
  S   S8        1.0  0.71900  0.25000  0.71100  1.0000
  S   S9        1.0  0.44400  0.25000  0.73500  1.0000
  S   S10       1.0  0.94400  0.25000  0.76500  1.0000
  S   S11       1.0  0.21900  0.25000  0.78900  1.0000
  S   S12       1.0  0.58700  0.75000  0.93300  1.0000
