data_image0
_chemical_formula_structural       Er8Mo4O24
_chemical_formula_sum              "Er8 Mo4 O24"
_cell_length_a       5.2992
_cell_length_b       9.78421
_cell_length_c       9.78421
_cell_angle_alpha    67.7791
_cell_angle_beta     105.183
_cell_angle_gamma    105.183

_space_group_name_H-M_alt    "P 1"
_space_group_IT_number       1

loop_
  _space_group_symop_operation_xyz
  'x, y, z'

loop_
  _atom_site_type_symbol
  _atom_site_label
  _atom_site_symmetry_multiplicity
  _atom_site_fract_x
  _atom_site_fract_y
  _atom_site_fract_z
  _atom_site_occupancy
  Er  Er1       1.0  0.75000  0.86300  0.13700  1.0000
  Er  Er2       1.0  0.62200  0.44800  0.21700  1.0000
  Er  Er3       1.0  0.25000  0.60700  0.39300  1.0000
  Er  Er4       1.0  0.12200  0.21700  0.44800  1.0000
  Er  Er5       1.0  0.87800  0.78300  0.55200  1.0000
  Er  Er6       1.0  0.75000  0.39300  0.60700  1.0000
  Er  Er7       1.0  0.37800  0.55200  0.78300  1.0000
  Er  Er8       1.0  0.25000  0.13700  0.86300  1.0000
  Mo  Mo1       1.0  0.93700  0.29500  0.01380  1.0000
  Mo  Mo2       1.0  0.43700  0.01380  0.29500  1.0000
  Mo  Mo3       1.0  0.56300  0.98600  0.70500  1.0000
  Mo  Mo4       1.0  0.06260  0.70500  0.98600  1.0000
  O   O1        1.0  0.24500  0.43400  0.02410  1.0000
  O   O2        1.0  0.98800  0.10800  0.04940  1.0000
  O   O3        1.0  0.48800  0.04940  0.10800  1.0000
  O   O4        1.0  0.37500  0.67300  0.11700  1.0000
  O   O5        1.0  0.86200  0.28700  0.18800  1.0000
  O   O6        1.0  0.91800  0.66200  0.19400  1.0000
  O   O7        1.0  0.36200  0.18800  0.28700  1.0000
  O   O8        1.0  0.12500  0.88300  0.32700  1.0000
  O   O9        1.0  0.58200  0.80600  0.33800  1.0000
  O   O10       1.0  0.42100  0.42800  0.39000  1.0000
  O   O11       1.0  0.92100  0.39000  0.42800  1.0000
  O   O12       1.0  0.74500  0.02410  0.43400  1.0000
  O   O13       1.0  0.25500  0.97600  0.56600  1.0000
  O   O14       1.0  0.07890  0.61000  0.57200  1.0000
  O   O15       1.0  0.57900  0.57200  0.61000  1.0000
  O   O16       1.0  0.41800  0.19400  0.66200  1.0000
  O   O17       1.0  0.87500  0.11700  0.67300  1.0000
  O   O18       1.0  0.63800  0.81200  0.71300  1.0000
  O   O19       1.0  0.08230  0.33800  0.80600  1.0000
  O   O20       1.0  0.13800  0.71300  0.81200  1.0000
  O   O21       1.0  0.62500  0.32700  0.88300  1.0000
  O   O22       1.0  0.51200  0.95100  0.89200  1.0000
  O   O23       1.0  0.01220  0.89200  0.95100  1.0000
  O   O24       1.0  0.75500  0.56600  0.97600  1.0000
