data_image0
_chemical_formula_structural       Ho8Mo4O24
_chemical_formula_sum              "Ho8 Mo4 O24"
_cell_length_a       5.31921
_cell_length_b       9.8138
_cell_length_c       9.8138
_cell_angle_alpha    67.8437
_cell_angle_beta     105.132
_cell_angle_gamma    105.132

_space_group_name_H-M_alt    "P 1"
_space_group_IT_number       1

loop_
  _space_group_symop_operation_xyz
  'x, y, z'

loop_
  _atom_site_type_symbol
  _atom_site_label
  _atom_site_symmetry_multiplicity
  _atom_site_fract_x
  _atom_site_fract_y
  _atom_site_fract_z
  _atom_site_occupancy
  Ho  Ho1       1.0  0.75000  0.86400  0.13600  1.0000
  Ho  Ho2       1.0  0.62100  0.44800  0.21600  1.0000
  Ho  Ho3       1.0  0.25000  0.60700  0.39300  1.0000
  Ho  Ho4       1.0  0.12100  0.21600  0.44800  1.0000
  Ho  Ho5       1.0  0.87900  0.78400  0.55200  1.0000
  Ho  Ho6       1.0  0.75000  0.39300  0.60700  1.0000
  Ho  Ho7       1.0  0.37900  0.55200  0.78400  1.0000
  Ho  Ho8       1.0  0.25000  0.13600  0.86400  1.0000
  Mo  Mo1       1.0  0.93800  0.29500  0.01350  1.0000
  Mo  Mo2       1.0  0.43800  0.01350  0.29500  1.0000
  Mo  Mo3       1.0  0.56200  0.98600  0.70500  1.0000
  Mo  Mo4       1.0  0.06230  0.70500  0.98600  1.0000
  O   O1        1.0  0.24400  0.43400  0.02460  1.0000
  O   O2        1.0  0.98800  0.10900  0.05000  1.0000
  O   O3        1.0  0.48800  0.05000  0.10900  1.0000
  O   O4        1.0  0.37400  0.67300  0.11700  1.0000
  O   O5        1.0  0.86200  0.28700  0.18700  1.0000
  O   O6        1.0  0.91700  0.66300  0.19300  1.0000
  O   O7        1.0  0.36200  0.18700  0.28700  1.0000
  O   O8        1.0  0.12600  0.88300  0.32700  1.0000
  O   O9        1.0  0.58300  0.80700  0.33700  1.0000
  O   O10       1.0  0.42100  0.42700  0.39000  1.0000
  O   O11       1.0  0.92100  0.39000  0.42700  1.0000
  O   O12       1.0  0.74400  0.02470  0.43400  1.0000
  O   O13       1.0  0.25600  0.97500  0.56600  1.0000
  O   O14       1.0  0.07870  0.61000  0.57300  1.0000
  O   O15       1.0  0.57900  0.57300  0.61000  1.0000
  O   O16       1.0  0.41700  0.19300  0.66300  1.0000
  O   O17       1.0  0.87400  0.11700  0.67300  1.0000
  O   O18       1.0  0.63800  0.81300  0.71300  1.0000
  O   O19       1.0  0.08280  0.33700  0.80700  1.0000
  O   O20       1.0  0.13800  0.71300  0.81300  1.0000
  O   O21       1.0  0.62600  0.32700  0.88300  1.0000
  O   O22       1.0  0.51200  0.95000  0.89100  1.0000
  O   O23       1.0  0.01160  0.89100  0.95000  1.0000
  O   O24       1.0  0.75600  0.56600  0.97500  1.0000
