data_image0
_chemical_formula_structural       As6Na2O24Zr4
_chemical_formula_sum              "As6 Na2 O24 Zr4"
_cell_length_a       9.21296
_cell_length_b       9.21296
_cell_length_c       9.31093
_cell_angle_alpha    90
_cell_angle_beta     119.653
_cell_angle_gamma    60

_space_group_name_H-M_alt    "P 1"
_space_group_IT_number       1

loop_
  _space_group_symop_operation_xyz
  'x, y, z'

loop_
  _atom_site_type_symbol
  _atom_site_label
  _atom_site_symmetry_multiplicity
  _atom_site_fract_x
  _atom_site_fract_y
  _atom_site_fract_z
  _atom_site_occupancy
  As  As1       1.0  0.20700  0.25000  0.25000  1.0000
  As  As2       1.0  0.50000  0.54300  0.25000  1.0000
  As  As3       1.0  0.79300  0.95700  0.25000  1.0000
  As  As4       1.0  0.20700  0.04320  0.75000  1.0000
  As  As5       1.0  0.50000  0.45700  0.75000  1.0000
  As  As6       1.0  0.79300  0.75000  0.75000  1.0000
  Na  Na1       1.0  0.00000  0.00000  0.00000  1.0000
  Na  Na2       1.0  0.00000  0.50000  0.50000  1.0000
  O   O1        1.0  0.56900  0.12500  0.06690  1.0000
  O   O2        1.0  0.19100  0.30600  0.06690  1.0000
  O   O3        1.0  0.37300  0.50200  0.06690  1.0000
  O   O4        1.0  0.18100  0.07970  0.24000  1.0000
  O   O5        1.0  0.32000  0.73900  0.24000  1.0000
  O   O6        1.0  0.98000  0.94100  0.24000  1.0000
  O   O7        1.0  0.02030  0.42000  0.26000  1.0000
  O   O8        1.0  0.68000  0.55900  0.26000  1.0000
  O   O9        1.0  0.81900  0.76100  0.26000  1.0000
  O   O10       1.0  0.43100  0.19400  0.43300  1.0000
  O   O11       1.0  0.62700  0.37500  0.43300  1.0000
  O   O12       1.0  0.80900  0.99800  0.43300  1.0000
  O   O13       1.0  0.19100  0.00220  0.56700  1.0000
  O   O14       1.0  0.37300  0.62500  0.56700  1.0000
  O   O15       1.0  0.56900  0.80600  0.56700  1.0000
  O   O16       1.0  0.18100  0.23900  0.74000  1.0000
  O   O17       1.0  0.32000  0.44100  0.74000  1.0000
  O   O18       1.0  0.98000  0.58000  0.74000  1.0000
  O   O19       1.0  0.02030  0.05930  0.76000  1.0000
  O   O20       1.0  0.68000  0.26100  0.76000  1.0000
  O   O21       1.0  0.81900  0.92000  0.76000  1.0000
  O   O22       1.0  0.62700  0.49800  0.93300  1.0000
  O   O23       1.0  0.80900  0.69400  0.93300  1.0000
  O   O24       1.0  0.43100  0.87500  0.93300  1.0000
  Zr  Zr1       1.0  0.71600  0.64200  0.07420  1.0000
  Zr  Zr2       1.0  0.28400  0.85800  0.42600  1.0000
  Zr  Zr3       1.0  0.71600  0.14200  0.57400  1.0000
  Zr  Zr4       1.0  0.28400  0.35800  0.92600  1.0000
