data_image0
_chemical_formula_structural       Ho8Si16Ti12
_chemical_formula_sum              "Ho8 Si16 Ti12"
_cell_length_a       7.03148
_cell_length_b       7.03148
_cell_length_c       12.9184
_cell_angle_alpha    90
_cell_angle_beta     90
_cell_angle_gamma    90

_space_group_name_H-M_alt    "P 1"
_space_group_IT_number       1

loop_
  _space_group_symop_operation_xyz
  'x, y, z'

loop_
  _atom_site_type_symbol
  _atom_site_label
  _atom_site_symmetry_multiplicity
  _atom_site_fract_x
  _atom_site_fract_y
  _atom_site_fract_z
  _atom_site_occupancy
  Ho  Ho1       1.0  0.99800  0.65900  0.03340  1.0000
  Ho  Ho2       1.0  0.50200  0.15900  0.21700  1.0000
  Ho  Ho3       1.0  0.84100  0.49800  0.28300  1.0000
  Ho  Ho4       1.0  0.34100  0.00235  0.46700  1.0000
  Ho  Ho5       1.0  0.00235  0.34100  0.53300  1.0000
  Ho  Ho6       1.0  0.49800  0.84100  0.71700  1.0000
  Ho  Ho7       1.0  0.15900  0.50200  0.78300  1.0000
  Ho  Ho8       1.0  0.65900  0.99800  0.96700  1.0000
  Si  Si1       1.0  0.29100  0.95300  0.06480  1.0000
  Si  Si2       1.0  0.70200  0.36900  0.06580  1.0000
  Si  Si3       1.0  0.79800  0.86900  0.18400  1.0000
  Si  Si4       1.0  0.20900  0.45300  0.18500  1.0000
  Si  Si5       1.0  0.54700  0.79100  0.31500  1.0000
  Si  Si6       1.0  0.13100  0.20200  0.31600  1.0000
  Si  Si7       1.0  0.63100  0.29800  0.43400  1.0000
  Si  Si8       1.0  0.04660  0.70900  0.43500  1.0000
  Si  Si9       1.0  0.70900  0.04660  0.56500  1.0000
  Si  Si10      1.0  0.29800  0.63100  0.56600  1.0000
  Si  Si11      1.0  0.20200  0.13100  0.68400  1.0000
  Si  Si12      1.0  0.79100  0.54700  0.68500  1.0000
  Si  Si13      1.0  0.45300  0.20900  0.81500  1.0000
  Si  Si14      1.0  0.86900  0.79800  0.81600  1.0000
  Si  Si15      1.0  0.36900  0.70200  0.93400  1.0000
  Si  Si16      1.0  0.95300  0.29100  0.93500  1.0000
  Ti  Ti1       1.0  0.32700  0.32700  0.00000  1.0000
  Ti  Ti2       1.0  0.00753  0.15200  0.12400  1.0000
  Ti  Ti3       1.0  0.49200  0.65200  0.12600  1.0000
  Ti  Ti4       1.0  0.17300  0.82700  0.25000  1.0000
  Ti  Ti5       1.0  0.34800  0.50800  0.37400  1.0000
  Ti  Ti6       1.0  0.84800  0.99200  0.37600  1.0000
  Ti  Ti7       1.0  0.67300  0.67300  0.50000  1.0000
  Ti  Ti8       1.0  0.99200  0.84800  0.62400  1.0000
  Ti  Ti9       1.0  0.50800  0.34800  0.62600  1.0000
  Ti  Ti10      1.0  0.82700  0.17300  0.75000  1.0000
  Ti  Ti11      1.0  0.65200  0.49200  0.87400  1.0000
  Ti  Ti12      1.0  0.15200  0.00753  0.87600  1.0000
