data_image0
_chemical_formula_structural       LiMnO6Pd
_chemical_formula_sum              "Li1 Mn1 O6 Pd1"
_cell_length_a       5.01171
_cell_length_b       5.01171
_cell_length_c       4.7943
_cell_angle_alpha    98.0087
_cell_angle_beta     98.0087
_cell_angle_gamma    120.584

_space_group_name_H-M_alt    "P 1"
_space_group_IT_number       1

loop_
  _space_group_symop_operation_xyz
  'x, y, z'

loop_
  _atom_site_type_symbol
  _atom_site_label
  _atom_site_symmetry_multiplicity
  _atom_site_fract_x
  _atom_site_fract_y
  _atom_site_fract_z
  _atom_site_occupancy
  Li  Li1       1.0  0.62600  0.37400  0.50000  1.0000
  Mn  Mn1       1.0  0.17800  0.82200  0.00000  1.0000
  O   O1        1.0  0.22500  0.19900  0.22100  1.0000
  O   O2        1.0  0.92400  0.56500  0.22800  1.0000
  O   O3        1.0  0.55800  0.92900  0.24500  1.0000
  O   O4        1.0  0.07100  0.44200  0.75500  1.0000
  O   O5        1.0  0.43500  0.07560  0.77200  1.0000
  O   O6        1.0  0.80100  0.77500  0.77900  1.0000
  Pd  Pd1       1.0  0.84300  0.15700  0.00000  1.0000
