data_image0
_chemical_formula_structural       HfMnO6
_chemical_formula_sum              "Hf1 Mn1 O6"
_cell_length_a       5.47203
_cell_length_b       5.47201
_cell_length_c       4.41365
_cell_angle_alpha    106.969
_cell_angle_beta     106.969
_cell_angle_gamma    121.366

_space_group_name_H-M_alt    "P 1"
_space_group_IT_number       1

loop_
  _space_group_symop_operation_xyz
  'x, y, z'

loop_
  _atom_site_type_symbol
  _atom_site_label
  _atom_site_symmetry_multiplicity
  _atom_site_fract_x
  _atom_site_fract_y
  _atom_site_fract_z
  _atom_site_occupancy
  Hf  Hf1       1.0  0.84600  0.15400  0.00000  1.0000
  Mn  Mn1       1.0  0.15900  0.84100  0.00000  1.0000
  O   O1        1.0  0.27400  0.25300  0.26600  1.0000
  O   O2        1.0  0.59100  0.97600  0.26900  1.0000
  O   O3        1.0  0.04110  0.68700  0.31200  1.0000
  O   O4        1.0  0.31300  0.95900  0.68800  1.0000
  O   O5        1.0  0.02380  0.40900  0.73100  1.0000
  O   O6        1.0  0.74700  0.72600  0.73400  1.0000
