data_image0
_chemical_formula_structural       Fe8Na12S16
_chemical_formula_sum              "Fe8 Na12 S16"
_cell_length_a       6.58673
_cell_length_b       10.4489
_cell_length_c       10.6616
_cell_angle_alpha    90
_cell_angle_beta     90
_cell_angle_gamma    90

_space_group_name_H-M_alt    "P 1"
_space_group_IT_number       1

loop_
  _space_group_symop_operation_xyz
  'x, y, z'

loop_
  _atom_site_type_symbol
  _atom_site_label
  _atom_site_symmetry_multiplicity
  _atom_site_fract_x
  _atom_site_fract_y
  _atom_site_fract_z
  _atom_site_occupancy
  Fe  Fe1       1.0  0.55000  0.12600  0.02840  1.0000
  Fe  Fe2       1.0  0.55000  0.37400  0.02840  1.0000
  Fe  Fe3       1.0  0.04980  0.12600  0.47200  1.0000
  Fe  Fe4       1.0  0.04980  0.37400  0.47200  1.0000
  Fe  Fe5       1.0  0.95000  0.62600  0.52800  1.0000
  Fe  Fe6       1.0  0.95000  0.87400  0.52800  1.0000
  Fe  Fe7       1.0  0.45000  0.62600  0.97200  1.0000
  Fe  Fe8       1.0  0.45000  0.87400  0.97200  1.0000
  Na  Na1       1.0  0.04790  0.08260  0.14300  1.0000
  Na  Na2       1.0  0.04790  0.41700  0.14300  1.0000
  Na  Na3       1.0  0.91400  0.75000  0.23800  1.0000
  Na  Na4       1.0  0.41400  0.75000  0.26200  1.0000
  Na  Na5       1.0  0.54800  0.08260  0.35700  1.0000
  Na  Na6       1.0  0.54800  0.41700  0.35700  1.0000
  Na  Na7       1.0  0.45200  0.58300  0.64300  1.0000
  Na  Na8       1.0  0.45200  0.91700  0.64300  1.0000
  Na  Na9       1.0  0.58600  0.25000  0.73800  1.0000
  Na  Na10      1.0  0.08630  0.25000  0.76200  1.0000
  Na  Na11      1.0  0.95200  0.58300  0.85700  1.0000
  Na  Na12      1.0  0.95200  0.91700  0.85700  1.0000
  S   S1        1.0  0.18600  0.75000  0.03730  1.0000
  S   S2        1.0  0.66500  0.55300  0.12400  1.0000
  S   S3        1.0  0.66500  0.94700  0.12400  1.0000
  S   S4        1.0  0.38200  0.25000  0.16600  1.0000
  S   S5        1.0  0.88200  0.25000  0.33400  1.0000
  S   S6        1.0  0.16500  0.55300  0.37600  1.0000
  S   S7        1.0  0.16500  0.94700  0.37600  1.0000
  S   S8        1.0  0.68600  0.75000  0.46300  1.0000
  S   S9        1.0  0.31400  0.25000  0.53700  1.0000
  S   S10       1.0  0.83500  0.05270  0.62400  1.0000
  S   S11       1.0  0.83500  0.44700  0.62400  1.0000
  S   S12       1.0  0.11800  0.75000  0.66600  1.0000
  S   S13       1.0  0.61800  0.75000  0.83400  1.0000
  S   S14       1.0  0.33500  0.05270  0.87600  1.0000
  S   S15       1.0  0.33500  0.44700  0.87600  1.0000
  S   S16       1.0  0.81400  0.25000  0.96300  1.0000
