data_image0
_chemical_formula_structural       B24Rh4Sc8
_chemical_formula_sum              "B24 Rh4 Sc8"
_cell_length_a       8.90643
_cell_length_b       11.1879
_cell_length_c       3.45861
_cell_angle_alpha    90
_cell_angle_beta     90
_cell_angle_gamma    90

_space_group_name_H-M_alt    "P 1"
_space_group_IT_number       1

loop_
  _space_group_symop_operation_xyz
  'x, y, z'

loop_
  _atom_site_type_symbol
  _atom_site_label
  _atom_site_symmetry_multiplicity
  _atom_site_fract_x
  _atom_site_fract_y
  _atom_site_fract_z
  _atom_site_occupancy
  B   B1        1.0  0.60300  0.02770  0.50000  1.0000
  B   B2        1.0  0.05400  0.06360  0.50000  1.0000
  B   B3        1.0  0.25300  0.07810  0.50000  1.0000
  B   B4        1.0  0.63200  0.18100  0.50000  1.0000
  B   B5        1.0  0.98000  0.21300  0.50000  1.0000
  B   B6        1.0  0.29600  0.23800  0.50000  1.0000
  B   B7        1.0  0.79600  0.26200  0.50000  1.0000
  B   B8        1.0  0.48000  0.28700  0.50000  1.0000
  B   B9        1.0  0.13200  0.31900  0.50000  1.0000
  B   B10       1.0  0.75300  0.42200  0.50000  1.0000
  B   B11       1.0  0.55400  0.43600  0.50000  1.0000
  B   B12       1.0  0.10300  0.47200  0.50000  1.0000
  B   B13       1.0  0.89700  0.52800  0.50000  1.0000
  B   B14       1.0  0.44600  0.56400  0.50000  1.0000
  B   B15       1.0  0.24700  0.57800  0.50000  1.0000
  B   B16       1.0  0.86800  0.68100  0.50000  1.0000
  B   B17       1.0  0.52000  0.71300  0.50000  1.0000
  B   B18       1.0  0.20400  0.73800  0.50000  1.0000
  B   B19       1.0  0.70400  0.76200  0.50000  1.0000
  B   B20       1.0  0.02010  0.78700  0.50000  1.0000
  B   B21       1.0  0.36800  0.81900  0.50000  1.0000
  B   B22       1.0  0.74700  0.92200  0.50000  1.0000
  B   B23       1.0  0.94600  0.93600  0.50000  1.0000
  B   B24       1.0  0.39700  0.97200  0.50000  1.0000
  Rh  Rh1       1.0  0.14100  0.18000  0.00000  1.0000
  Rh  Rh2       1.0  0.64100  0.32000  0.00000  1.0000
  Rh  Rh3       1.0  0.35900  0.68000  0.00000  1.0000
  Rh  Rh4       1.0  0.85900  0.82000  0.00000  1.0000
  Sc  Sc1       1.0  0.81900  0.08570  0.00000  1.0000
  Sc  Sc2       1.0  0.44500  0.12600  0.00000  1.0000
  Sc  Sc3       1.0  0.94500  0.37400  0.00000  1.0000
  Sc  Sc4       1.0  0.31900  0.41400  0.00000  1.0000
  Sc  Sc5       1.0  0.68100  0.58600  0.00000  1.0000
  Sc  Sc6       1.0  0.05550  0.62600  0.00000  1.0000
  Sc  Sc7       1.0  0.55500  0.87400  0.00000  1.0000
  Sc  Sc8       1.0  0.18100  0.91400  0.00000  1.0000
