data_image0
_chemical_formula_structural       As4Cr4O16
_chemical_formula_sum              "As4 Cr4 O16"
_cell_length_a       9.03057
_cell_length_b       6.26938
_cell_length_c       4.73958
_cell_angle_alpha    90
_cell_angle_beta     90
_cell_angle_gamma    90

_space_group_name_H-M_alt    "P 1"
_space_group_IT_number       1

loop_
  _space_group_symop_operation_xyz
  'x, y, z'

loop_
  _atom_site_type_symbol
  _atom_site_label
  _atom_site_symmetry_multiplicity
  _atom_site_fract_x
  _atom_site_fract_y
  _atom_site_fract_z
  _atom_site_occupancy
  As  As1       1.0  0.68200  0.25000  0.02180  1.0000
  As  As2       1.0  0.18200  0.25000  0.47800  1.0000
  As  As3       1.0  0.81800  0.75000  0.52200  1.0000
  As  As4       1.0  0.31800  0.75000  0.97800  1.0000
  Cr  Cr1       1.0  0.00000  0.00000  0.00000  1.0000
  Cr  Cr2       1.0  0.00000  0.50000  0.00000  1.0000
  Cr  Cr3       1.0  0.50000  0.00000  0.50000  1.0000
  Cr  Cr4       1.0  0.50000  0.50000  0.50000  1.0000
  O   O1        1.0  0.87300  0.25000  0.10100  1.0000
  O   O2        1.0  0.62700  0.01680  0.16800  1.0000
  O   O3        1.0  0.62700  0.48300  0.16800  1.0000
  O   O4        1.0  0.88300  0.75000  0.17400  1.0000
  O   O5        1.0  0.38300  0.75000  0.32600  1.0000
  O   O6        1.0  0.12700  0.01680  0.33200  1.0000
  O   O7        1.0  0.12700  0.48300  0.33200  1.0000
  O   O8        1.0  0.37300  0.25000  0.39900  1.0000
  O   O9        1.0  0.62700  0.75000  0.60100  1.0000
  O   O10       1.0  0.87300  0.51700  0.66800  1.0000
  O   O11       1.0  0.87300  0.98300  0.66800  1.0000
  O   O12       1.0  0.61700  0.25000  0.67400  1.0000
  O   O13       1.0  0.11700  0.25000  0.82600  1.0000
  O   O14       1.0  0.37300  0.51700  0.83200  1.0000
  O   O15       1.0  0.37300  0.98300  0.83200  1.0000
  O   O16       1.0  0.12700  0.75000  0.89900  1.0000
