data_image0
_chemical_formula_structural       Se12Ti24
_chemical_formula_sum              "Se12 Ti24"
_cell_length_a       11.7331
_cell_length_b       14.5049
_cell_length_c       3.43984
_cell_angle_alpha    90
_cell_angle_beta     90
_cell_angle_gamma    90

_space_group_name_H-M_alt    "P 1"
_space_group_IT_number       1

loop_
  _space_group_symop_operation_xyz
  'x, y, z'

loop_
  _atom_site_type_symbol
  _atom_site_label
  _atom_site_symmetry_multiplicity
  _atom_site_fract_x
  _atom_site_fract_y
  _atom_site_fract_z
  _atom_site_occupancy
  Se  Se1       1.0  0.43200  0.20600  0.00000  1.0000
  Se  Se2       1.0  0.68700  0.35000  0.00000  1.0000
  Se  Se3       1.0  0.24500  0.41400  0.00000  1.0000
  Se  Se4       1.0  0.75500  0.58600  0.00000  1.0000
  Se  Se5       1.0  0.31300  0.65000  0.00000  1.0000
  Se  Se6       1.0  0.56800  0.79400  0.00000  1.0000
  Se  Se7       1.0  0.74500  0.08600  0.50000  1.0000
  Se  Se8       1.0  0.18700  0.15000  0.50000  1.0000
  Se  Se9       1.0  0.93200  0.29400  0.50000  1.0000
  Se  Se10      1.0  0.06800  0.70600  0.50000  1.0000
  Se  Se11      1.0  0.81300  0.85000  0.50000  1.0000
  Se  Se12      1.0  0.25500  0.91400  0.50000  1.0000
  Ti  Ti1       1.0  0.14300  0.02040  0.00000  1.0000
  Ti  Ti2       1.0  0.58500  0.07580  0.00000  1.0000
  Ti  Ti3       1.0  0.81300  0.20500  0.00000  1.0000
  Ti  Ti4       1.0  0.09090  0.26100  0.00000  1.0000
  Ti  Ti5       1.0  0.47100  0.39200  0.00000  1.0000
  Ti  Ti6       1.0  0.88600  0.42700  0.00000  1.0000
  Ti  Ti7       1.0  0.11400  0.57300  0.00000  1.0000
  Ti  Ti8       1.0  0.52900  0.60800  0.00000  1.0000
  Ti  Ti9       1.0  0.90900  0.73900  0.00000  1.0000
  Ti  Ti10      1.0  0.18700  0.79500  0.00000  1.0000
  Ti  Ti11      1.0  0.41500  0.92400  0.00000  1.0000
  Ti  Ti12      1.0  0.85700  0.98000  0.00000  1.0000
  Ti  Ti13      1.0  0.38600  0.07350  0.50000  1.0000
  Ti  Ti14      1.0  0.97100  0.10800  0.50000  1.0000
  Ti  Ti15      1.0  0.59100  0.23900  0.50000  1.0000
  Ti  Ti16      1.0  0.31300  0.29500  0.50000  1.0000
  Ti  Ti17      1.0  0.08500  0.42400  0.50000  1.0000
  Ti  Ti18      1.0  0.64300  0.48000  0.50000  1.0000
  Ti  Ti19      1.0  0.35700  0.52000  0.50000  1.0000
  Ti  Ti20      1.0  0.91500  0.57600  0.50000  1.0000
  Ti  Ti21      1.0  0.68700  0.70500  0.50000  1.0000
  Ti  Ti22      1.0  0.40900  0.76100  0.50000  1.0000
  Ti  Ti23      1.0  0.02940  0.89200  0.50000  1.0000
  Ti  Ti24      1.0  0.61400  0.92700  0.50000  1.0000
