data_image0
_chemical_formula_structural       C4Eu8I12Li4N8
_chemical_formula_sum              "C4 Eu8 I12 Li4 N8"
_cell_length_a       10.601
_cell_length_b       10.601
_cell_length_c       10.601
_cell_angle_alpha    120
_cell_angle_beta     90
_cell_angle_gamma    120

_space_group_name_H-M_alt    "P 1"
_space_group_IT_number       1

loop_
  _space_group_symop_operation_xyz
  'x, y, z'

loop_
  _atom_site_type_symbol
  _atom_site_label
  _atom_site_symmetry_multiplicity
  _atom_site_fract_x
  _atom_site_fract_y
  _atom_site_fract_z
  _atom_site_occupancy
  C   C1        1.0  0.00000  0.00000  0.00000  1.0000
  C   C2        1.0  0.50000  0.00000  0.00000  1.0000
  C   C3        1.0  0.50000  0.50000  0.00000  1.0000
  C   C4        1.0  0.50000  0.50000  0.50000  1.0000
  Eu  Eu1       1.0  0.71600  0.93200  0.14900  1.0000
  Eu  Eu2       1.0  0.28400  0.43200  0.21600  1.0000
  Eu  Eu3       1.0  0.64900  0.43200  0.21600  1.0000
  Eu  Eu4       1.0  0.28400  0.06750  0.21600  1.0000
  Eu  Eu5       1.0  0.35100  0.56800  0.78400  1.0000
  Eu  Eu6       1.0  0.71600  0.56800  0.78400  1.0000
  Eu  Eu7       1.0  0.71600  0.93200  0.78400  1.0000
  Eu  Eu8       1.0  0.28400  0.06750  0.85100  1.0000
  I   I1        1.0  0.92500  0.35000  0.17500  1.0000
  I   I2        1.0  0.92500  0.75000  0.17500  1.0000
  I   I3        1.0  0.32500  0.75000  0.17500  1.0000
  I   I4        1.0  0.07480  0.25000  0.42500  1.0000
  I   I5        1.0  0.67500  0.85000  0.42500  1.0000
  I   I6        1.0  0.67500  0.25000  0.42500  1.0000
  I   I7        1.0  0.32500  0.15000  0.57500  1.0000
  I   I8        1.0  0.32500  0.75000  0.57500  1.0000
  I   I9        1.0  0.92500  0.75000  0.57500  1.0000
  I   I10       1.0  0.07480  0.65000  0.82500  1.0000
  I   I11       1.0  0.07480  0.25000  0.82500  1.0000
  I   I12       1.0  0.67500  0.25000  0.82500  1.0000
  Li  Li1       1.0  0.00000  0.50000  0.00000  1.0000
  Li  Li2       1.0  0.50000  0.00000  0.50000  1.0000
  Li  Li3       1.0  0.00000  0.00000  0.50000  1.0000
  Li  Li4       1.0  0.00000  0.50000  0.50000  1.0000
  N   N1        1.0  0.14300  0.09540  0.04770  1.0000
  N   N2        1.0  0.45200  0.09540  0.04770  1.0000
  N   N3        1.0  0.45200  0.40500  0.04770  1.0000
  N   N4        1.0  0.45200  0.40500  0.35700  1.0000
  N   N5        1.0  0.54800  0.59500  0.64300  1.0000
  N   N6        1.0  0.54800  0.59500  0.95200  1.0000
  N   N7        1.0  0.54800  0.90500  0.95200  1.0000
  N   N8        1.0  0.85700  0.90500  0.95200  1.0000
