data_image0
_chemical_formula_structural       CrLiMnO6
_chemical_formula_sum              "Cr1 Li1 Mn1 O6"
_cell_length_a       4.89156
_cell_length_b       4.89156
_cell_length_c       4.84105
_cell_angle_alpha    98.4645
_cell_angle_beta     98.4645
_cell_angle_gamma    120.178

_space_group_name_H-M_alt    "P 1"
_space_group_IT_number       1

loop_
  _space_group_symop_operation_xyz
  'x, y, z'

loop_
  _atom_site_type_symbol
  _atom_site_label
  _atom_site_symmetry_multiplicity
  _atom_site_fract_x
  _atom_site_fract_y
  _atom_site_fract_z
  _atom_site_occupancy
  Cr  Cr1       1.0  0.17800  0.82200  0.00000  1.0000
  Li  Li1       1.0  0.62400  0.37600  0.50000  1.0000
  Mn  Mn1       1.0  0.84100  0.15900  0.00000  1.0000
  O   O1        1.0  0.20200  0.18600  0.21900  1.0000
  O   O2        1.0  0.94800  0.56700  0.22700  1.0000
  O   O3        1.0  0.56400  0.94700  0.23300  1.0000
  O   O4        1.0  0.05260  0.43600  0.76700  1.0000
  O   O5        1.0  0.43300  0.05200  0.77300  1.0000
  O   O6        1.0  0.81400  0.79800  0.78100  1.0000
