data_image0
_chemical_formula_structural       Mo4O24Y8
_chemical_formula_sum              "Mo4 O24 Y8"
_cell_length_a       5.34964
_cell_length_b       9.85853
_cell_length_c       9.85853
_cell_angle_alpha    67.8661
_cell_angle_beta     105.143
_cell_angle_gamma    105.143

_space_group_name_H-M_alt    "P 1"
_space_group_IT_number       1

loop_
  _space_group_symop_operation_xyz
  'x, y, z'

loop_
  _atom_site_type_symbol
  _atom_site_label
  _atom_site_symmetry_multiplicity
  _atom_site_fract_x
  _atom_site_fract_y
  _atom_site_fract_z
  _atom_site_occupancy
  Mo  Mo1       1.0  0.93800  0.29500  0.01310  1.0000
  Mo  Mo2       1.0  0.43800  0.01310  0.29500  1.0000
  Mo  Mo3       1.0  0.56200  0.98700  0.70500  1.0000
  Mo  Mo4       1.0  0.06180  0.70500  0.98700  1.0000
  O   O1        1.0  0.24200  0.43400  0.02450  1.0000
  O   O2        1.0  0.98900  0.11000  0.05000  1.0000
  O   O3        1.0  0.48900  0.05000  0.11000  1.0000
  O   O4        1.0  0.37200  0.67300  0.11600  1.0000
  O   O5        1.0  0.86300  0.28700  0.18600  1.0000
  O   O6        1.0  0.91800  0.66300  0.19200  1.0000
  O   O7        1.0  0.36300  0.18600  0.28700  1.0000
  O   O8        1.0  0.12800  0.88400  0.32700  1.0000
  O   O9        1.0  0.58200  0.80800  0.33700  1.0000
  O   O10       1.0  0.42200  0.42700  0.39000  1.0000
  O   O11       1.0  0.92200  0.39000  0.42700  1.0000
  O   O12       1.0  0.74200  0.02450  0.43400  1.0000
  O   O13       1.0  0.25800  0.97500  0.56600  1.0000
  O   O14       1.0  0.07850  0.61000  0.57300  1.0000
  O   O15       1.0  0.57800  0.57300  0.61000  1.0000
  O   O16       1.0  0.41800  0.19200  0.66300  1.0000
  O   O17       1.0  0.87200  0.11600  0.67300  1.0000
  O   O18       1.0  0.63700  0.81400  0.71300  1.0000
  O   O19       1.0  0.08220  0.33700  0.80800  1.0000
  O   O20       1.0  0.13700  0.71300  0.81400  1.0000
  O   O21       1.0  0.62800  0.32700  0.88400  1.0000
  O   O22       1.0  0.51100  0.95000  0.89000  1.0000
  O   O23       1.0  0.01140  0.89000  0.95000  1.0000
  O   O24       1.0  0.75800  0.56600  0.97500  1.0000
  Y   Y1        1.0  0.75000  0.86400  0.13600  1.0000
  Y   Y2        1.0  0.62000  0.44700  0.21500  1.0000
  Y   Y3        1.0  0.25000  0.60700  0.39300  1.0000
  Y   Y4        1.0  0.12000  0.21500  0.44700  1.0000
  Y   Y5        1.0  0.88000  0.78500  0.55300  1.0000
  Y   Y6        1.0  0.75000  0.39300  0.60700  1.0000
  Y   Y7        1.0  0.38000  0.55300  0.78500  1.0000
  Y   Y8        1.0  0.25000  0.13600  0.86400  1.0000
