data_image0
_chemical_formula_structural       Au4Bi8Na4O20
_chemical_formula_sum              "Au4 Bi8 Na4 O20"
_cell_length_a       12.3443
_cell_length_b       12.3443
_cell_length_c       3.63066
_cell_angle_alpha    90
_cell_angle_beta     90
_cell_angle_gamma    90

_space_group_name_H-M_alt    "P 1"
_space_group_IT_number       1

loop_
  _space_group_symop_operation_xyz
  'x, y, z'

loop_
  _atom_site_type_symbol
  _atom_site_label
  _atom_site_symmetry_multiplicity
  _atom_site_fract_x
  _atom_site_fract_y
  _atom_site_fract_z
  _atom_site_occupancy
  Au  Au1       1.0  0.00000  0.00000  0.50000  1.0000
  Au  Au2       1.0  0.50000  0.00000  0.50000  1.0000
  Au  Au3       1.0  0.00000  0.50000  0.50000  1.0000
  Au  Au4       1.0  0.50000  0.50000  0.50000  1.0000
  Bi  Bi1       1.0  0.76900  0.04880  0.00437  1.0000
  Bi  Bi2       1.0  0.26900  0.45100  0.00437  1.0000
  Bi  Bi3       1.0  0.73100  0.54900  0.00437  1.0000
  Bi  Bi4       1.0  0.23100  0.95100  0.00437  1.0000
  Bi  Bi5       1.0  0.04880  0.23100  0.99600  1.0000
  Bi  Bi6       1.0  0.54900  0.26900  0.99600  1.0000
  Bi  Bi7       1.0  0.45100  0.73100  0.99600  1.0000
  Bi  Bi8       1.0  0.95100  0.76900  0.99600  1.0000
  Na  Na1       1.0  0.30000  0.20000  0.50000  1.0000
  Na  Na2       1.0  0.80000  0.30000  0.50000  1.0000
  Na  Na3       1.0  0.20000  0.70000  0.50000  1.0000
  Na  Na4       1.0  0.70000  0.80000  0.50000  1.0000
  O   O1        1.0  0.71200  0.21200  0.00000  1.0000
  O   O2        1.0  0.21200  0.28800  0.00000  1.0000
  O   O3        1.0  0.78800  0.71200  0.00000  1.0000
  O   O4        1.0  0.28800  0.78800  0.00000  1.0000
  O   O5        1.0  0.49500  0.16300  0.49800  1.0000
  O   O6        1.0  0.99500  0.33700  0.49800  1.0000
  O   O7        1.0  0.00473  0.66300  0.49800  1.0000
  O   O8        1.0  0.50500  0.83700  0.49800  1.0000
  O   O9        1.0  0.11700  0.11600  0.50000  1.0000
  O   O10       1.0  0.61700  0.38400  0.50000  1.0000
  O   O11       1.0  0.38300  0.61600  0.50000  1.0000
  O   O12       1.0  0.88300  0.88400  0.50000  1.0000
  O   O13       1.0  0.88400  0.11700  0.50000  1.0000
  O   O14       1.0  0.38400  0.38300  0.50000  1.0000
  O   O15       1.0  0.61600  0.61700  0.50000  1.0000
  O   O16       1.0  0.11600  0.88300  0.50000  1.0000
  O   O17       1.0  0.33700  0.00473  0.50200  1.0000
  O   O18       1.0  0.83700  0.49500  0.50200  1.0000
  O   O19       1.0  0.16300  0.50500  0.50200  1.0000
  O   O20       1.0  0.66300  0.99500  0.50200  1.0000
