data_image0
_chemical_formula_structural       LiMnO6W
_chemical_formula_sum              "Li1 Mn1 O6 W1"
_cell_length_a       5.13345
_cell_length_b       5.13345
_cell_length_c       4.7698
_cell_angle_alpha    97.1056
_cell_angle_beta     97.1056
_cell_angle_gamma    123.836

_space_group_name_H-M_alt    "P 1"
_space_group_IT_number       1

loop_
  _space_group_symop_operation_xyz
  'x, y, z'

loop_
  _atom_site_type_symbol
  _atom_site_label
  _atom_site_symmetry_multiplicity
  _atom_site_fract_x
  _atom_site_fract_y
  _atom_site_fract_z
  _atom_site_occupancy
  Li  Li1       1.0  0.37300  0.62700  0.50000  1.0000
  Mn  Mn1       1.0  0.82900  0.17100  0.00000  1.0000
  O   O1        1.0  0.54300  0.90900  0.21200  1.0000
  O   O2        1.0  0.93300  0.55500  0.23200  1.0000
  O   O3        1.0  0.19800  0.21000  0.23900  1.0000
  O   O4        1.0  0.79000  0.80200  0.76100  1.0000
  O   O5        1.0  0.44500  0.06730  0.76800  1.0000
  O   O6        1.0  0.09100  0.45700  0.78800  1.0000
  W   W1        1.0  0.13900  0.86100  0.00000  1.0000
