data_image0
_chemical_formula_structural       B16Ru16U4
_chemical_formula_sum              "B16 Ru16 U4"
_cell_length_a       9.19897
_cell_length_b       7.47616
_cell_length_c       7.47616
_cell_angle_alpha    90
_cell_angle_beta     113.976
_cell_angle_gamma    113.976

_space_group_name_H-M_alt    "P 1"
_space_group_IT_number       1

loop_
  _space_group_symop_operation_xyz
  'x, y, z'

loop_
  _atom_site_type_symbol
  _atom_site_label
  _atom_site_symmetry_multiplicity
  _atom_site_fract_x
  _atom_site_fract_y
  _atom_site_fract_z
  _atom_site_occupancy
  B   B1        1.0  0.91600  0.62700  0.06770  1.0000
  B   B2        1.0  0.41600  0.84800  0.12700  1.0000
  B   B3        1.0  0.08440  0.87300  0.15200  1.0000
  B   B4        1.0  0.58400  0.43200  0.21200  1.0000
  B   B5        1.0  0.41600  0.34800  0.28800  1.0000
  B   B6        1.0  0.91600  0.28800  0.34800  1.0000
  B   B7        1.0  0.58400  0.93200  0.37300  1.0000
  B   B8        1.0  0.08440  0.21200  0.43200  1.0000
  B   B9        1.0  0.91600  0.78800  0.56800  1.0000
  B   B10       1.0  0.41600  0.06770  0.62700  1.0000
  B   B11       1.0  0.08440  0.71200  0.65200  1.0000
  B   B12       1.0  0.58400  0.65200  0.71200  1.0000
  B   B13       1.0  0.41600  0.56800  0.78800  1.0000
  B   B14       1.0  0.91600  0.12700  0.84800  1.0000
  B   B15       1.0  0.58400  0.15200  0.87300  1.0000
  B   B16       1.0  0.08440  0.37300  0.93200  1.0000
  Ru  Ru1       1.0  0.87400  0.32300  0.03410  1.0000
  Ru  Ru2       1.0  0.37400  0.53400  0.05120  1.0000
  Ru  Ru3       1.0  0.12600  0.17700  0.16000  1.0000
  Ru  Ru4       1.0  0.62600  0.16000  0.17700  1.0000
  Ru  Ru5       1.0  0.37400  0.03410  0.32300  1.0000
  Ru  Ru6       1.0  0.87400  0.55100  0.34000  1.0000
  Ru  Ru7       1.0  0.62600  0.66000  0.44900  1.0000
  Ru  Ru8       1.0  0.12600  0.94900  0.46600  1.0000
  Ru  Ru9       1.0  0.87400  0.05120  0.53400  1.0000
  Ru  Ru10      1.0  0.37400  0.34000  0.55100  1.0000
  Ru  Ru11      1.0  0.12600  0.44900  0.66000  1.0000
  Ru  Ru12      1.0  0.62600  0.96600  0.67700  1.0000
  Ru  Ru13      1.0  0.37400  0.84000  0.82300  1.0000
  Ru  Ru14      1.0  0.87400  0.82300  0.84000  1.0000
  Ru  Ru15      1.0  0.62600  0.46600  0.94900  1.0000
  Ru  Ru16      1.0  0.12600  0.67700  0.96600  1.0000
  U   U1        1.0  0.75000  0.87500  0.12500  1.0000
  U   U2        1.0  0.25000  0.62500  0.37500  1.0000
  U   U3        1.0  0.75000  0.37500  0.62500  1.0000
  U   U4        1.0  0.25000  0.12500  0.87500  1.0000
