data_image0
_chemical_formula_structural       LiMnMoO6
_chemical_formula_sum              "Li1 Mn1 Mo1 O6"
_cell_length_a       5.18109
_cell_length_b       5.18109
_cell_length_c       4.68414
_cell_angle_alpha    100.344
_cell_angle_beta     100.344
_cell_angle_gamma    122.284

_space_group_name_H-M_alt    "P 1"
_space_group_IT_number       1

loop_
  _space_group_symop_operation_xyz
  'x, y, z'

loop_
  _atom_site_type_symbol
  _atom_site_label
  _atom_site_symmetry_multiplicity
  _atom_site_fract_x
  _atom_site_fract_y
  _atom_site_fract_z
  _atom_site_occupancy
  Li  Li1       1.0  0.50400  0.49600  0.00000  1.0000
  Mn  Mn1       1.0  0.83000  0.17000  0.00000  1.0000
  Mo  Mo1       1.0  0.14400  0.85600  0.00000  1.0000
  O   O1        1.0  0.57100  0.91500  0.20900  1.0000
  O   O2        1.0  0.93600  0.57200  0.22400  1.0000
  O   O3        1.0  0.22500  0.22400  0.25100  1.0000
  O   O4        1.0  0.77600  0.77500  0.74900  1.0000
  O   O5        1.0  0.42800  0.06420  0.77600  1.0000
  O   O6        1.0  0.08480  0.42900  0.79100  1.0000
