data_image0
_chemical_formula_structural       Er20Si16
_chemical_formula_sum              "Er20 Si16"
_cell_length_a       7.39926
_cell_length_b       14.4656
_cell_length_c       7.59219
_cell_angle_alpha    90
_cell_angle_beta     90
_cell_angle_gamma    93.1252

_space_group_name_H-M_alt    "P 1"
_space_group_IT_number       1

loop_
  _space_group_symop_operation_xyz
  'x, y, z'

loop_
  _atom_site_type_symbol
  _atom_site_label
  _atom_site_symmetry_multiplicity
  _atom_site_fract_x
  _atom_site_fract_y
  _atom_site_fract_z
  _atom_site_occupancy
  Er  Er1       1.0  0.51900  0.40100  0.31800  1.0000
  Er  Er2       1.0  0.98100  0.59900  0.81800  1.0000
  Er  Er3       1.0  0.48100  0.59900  0.68200  1.0000
  Er  Er4       1.0  0.01900  0.40100  0.18200  1.0000
  Er  Er5       1.0  0.49600  0.09830  0.32000  1.0000
  Er  Er6       1.0  0.00364  0.90200  0.82000  1.0000
  Er  Er7       1.0  0.50400  0.90200  0.68000  1.0000
  Er  Er8       1.0  0.99600  0.09830  0.18000  1.0000
  Er  Er9       1.0  0.82600  0.24600  0.49400  1.0000
  Er  Er10      1.0  0.67400  0.75400  0.99400  1.0000
  Er  Er11      1.0  0.17400  0.75400  0.50600  1.0000
  Er  Er12      1.0  0.32600  0.24600  0.00556  1.0000
  Er  Er13      1.0  0.83000  0.62200  0.32100  1.0000
  Er  Er14      1.0  0.67000  0.37800  0.82100  1.0000
  Er  Er15      1.0  0.17000  0.37800  0.67900  1.0000
  Er  Er16      1.0  0.33000  0.62200  0.17900  1.0000
  Er  Er17      1.0  0.85500  0.88000  0.33300  1.0000
  Er  Er18      1.0  0.64500  0.12000  0.83300  1.0000
  Er  Er19      1.0  0.14500  0.12000  0.66700  1.0000
  Er  Er20      1.0  0.35500  0.88000  0.16700  1.0000
  Si  Si1       1.0  0.71000  0.25200  0.13000  1.0000
  Si  Si2       1.0  0.79000  0.74800  0.63000  1.0000
  Si  Si3       1.0  0.29000  0.74800  0.87000  1.0000
  Si  Si4       1.0  0.21000  0.25200  0.37000  1.0000
  Si  Si5       1.0  0.65000  0.54100  0.02830  1.0000
  Si  Si6       1.0  0.85000  0.45900  0.52800  1.0000
  Si  Si7       1.0  0.35000  0.45900  0.97200  1.0000
  Si  Si8       1.0  0.15000  0.54100  0.47200  1.0000
  Si  Si9       1.0  0.70100  0.95900  0.03500  1.0000
  Si  Si10      1.0  0.79900  0.04150  0.53500  1.0000
  Si  Si11      1.0  0.04730  0.74800  0.10600  1.0000
  Si  Si12      1.0  0.54700  0.74800  0.39400  1.0000
  Si  Si13      1.0  0.95300  0.25200  0.89400  1.0000
  Si  Si14      1.0  0.29900  0.04150  0.96500  1.0000
  Si  Si15      1.0  0.20100  0.95900  0.46500  1.0000
  Si  Si16      1.0  0.45300  0.25200  0.60600  1.0000
