data_image0
_chemical_formula_structural       Ge16Nb20
_chemical_formula_sum              "Ge16 Nb20"
_cell_length_a       6.76422
_cell_length_b       13.2145
_cell_length_c       6.83773
_cell_angle_alpha    90
_cell_angle_beta     90
_cell_angle_gamma    90

_space_group_name_H-M_alt    "P 1"
_space_group_IT_number       1

loop_
  _space_group_symop_operation_xyz
  'x, y, z'

loop_
  _atom_site_type_symbol
  _atom_site_label
  _atom_site_symmetry_multiplicity
  _atom_site_fract_x
  _atom_site_fract_y
  _atom_site_fract_z
  _atom_site_occupancy
  Ge  Ge1       1.0  0.81100  0.54100  0.03460  1.0000
  Ge  Ge2       1.0  0.81100  0.95900  0.03460  1.0000
  Ge  Ge3       1.0  0.45400  0.75000  0.10400  1.0000
  Ge  Ge4       1.0  0.81900  0.25000  0.16000  1.0000
  Ge  Ge5       1.0  0.31900  0.25000  0.34000  1.0000
  Ge  Ge6       1.0  0.95400  0.75000  0.39600  1.0000
  Ge  Ge7       1.0  0.31100  0.54100  0.46500  1.0000
  Ge  Ge8       1.0  0.31100  0.95900  0.46500  1.0000
  Ge  Ge9       1.0  0.68900  0.04120  0.53500  1.0000
  Ge  Ge10      1.0  0.68900  0.45900  0.53500  1.0000
  Ge  Ge11      1.0  0.04610  0.25000  0.60400  1.0000
  Ge  Ge12      1.0  0.68100  0.75000  0.66000  1.0000
  Ge  Ge13      1.0  0.18100  0.75000  0.84000  1.0000
  Ge  Ge14      1.0  0.54600  0.25000  0.89600  1.0000
  Ge  Ge15      1.0  0.18900  0.04120  0.96500  1.0000
  Ge  Ge16      1.0  0.18900  0.45900  0.96500  1.0000
  Nb  Nb1       1.0  0.82800  0.75000  0.00752  1.0000
  Nb  Nb2       1.0  0.15400  0.62400  0.16400  1.0000
  Nb  Nb3       1.0  0.15400  0.87600  0.16400  1.0000
  Nb  Nb4       1.0  0.51900  0.08620  0.17400  1.0000
  Nb  Nb5       1.0  0.51900  0.41400  0.17400  1.0000
  Nb  Nb6       1.0  0.01940  0.08620  0.32600  1.0000
  Nb  Nb7       1.0  0.01940  0.41400  0.32600  1.0000
  Nb  Nb8       1.0  0.65400  0.62400  0.33600  1.0000
  Nb  Nb9       1.0  0.65400  0.87600  0.33600  1.0000
  Nb  Nb10      1.0  0.32800  0.75000  0.49200  1.0000
  Nb  Nb11      1.0  0.67200  0.25000  0.50800  1.0000
  Nb  Nb12      1.0  0.34600  0.12400  0.66400  1.0000
  Nb  Nb13      1.0  0.34600  0.37600  0.66400  1.0000
  Nb  Nb14      1.0  0.98100  0.58600  0.67400  1.0000
  Nb  Nb15      1.0  0.98100  0.91400  0.67400  1.0000
  Nb  Nb16      1.0  0.48100  0.58600  0.82600  1.0000
  Nb  Nb17      1.0  0.48100  0.91400  0.82600  1.0000
  Nb  Nb18      1.0  0.84600  0.12400  0.83600  1.0000
  Nb  Nb19      1.0  0.84600  0.37600  0.83600  1.0000
  Nb  Nb20      1.0  0.17200  0.25000  0.99200  1.0000
