data_image0
_chemical_formula_structural       K2O24P8Y2
_chemical_formula_sum              "K2 O24 P8 Y2"
_cell_length_a       7.19458
_cell_length_b       7.19458
_cell_length_c       10.3683
_cell_angle_alpha    101.195
_cell_angle_beta     101.195
_cell_angle_gamma    115.095

_space_group_name_H-M_alt    "P 1"
_space_group_IT_number       1

loop_
  _space_group_symop_operation_xyz
  'x, y, z'

loop_
  _atom_site_type_symbol
  _atom_site_label
  _atom_site_symmetry_multiplicity
  _atom_site_fract_x
  _atom_site_fract_y
  _atom_site_fract_z
  _atom_site_occupancy
  K   K1        1.0  0.18100  0.81900  0.25000  1.0000
  K   K2        1.0  0.81900  0.18100  0.75000  1.0000
  O   O1        1.0  0.27700  0.53700  0.07730  1.0000
  O   O2        1.0  0.86700  0.84400  0.07810  1.0000
  O   O3        1.0  0.51300  0.36400  0.09140  1.0000
  O   O4        1.0  0.83100  0.30500  0.09800  1.0000
  O   O5        1.0  0.51100  0.92300  0.11600  1.0000
  O   O6        1.0  0.20300  0.24700  0.18800  1.0000
  O   O7        1.0  0.75300  0.79700  0.31200  1.0000
  O   O8        1.0  0.07720  0.48900  0.38400  1.0000
  O   O9        1.0  0.69500  0.16900  0.40200  1.0000
  O   O10       1.0  0.63600  0.48700  0.40900  1.0000
  O   O11       1.0  0.15600  0.13300  0.42200  1.0000
  O   O12       1.0  0.46300  0.72300  0.42300  1.0000
  O   O13       1.0  0.53700  0.27700  0.57700  1.0000
  O   O14       1.0  0.84400  0.86700  0.57800  1.0000
  O   O15       1.0  0.36400  0.51300  0.59100  1.0000
  O   O16       1.0  0.30500  0.83100  0.59800  1.0000
  O   O17       1.0  0.92300  0.51100  0.61600  1.0000
  O   O18       1.0  0.24700  0.20300  0.68800  1.0000
  O   O19       1.0  0.79700  0.75300  0.81200  1.0000
  O   O20       1.0  0.48900  0.07720  0.88400  1.0000
  O   O21       1.0  0.16900  0.69500  0.90200  1.0000
  O   O22       1.0  0.48700  0.63600  0.90900  1.0000
  O   O23       1.0  0.13300  0.15600  0.92200  1.0000
  O   O24       1.0  0.72300  0.46300  0.92300  1.0000
  P   P1        1.0  0.63500  0.28400  0.00010  1.0000
  P   P2        1.0  0.26200  0.30500  0.06620  1.0000
  P   P3        1.0  0.69500  0.73800  0.43400  1.0000
  P   P4        1.0  0.71600  0.36500  0.50000  1.0000
  P   P5        1.0  0.28400  0.63500  0.50000  1.0000
  P   P6        1.0  0.30500  0.26200  0.56600  1.0000
  P   P7        1.0  0.73800  0.69500  0.93400  1.0000
  P   P8        1.0  0.36500  0.71600  1.00000  1.0000
  Y   Y1        1.0  0.88100  0.11900  0.25000  1.0000
  Y   Y2        1.0  0.11900  0.88100  0.75000  1.0000
