data_image0
_chemical_formula_structural       CoMnO6
_chemical_formula_sum              "Co1 Mn1 O6"
_cell_length_a       4.72233
_cell_length_b       4.88306
_cell_length_c       4.48341
_cell_angle_alpha    101.099
_cell_angle_beta     105.195
_cell_angle_gamma    120.485

_space_group_name_H-M_alt    "P 1"
_space_group_IT_number       1

loop_
  _space_group_symop_operation_xyz
  'x, y, z'

loop_
  _atom_site_type_symbol
  _atom_site_label
  _atom_site_symmetry_multiplicity
  _atom_site_fract_x
  _atom_site_fract_y
  _atom_site_fract_z
  _atom_site_occupancy
  Co  Co1       1.0  0.13500  0.81500  0.97800  1.0000
  Mn  Mn1       1.0  0.84900  0.18200  0.01950  1.0000
  O   O1        1.0  0.96100  0.60300  0.24900  1.0000
  O   O2        1.0  0.60600  0.95300  0.25200  1.0000
  O   O3        1.0  0.27700  0.24400  0.25400  1.0000
  O   O4        1.0  0.38100  0.04140  0.74200  1.0000
  O   O5        1.0  0.74400  0.75300  0.74900  1.0000
  O   O6        1.0  0.04790  0.40800  0.75500  1.0000
