data_image0
_chemical_formula_structural       F8Fe4O16P4Sr4
_chemical_formula_sum              "F8 Fe4 O16 P4 Sr4"
_cell_length_a       5.17796
_cell_length_b       12.0919
_cell_length_c       6.97814
_cell_angle_alpha    90
_cell_angle_beta     102.906
_cell_angle_gamma    90

_space_group_name_H-M_alt    "P 1"
_space_group_IT_number       1

loop_
  _space_group_symop_operation_xyz
  'x, y, z'

loop_
  _atom_site_type_symbol
  _atom_site_label
  _atom_site_symmetry_multiplicity
  _atom_site_fract_x
  _atom_site_fract_y
  _atom_site_fract_z
  _atom_site_occupancy
  F   F1        1.0  0.38600  0.35300  0.05450  1.0000
  F   F2        1.0  0.38700  0.56000  0.22700  1.0000
  F   F3        1.0  0.11300  0.06010  0.27300  1.0000
  F   F4        1.0  0.11400  0.85300  0.44600  1.0000
  F   F5        1.0  0.88600  0.14700  0.55400  1.0000
  F   F6        1.0  0.88700  0.94000  0.72700  1.0000
  F   F7        1.0  0.61300  0.44000  0.77300  1.0000
  F   F8        1.0  0.61400  0.64700  0.94600  1.0000
  Fe  Fe1       1.0  0.00000  0.00000  0.00000  1.0000
  Fe  Fe2       1.0  0.50000  0.50000  0.00000  1.0000
  Fe  Fe3       1.0  0.00000  0.00000  0.50000  1.0000
  Fe  Fe4       1.0  0.50000  0.50000  0.50000  1.0000
  O   O1        1.0  0.76300  0.87600  0.05620  1.0000
  O   O2        1.0  0.28600  0.89600  0.06090  1.0000
  O   O3        1.0  0.86000  0.48700  0.17000  1.0000
  O   O4        1.0  0.92400  0.27800  0.18500  1.0000
  O   O5        1.0  0.57600  0.77800  0.31500  1.0000
  O   O6        1.0  0.64000  0.98700  0.33000  1.0000
  O   O7        1.0  0.21400  0.39600  0.43900  1.0000
  O   O8        1.0  0.73700  0.37600  0.44400  1.0000
  O   O9        1.0  0.26300  0.62400  0.55600  1.0000
  O   O10       1.0  0.78600  0.60400  0.56100  1.0000
  O   O11       1.0  0.36000  0.01290  0.67000  1.0000
  O   O12       1.0  0.42400  0.22200  0.68500  1.0000
  O   O13       1.0  0.07560  0.72200  0.81500  1.0000
  O   O14       1.0  0.14000  0.51300  0.83000  1.0000
  O   O15       1.0  0.71400  0.10400  0.93900  1.0000
  O   O16       1.0  0.23700  0.12400  0.94400  1.0000
  P   P1        1.0  0.56400  0.88400  0.19600  1.0000
  P   P2        1.0  0.93600  0.38400  0.30400  1.0000
  P   P3        1.0  0.06380  0.61600  0.69600  1.0000
  P   P4        1.0  0.43600  0.11600  0.80400  1.0000
  Sr  Sr1       1.0  0.03840  0.70400  0.18800  1.0000
  Sr  Sr2       1.0  0.46200  0.20400  0.31200  1.0000
  Sr  Sr3       1.0  0.53800  0.79600  0.68800  1.0000
  Sr  Sr4       1.0  0.96200  0.29600  0.81200  1.0000
