data_image0
_chemical_formula_structural       CdO6V2
_chemical_formula_sum              "Cd1 O6 V2"
_cell_length_a       3.59145
_cell_length_b       4.99623
_cell_length_c       6.92123
_cell_angle_alpha    111.694
_cell_angle_beta     90
_cell_angle_gamma    111.064

_space_group_name_H-M_alt    "P 1"
_space_group_IT_number       1

loop_
  _space_group_symop_operation_xyz
  'x, y, z'

loop_
  _atom_site_type_symbol
  _atom_site_label
  _atom_site_symmetry_multiplicity
  _atom_site_fract_x
  _atom_site_fract_y
  _atom_site_fract_z
  _atom_site_occupancy
  Cd  Cd1       1.0  0.00000  0.00000  0.00000  1.0000
  O   O1        1.0  0.66900  0.33800  0.12700  1.0000
  O   O2        1.0  0.98000  0.96000  0.30900  1.0000
  O   O3        1.0  0.30600  0.61200  0.43700  1.0000
  O   O4        1.0  0.69400  0.38800  0.56300  1.0000
  O   O5        1.0  0.02000  0.04010  0.69100  1.0000
  O   O6        1.0  0.33100  0.66200  0.87300  1.0000
  V   V1        1.0  0.81900  0.63800  0.36900  1.0000
  V   V2        1.0  0.18100  0.36200  0.63100  1.0000
