data_image0
_chemical_formula_structural       C8Cd4H8O16
_chemical_formula_sum              "C8 Cd4 H8 O16"
_cell_length_a       5.9713
_cell_length_b       6.5927
_cell_length_c       11.3936
_cell_angle_alpha    97.0968
_cell_angle_beta     105.191
_cell_angle_gamma    63.0719

_space_group_name_H-M_alt    "P 1"
_space_group_IT_number       1

loop_
  _space_group_symop_operation_xyz
  'x, y, z'

loop_
  _atom_site_type_symbol
  _atom_site_label
  _atom_site_symmetry_multiplicity
  _atom_site_fract_x
  _atom_site_fract_y
  _atom_site_fract_z
  _atom_site_occupancy
  C   C1        1.0  0.62800  0.13400  0.09850  1.0000
  C   C2        1.0  0.94600  0.54000  0.22000  1.0000
  C   C3        1.0  0.26500  0.96000  0.28000  1.0000
  C   C4        1.0  0.66300  0.36600  0.40100  1.0000
  C   C5        1.0  0.33700  0.63400  0.59900  1.0000
  C   C6        1.0  0.73500  0.03970  0.72000  1.0000
  C   C7        1.0  0.05420  0.46000  0.78000  1.0000
  C   C8        1.0  0.37200  0.86600  0.90100  1.0000
  Cd  Cd1       1.0  0.18400  0.67900  0.04730  1.0000
  Cd  Cd2       1.0  0.81500  0.82100  0.45300  1.0000
  Cd  Cd3       1.0  0.18500  0.17900  0.54700  1.0000
  Cd  Cd4       1.0  0.81600  0.32100  0.95300  1.0000
  H   H1        1.0  0.53500  0.07730  0.15100  1.0000
  H   H2        1.0  0.82200  0.47200  0.24000  1.0000
  H   H3        1.0  0.05370  0.02790  0.26000  1.0000
  H   H4        1.0  0.46100  0.42300  0.34900  1.0000
  H   H5        1.0  0.53900  0.57700  0.65100  1.0000
  H   H6        1.0  0.94600  0.97200  0.74000  1.0000
  H   H7        1.0  0.17800  0.52800  0.76000  1.0000
  H   H8        1.0  0.46500  0.92300  0.84900  1.0000
  O   O1        1.0  0.79200  0.98900  0.04350  1.0000
  O   O2        1.0  0.56600  0.34500  0.09440  1.0000
  O   O3        1.0  0.01900  0.47300  0.12000  1.0000
  O   O4        1.0  0.39100  0.82400  0.20700  1.0000
  O   O5        1.0  0.00737  0.67600  0.29300  1.0000
  O   O6        1.0  0.37100  0.02730  0.38000  1.0000
  O   O7        1.0  0.81700  0.15500  0.40600  1.0000
  O   O8        1.0  0.73800  0.51100  0.45600  1.0000
  O   O9        1.0  0.26200  0.48900  0.54400  1.0000
  O   O10       1.0  0.18300  0.84500  0.59400  1.0000
  O   O11       1.0  0.62900  0.97300  0.62000  1.0000
  O   O12       1.0  0.99300  0.32400  0.70700  1.0000
  O   O13       1.0  0.60900  0.17600  0.79300  1.0000
  O   O14       1.0  0.98100  0.52700  0.88000  1.0000
  O   O15       1.0  0.43400  0.65500  0.90600  1.0000
  O   O16       1.0  0.20800  0.01130  0.95600  1.0000
