data_image0
_chemical_formula_structural       Br24Mo12
_chemical_formula_sum              "Br24 Mo12"
_cell_length_a       9.50686
_cell_length_b       9.50686
_cell_length_c       11.8668
_cell_angle_alpha    90
_cell_angle_beta     90
_cell_angle_gamma    77.0901

_space_group_name_H-M_alt    "P 1"
_space_group_IT_number       1

loop_
  _space_group_symop_operation_xyz
  'x, y, z'

loop_
  _atom_site_type_symbol
  _atom_site_label
  _atom_site_symmetry_multiplicity
  _atom_site_fract_x
  _atom_site_fract_y
  _atom_site_fract_z
  _atom_site_occupancy
  Br  Br1       1.0  0.29900  0.29900  0.00000  1.0000
  Br  Br2       1.0  0.70100  0.70100  0.00000  1.0000
  Br  Br3       1.0  0.08340  0.66800  0.07710  1.0000
  Br  Br4       1.0  0.33200  0.91700  0.07710  1.0000
  Br  Br5       1.0  0.64600  0.35400  0.14600  1.0000
  Br  Br6       1.0  0.04710  0.20100  0.20700  1.0000
  Br  Br7       1.0  0.79900  0.95300  0.20700  1.0000
  Br  Br8       1.0  0.29900  0.45300  0.29300  1.0000
  Br  Br9       1.0  0.54700  0.70100  0.29300  1.0000
  Br  Br10      1.0  0.14600  0.85400  0.35400  1.0000
  Br  Br11      1.0  0.58300  0.16800  0.42300  1.0000
  Br  Br12      1.0  0.83200  0.41700  0.42300  1.0000
  Br  Br13      1.0  0.20100  0.20100  0.50000  1.0000
  Br  Br14      1.0  0.79900  0.79900  0.50000  1.0000
  Br  Br15      1.0  0.16800  0.58300  0.57700  1.0000
  Br  Br16      1.0  0.41700  0.83200  0.57700  1.0000
  Br  Br17      1.0  0.85400  0.14600  0.64600  1.0000
  Br  Br18      1.0  0.45300  0.29900  0.70700  1.0000
  Br  Br19      1.0  0.70100  0.54700  0.70700  1.0000
  Br  Br20      1.0  0.20100  0.04710  0.79300  1.0000
  Br  Br21      1.0  0.95300  0.79900  0.79300  1.0000
  Br  Br22      1.0  0.35400  0.64600  0.85400  1.0000
  Br  Br23      1.0  0.66800  0.08340  0.92300  1.0000
  Br  Br24      1.0  0.91700  0.33200  0.92300  1.0000
  Mo  Mo1       1.0  0.12600  0.12600  0.00000  1.0000
  Mo  Mo2       1.0  0.87400  0.87400  0.00000  1.0000
  Mo  Mo3       1.0  0.85700  0.14300  0.06580  1.0000
  Mo  Mo4       1.0  0.06600  0.93400  0.14300  1.0000
  Mo  Mo5       1.0  0.56600  0.43400  0.35700  1.0000
  Mo  Mo6       1.0  0.35700  0.64300  0.43400  1.0000
  Mo  Mo7       1.0  0.37400  0.37400  0.50000  1.0000
  Mo  Mo8       1.0  0.62600  0.62600  0.50000  1.0000
  Mo  Mo9       1.0  0.64300  0.35700  0.56600  1.0000
  Mo  Mo10      1.0  0.43400  0.56600  0.64300  1.0000
  Mo  Mo11      1.0  0.93400  0.06600  0.85700  1.0000
  Mo  Mo12      1.0  0.14300  0.85700  0.93400  1.0000
