data_image0
_chemical_formula_structural       Ce2K2O24P8
_chemical_formula_sum              "Ce2 K2 O24 P8"
_cell_length_a       7.23408
_cell_length_b       8.40832
_cell_length_c       8.01728
_cell_angle_alpha    90
_cell_angle_beta     92.3184
_cell_angle_gamma    90

_space_group_name_H-M_alt    "P 1"
_space_group_IT_number       1

loop_
  _space_group_symop_operation_xyz
  'x, y, z'

loop_
  _atom_site_type_symbol
  _atom_site_label
  _atom_site_symmetry_multiplicity
  _atom_site_fract_x
  _atom_site_fract_y
  _atom_site_fract_z
  _atom_site_occupancy
  Ce  Ce1       1.0  0.73100  0.49900  0.24400  1.0000
  Ce  Ce2       1.0  0.26900  0.99900  0.75600  1.0000
  K   K1        1.0  0.22200  0.29800  0.27500  1.0000
  K   K2        1.0  0.77800  0.79800  0.72500  1.0000
  O   O1        1.0  0.92700  0.40700  0.02860  1.0000
  O   O2        1.0  0.81400  0.73700  0.07380  1.0000
  O   O3        1.0  0.44700  0.54900  0.07630  1.0000
  O   O4        1.0  0.82100  0.03640  0.13600  1.0000
  O   O5        1.0  0.57400  0.23700  0.18000  1.0000
  O   O6        1.0  0.49200  0.94700  0.20500  1.0000
  O   O7        1.0  0.04870  0.87900  0.28300  1.0000
  O   O8        1.0  0.04530  0.58100  0.34700  1.0000
  O   O9        1.0  0.34000  0.73100  0.34900  1.0000
  O   O10       1.0  0.68200  0.75700  0.39300  1.0000
  O   O11       1.0  0.88500  0.28900  0.42200  1.0000
  O   O12       1.0  0.52900  0.46300  0.47900  1.0000
  O   O13       1.0  0.47100  0.96300  0.52100  1.0000
  O   O14       1.0  0.11500  0.78900  0.57800  1.0000
  O   O15       1.0  0.31800  0.25700  0.60700  1.0000
  O   O16       1.0  0.66000  0.23100  0.65100  1.0000
  O   O17       1.0  0.95500  0.08070  0.65300  1.0000
  O   O18       1.0  0.95100  0.37900  0.71700  1.0000
  O   O19       1.0  0.50800  0.44700  0.79500  1.0000
  O   O20       1.0  0.42600  0.73700  0.82000  1.0000
  O   O21       1.0  0.17900  0.53600  0.86400  1.0000
  O   O22       1.0  0.55300  0.04930  0.92400  1.0000
  O   O23       1.0  0.18600  0.23700  0.92600  1.0000
  O   O24       1.0  0.07350  0.90700  0.97100  1.0000
  P   P1        1.0  0.60600  0.07770  0.10300  1.0000
  P   P2        1.0  0.93900  0.87700  0.10500  1.0000
  P   P3        1.0  0.50700  0.85300  0.37900  1.0000
  P   P4        1.0  0.12800  0.73600  0.40100  1.0000
  P   P5        1.0  0.87200  0.23600  0.59900  1.0000
  P   P6        1.0  0.49300  0.35300  0.62100  1.0000
  P   P7        1.0  0.06100  0.37700  0.89500  1.0000
  P   P8        1.0  0.39400  0.57800  0.89700  1.0000
