data_image0
_chemical_formula_structural       K2O24P8Pr2
_chemical_formula_sum              "K2 O24 P8 Pr2"
_cell_length_a       7.28624
_cell_length_b       7.2863
_cell_length_c       10.6039
_cell_angle_alpha    100.922
_cell_angle_beta     100.922
_cell_angle_gamma    115.011

_space_group_name_H-M_alt    "P 1"
_space_group_IT_number       1

loop_
  _space_group_symop_operation_xyz
  'x, y, z'

loop_
  _atom_site_type_symbol
  _atom_site_label
  _atom_site_symmetry_multiplicity
  _atom_site_fract_x
  _atom_site_fract_y
  _atom_site_fract_z
  _atom_site_occupancy
  K   K1        1.0  0.31800  0.68200  0.25000  1.0000
  K   K2        1.0  0.68200  0.31800  0.75000  1.0000
  O   O1        1.0  0.32900  0.36200  0.07900  1.0000
  O   O2        1.0  0.04020  0.78800  0.08300  1.0000
  O   O3        1.0  0.85900  0.01090  0.08700  1.0000
  O   O4        1.0  0.81400  0.33200  0.09330  1.0000
  O   O5        1.0  0.42000  0.00255  0.11300  1.0000
  O   O6        1.0  0.73900  0.70300  0.17900  1.0000
  O   O7        1.0  0.29700  0.26100  0.32100  1.0000
  O   O8        1.0  0.99700  0.58000  0.38700  1.0000
  O   O9        1.0  0.66800  0.18600  0.40700  1.0000
  O   O10       1.0  0.98900  0.14100  0.41300  1.0000
  O   O11       1.0  0.21200  0.96000  0.41700  1.0000
  O   O12       1.0  0.63800  0.67100  0.42100  1.0000
  O   O13       1.0  0.36200  0.32900  0.57900  1.0000
  O   O14       1.0  0.78800  0.04020  0.58300  1.0000
  O   O15       1.0  0.01080  0.85900  0.58700  1.0000
  O   O16       1.0  0.33200  0.81400  0.59300  1.0000
  O   O17       1.0  0.00254  0.42000  0.61300  1.0000
  O   O18       1.0  0.70300  0.73900  0.67900  1.0000
  O   O19       1.0  0.26100  0.29700  0.82100  1.0000
  O   O20       1.0  0.58000  0.99700  0.88700  1.0000
  O   O21       1.0  0.18600  0.66800  0.90700  1.0000
  O   O22       1.0  0.14100  0.98900  0.91300  1.0000
  O   O23       1.0  0.96000  0.21200  0.91700  1.0000
  O   O24       1.0  0.67100  0.63800  0.92100  1.0000
  P   P1        1.0  0.21300  0.86500  0.00264  1.0000
  P   P2        1.0  0.80700  0.76600  0.06340  1.0000
  P   P3        1.0  0.23400  0.19300  0.43700  1.0000
  P   P4        1.0  0.13500  0.78700  0.49700  1.0000
  P   P5        1.0  0.86500  0.21300  0.50300  1.0000
  P   P6        1.0  0.76600  0.80700  0.56300  1.0000
  P   P7        1.0  0.19300  0.23400  0.93700  1.0000
  P   P8        1.0  0.78700  0.13500  0.99700  1.0000
  Pr  Pr1       1.0  0.62000  0.38000  0.25000  1.0000
  Pr  Pr2       1.0  0.38000  0.62000  0.75000  1.0000
