data_image0
_chemical_formula_structural       Li2MnNiO6
_chemical_formula_sum              "Li2 Mn1 Ni1 O6"
_cell_length_a       4.84334
_cell_length_b       4.84334
_cell_length_c       4.85847
_cell_angle_alpha    97.9169
_cell_angle_beta     97.9169
_cell_angle_gamma    121.777

_space_group_name_H-M_alt    "P 1"
_space_group_IT_number       1

loop_
  _space_group_symop_operation_xyz
  'x, y, z'

loop_
  _atom_site_type_symbol
  _atom_site_label
  _atom_site_symmetry_multiplicity
  _atom_site_fract_x
  _atom_site_fract_y
  _atom_site_fract_z
  _atom_site_occupancy
  Li  Li1       1.0  0.65100  0.34900  0.50000  1.0000
  Li  Li2       1.0  0.35500  0.64500  0.50000  1.0000
  Mn  Mn1       1.0  0.16200  0.83800  0.00000  1.0000
  Ni  Ni1       1.0  0.83700  0.16300  0.00000  1.0000
  O   O1        1.0  0.21200  0.21600  0.22500  1.0000
  O   O2        1.0  0.56300  0.93300  0.22600  1.0000
  O   O3        1.0  0.93000  0.55200  0.22700  1.0000
  O   O4        1.0  0.44800  0.07000  0.77300  1.0000
  O   O5        1.0  0.06650  0.43700  0.77400  1.0000
  O   O6        1.0  0.78400  0.78800  0.77500  1.0000
