data_image0
_chemical_formula_structural       Na8S20Si8
_chemical_formula_sum              "Na8 S20 Si8"
_cell_length_a       9.00235
_cell_length_b       9.00235
_cell_length_c       10.4134
_cell_angle_alpha    90
_cell_angle_beta     90
_cell_angle_gamma    89.7189

_space_group_name_H-M_alt    "P 1"
_space_group_IT_number       1

loop_
  _space_group_symop_operation_xyz
  'x, y, z'

loop_
  _atom_site_type_symbol
  _atom_site_label
  _atom_site_symmetry_multiplicity
  _atom_site_fract_x
  _atom_site_fract_y
  _atom_site_fract_z
  _atom_site_occupancy
  Na  Na1       1.0  0.15200  0.15200  0.00000  1.0000
  Na  Na2       1.0  0.84800  0.84800  0.00000  1.0000
  Na  Na3       1.0  0.58200  0.09190  0.25000  1.0000
  Na  Na4       1.0  0.90800  0.41800  0.25000  1.0000
  Na  Na5       1.0  0.15200  0.15200  0.50000  1.0000
  Na  Na6       1.0  0.84800  0.84800  0.50000  1.0000
  Na  Na7       1.0  0.09190  0.58200  0.75000  1.0000
  Na  Na8       1.0  0.41800  0.90800  0.75000  1.0000
  S   S1        1.0  0.84100  0.15900  0.07860  1.0000
  S   S2        1.0  0.20800  0.51100  0.08080  1.0000
  S   S3        1.0  0.48900  0.79200  0.08080  1.0000
  S   S4        1.0  0.27400  0.19200  0.25000  1.0000
  S   S5        1.0  0.54800  0.45200  0.25000  1.0000
  S   S6        1.0  0.80800  0.72600  0.25000  1.0000
  S   S7        1.0  0.15200  0.84800  0.25000  1.0000
  S   S8        1.0  0.20800  0.51100  0.41900  1.0000
  S   S9        1.0  0.48900  0.79200  0.41900  1.0000
  S   S10       1.0  0.84100  0.15900  0.42100  1.0000
  S   S11       1.0  0.15900  0.84100  0.57900  1.0000
  S   S12       1.0  0.51100  0.20800  0.58100  1.0000
  S   S13       1.0  0.79200  0.48900  0.58100  1.0000
  S   S14       1.0  0.84800  0.15200  0.75000  1.0000
  S   S15       1.0  0.19200  0.27400  0.75000  1.0000
  S   S16       1.0  0.45200  0.54800  0.75000  1.0000
  S   S17       1.0  0.72600  0.80800  0.75000  1.0000
  S   S18       1.0  0.51100  0.20800  0.91900  1.0000
  S   S19       1.0  0.79200  0.48900  0.91900  1.0000
  S   S20       1.0  0.15900  0.84100  0.92100  1.0000
  Si  Si1       1.0  0.25300  0.74700  0.08370  1.0000
  Si  Si2       1.0  0.31200  0.41700  0.25000  1.0000
  Si  Si3       1.0  0.58300  0.68800  0.25000  1.0000
  Si  Si4       1.0  0.25300  0.74700  0.41600  1.0000
  Si  Si5       1.0  0.74700  0.25300  0.58400  1.0000
  Si  Si6       1.0  0.41700  0.31200  0.75000  1.0000
  Si  Si7       1.0  0.68800  0.58300  0.75000  1.0000
  Si  Si8       1.0  0.74700  0.25300  0.91600  1.0000
