data_image0
_chemical_formula_structural       Si16Sm20
_chemical_formula_sum              "Si16 Sm20"
_cell_length_a       7.65736
_cell_length_b       14.9537
_cell_length_c       7.85789
_cell_angle_alpha    90
_cell_angle_beta     90
_cell_angle_gamma    90

_space_group_name_H-M_alt    "P 1"
_space_group_IT_number       1

loop_
  _space_group_symop_operation_xyz
  'x, y, z'

loop_
  _atom_site_type_symbol
  _atom_site_label
  _atom_site_symmetry_multiplicity
  _atom_site_fract_x
  _atom_site_fract_y
  _atom_site_fract_z
  _atom_site_occupancy
  Si  Si1       1.0  0.63800  0.54100  0.02620  1.0000
  Si  Si2       1.0  0.63800  0.95900  0.02620  1.0000
  Si  Si3       1.0  0.01840  0.75000  0.10200  1.0000
  Si  Si4       1.0  0.74400  0.25000  0.12200  1.0000
  Si  Si5       1.0  0.24400  0.25000  0.37800  1.0000
  Si  Si6       1.0  0.51800  0.75000  0.39800  1.0000
  Si  Si7       1.0  0.13800  0.54100  0.47400  1.0000
  Si  Si8       1.0  0.13800  0.95900  0.47400  1.0000
  Si  Si9       1.0  0.86200  0.04090  0.52600  1.0000
  Si  Si10      1.0  0.86200  0.45900  0.52600  1.0000
  Si  Si11      1.0  0.48200  0.25000  0.60200  1.0000
  Si  Si12      1.0  0.75600  0.75000  0.62200  1.0000
  Si  Si13      1.0  0.25600  0.75000  0.87800  1.0000
  Si  Si14      1.0  0.98200  0.25000  0.89800  1.0000
  Si  Si15      1.0  0.36200  0.04090  0.97400  1.0000
  Si  Si16      1.0  0.36200  0.45900  0.97400  1.0000
  Sm  Sm1       1.0  0.35700  0.25000  0.01260  1.0000
  Sm  Sm2       1.0  0.31300  0.62200  0.18100  1.0000
  Sm  Sm3       1.0  0.31300  0.87800  0.18100  1.0000
  Sm  Sm4       1.0  0.03710  0.10100  0.18600  1.0000
  Sm  Sm5       1.0  0.03710  0.39900  0.18600  1.0000
  Sm  Sm6       1.0  0.53700  0.10100  0.31400  1.0000
  Sm  Sm7       1.0  0.53700  0.39900  0.31400  1.0000
  Sm  Sm8       1.0  0.81300  0.62200  0.31900  1.0000
  Sm  Sm9       1.0  0.81300  0.87800  0.31900  1.0000
  Sm  Sm10      1.0  0.85700  0.25000  0.48700  1.0000
  Sm  Sm11      1.0  0.14300  0.75000  0.51300  1.0000
  Sm  Sm12      1.0  0.18700  0.12200  0.68100  1.0000
  Sm  Sm13      1.0  0.18700  0.37800  0.68100  1.0000
  Sm  Sm14      1.0  0.46300  0.60100  0.68600  1.0000
  Sm  Sm15      1.0  0.46300  0.89900  0.68600  1.0000
  Sm  Sm16      1.0  0.96300  0.60100  0.81400  1.0000
  Sm  Sm17      1.0  0.96300  0.89900  0.81400  1.0000
  Sm  Sm18      1.0  0.68700  0.12200  0.81900  1.0000
  Sm  Sm19      1.0  0.68700  0.37800  0.81900  1.0000
  Sm  Sm20      1.0  0.64300  0.75000  0.98700  1.0000
