data_image0
_chemical_formula_structural       LiMnO6U
_chemical_formula_sum              "Li1 Mn1 O6 U1"
_cell_length_a       5.37118
_cell_length_b       5.37118
_cell_length_c       4.578
_cell_angle_alpha    101.827
_cell_angle_beta     101.827
_cell_angle_gamma    120.047

_space_group_name_H-M_alt    "P 1"
_space_group_IT_number       1

loop_
  _space_group_symop_operation_xyz
  'x, y, z'

loop_
  _atom_site_type_symbol
  _atom_site_label
  _atom_site_symmetry_multiplicity
  _atom_site_fract_x
  _atom_site_fract_y
  _atom_site_fract_z
  _atom_site_occupancy
  Li  Li1       1.0  0.50000  0.50000  0.00000  1.0000
  Mn  Mn1       1.0  0.83200  0.16800  0.00000  1.0000
  O   O1        1.0  0.60100  0.93800  0.22700  1.0000
  O   O2        1.0  0.21600  0.23800  0.23900  1.0000
  O   O3        1.0  0.91900  0.55800  0.23900  1.0000
  O   O4        1.0  0.44200  0.08120  0.76100  1.0000
  O   O5        1.0  0.76200  0.78400  0.76100  1.0000
  O   O6        1.0  0.06190  0.39900  0.77300  1.0000
  U   U1        1.0  0.16500  0.83500  0.00000  1.0000
