data_image0
_chemical_formula_structural       Fe8H8O4Zr16
_chemical_formula_sum              "Fe8 H8 O4 Zr16"
_cell_length_a       8.90512
_cell_length_b       8.90512
_cell_length_c       8.90512
_cell_angle_alpha    120
_cell_angle_beta     90
_cell_angle_gamma    120

_space_group_name_H-M_alt    "P 1"
_space_group_IT_number       1

loop_
  _space_group_symop_operation_xyz
  'x, y, z'

loop_
  _atom_site_type_symbol
  _atom_site_label
  _atom_site_symmetry_multiplicity
  _atom_site_fract_x
  _atom_site_fract_y
  _atom_site_fract_z
  _atom_site_occupancy
  Fe  Fe1       1.0  0.20400  0.59200  0.29600  1.0000
  Fe  Fe2       1.0  0.88800  0.59200  0.29600  1.0000
  Fe  Fe3       1.0  0.20400  0.90800  0.29600  1.0000
  Fe  Fe4       1.0  0.79600  0.09170  0.38800  1.0000
  Fe  Fe5       1.0  0.20400  0.90800  0.61200  1.0000
  Fe  Fe6       1.0  0.11200  0.40800  0.70400  1.0000
  Fe  Fe7       1.0  0.79600  0.40800  0.70400  1.0000
  Fe  Fe8       1.0  0.79600  0.09170  0.70400  1.0000
  H   H1        1.0  0.71000  0.92000  0.12900  1.0000
  H   H2        1.0  0.29000  0.08040  0.21000  1.0000
  H   H3        1.0  0.29000  0.42000  0.21000  1.0000
  H   H4        1.0  0.62900  0.42000  0.21000  1.0000
  H   H5        1.0  0.37100  0.58000  0.79000  1.0000
  H   H6        1.0  0.71000  0.92000  0.79000  1.0000
  H   H7        1.0  0.71000  0.58000  0.79000  1.0000
  H   H8        1.0  0.29000  0.08040  0.87100  1.0000
  O   O1        1.0  0.00000  0.00000  0.00000  1.0000
  O   O2        1.0  0.50000  0.00000  0.00000  1.0000
  O   O3        1.0  0.50000  0.50000  0.00000  1.0000
  O   O4        1.0  0.50000  0.50000  0.50000  1.0000
  Zr  Zr1       1.0  0.00000  0.50000  0.00000  1.0000
  Zr  Zr2       1.0  0.81400  0.75000  0.06390  1.0000
  Zr  Zr3       1.0  0.81400  0.12800  0.06390  1.0000
  Zr  Zr4       1.0  0.43600  0.75000  0.06390  1.0000
  Zr  Zr5       1.0  0.18600  0.25000  0.31400  1.0000
  Zr  Zr6       1.0  0.56400  0.25000  0.31400  1.0000
  Zr  Zr7       1.0  0.56400  0.62800  0.31400  1.0000
  Zr  Zr8       1.0  0.00000  0.00000  0.50000  1.0000
  Zr  Zr9       1.0  0.00000  0.50000  0.50000  1.0000
  Zr  Zr10      1.0  0.50000  0.00000  0.50000  1.0000
  Zr  Zr11      1.0  0.43600  0.37200  0.68600  1.0000
  Zr  Zr12      1.0  0.43600  0.75000  0.68600  1.0000
  Zr  Zr13      1.0  0.81400  0.75000  0.68600  1.0000
  Zr  Zr14      1.0  0.18600  0.87200  0.93600  1.0000
  Zr  Zr15      1.0  0.18600  0.25000  0.93600  1.0000
  Zr  Zr16      1.0  0.56400  0.25000  0.93600  1.0000
