data_image0
_chemical_formula_structural       LiMnO6Ti
_chemical_formula_sum              "Li1 Mn1 O6 Ti1"
_cell_length_a       5.04531
_cell_length_b       5.04531
_cell_length_c       4.75599
_cell_angle_alpha    97.3593
_cell_angle_beta     97.3593
_cell_angle_gamma    122.113

_space_group_name_H-M_alt    "P 1"
_space_group_IT_number       1

loop_
  _space_group_symop_operation_xyz
  'x, y, z'

loop_
  _atom_site_type_symbol
  _atom_site_label
  _atom_site_symmetry_multiplicity
  _atom_site_fract_x
  _atom_site_fract_y
  _atom_site_fract_z
  _atom_site_occupancy
  Li  Li1       1.0  0.62100  0.37900  0.50000  1.0000
  Mn  Mn1       1.0  0.17300  0.82700  0.00000  1.0000
  O   O1        1.0  0.91300  0.55200  0.22000  1.0000
  O   O2        1.0  0.22500  0.20100  0.22400  1.0000
  O   O3        1.0  0.55000  0.92800  0.24000  1.0000
  O   O4        1.0  0.07160  0.45000  0.76000  1.0000
  O   O5        1.0  0.79900  0.77500  0.77600  1.0000
  O   O6        1.0  0.44800  0.08740  0.78000  1.0000
  Ti  Ti1       1.0  0.85500  0.14500  0.00000  1.0000
