data_image0
_chemical_formula_structural       O24Rb4Te2W6
_chemical_formula_sum              "O24 Rb4 Te2 W6"
_cell_length_a       7.31803
_cell_length_b       7.31803
_cell_length_c       11.8724
_cell_angle_alpha    89.9997
_cell_angle_beta     89.9997
_cell_angle_gamma    120

_space_group_name_H-M_alt    "P 1"
_space_group_IT_number       1

loop_
  _space_group_symop_operation_xyz
  'x, y, z'

loop_
  _atom_site_type_symbol
  _atom_site_label
  _atom_site_symmetry_multiplicity
  _atom_site_fract_x
  _atom_site_fract_y
  _atom_site_fract_z
  _atom_site_occupancy
  O   O1        1.0  0.08550  0.54900  0.12900  1.0000
  O   O2        1.0  0.45100  0.53700  0.12900  1.0000
  O   O3        1.0  0.46300  0.91500  0.12900  1.0000
  O   O4        1.0  0.87000  0.12100  0.18400  1.0000
  O   O5        1.0  0.87900  0.75000  0.18400  1.0000
  O   O6        1.0  0.25000  0.13000  0.18400  1.0000
  O   O7        1.0  0.19500  0.39600  0.31600  1.0000
  O   O8        1.0  0.20100  0.80500  0.31600  1.0000
  O   O9        1.0  0.60400  0.79900  0.31600  1.0000
  O   O10       1.0  0.86800  0.13100  0.49900  1.0000
  O   O11       1.0  0.26400  0.13200  0.49900  1.0000
  O   O12       1.0  0.86900  0.73600  0.49900  1.0000
  O   O13       1.0  0.54900  0.08550  0.62900  1.0000
  O   O14       1.0  0.53700  0.45100  0.62900  1.0000
  O   O15       1.0  0.91500  0.46300  0.62900  1.0000
  O   O16       1.0  0.75000  0.87900  0.68400  1.0000
  O   O17       1.0  0.12100  0.87000  0.68400  1.0000
  O   O18       1.0  0.13000  0.25000  0.68400  1.0000
  O   O19       1.0  0.39600  0.19500  0.81600  1.0000
  O   O20       1.0  0.80500  0.20100  0.81600  1.0000
  O   O21       1.0  0.79900  0.60400  0.81600  1.0000
  O   O22       1.0  0.13200  0.26400  0.99900  1.0000
  O   O23       1.0  0.73600  0.86900  0.99900  1.0000
  O   O24       1.0  0.13100  0.86800  0.99900  1.0000
  Rb  Rb1       1.0  0.66700  0.33300  0.00678  1.0000
  Rb  Rb2       1.0  0.66700  0.33300  0.37400  1.0000
  Rb  Rb3       1.0  0.33300  0.66700  0.50700  1.0000
  Rb  Rb4       1.0  0.33300  0.66700  0.87400  1.0000
  Te  Te1       1.0  0.00000  0.00000  0.42200  1.0000
  Te  Te2       1.0  0.00000  0.00000  0.92200  1.0000
  W   W1        1.0  0.14700  0.34000  0.17100  1.0000
  W   W2        1.0  0.19300  0.85300  0.17100  1.0000
  W   W3        1.0  0.66000  0.80700  0.17100  1.0000
  W   W4        1.0  0.34000  0.14700  0.67100  1.0000
  W   W5        1.0  0.85300  0.19300  0.67100  1.0000
  W   W6        1.0  0.80700  0.66000  0.67100  1.0000
