data_image0
_chemical_formula_structural       B2Cu4H4Li2O20P4
_chemical_formula_sum              "B2 Cu4 H4 Li2 O20 P4"
_cell_length_a       4.70583
_cell_length_b       7.84967
_cell_length_c       9.58672
_cell_angle_alpha    90.4815
_cell_angle_beta     90
_cell_angle_gamma    107.442

_space_group_name_H-M_alt    "P 1"
_space_group_IT_number       1

loop_
  _space_group_symop_operation_xyz
  'x, y, z'

loop_
  _atom_site_type_symbol
  _atom_site_label
  _atom_site_symmetry_multiplicity
  _atom_site_fract_x
  _atom_site_fract_y
  _atom_site_fract_z
  _atom_site_occupancy
  B   B1        1.0  0.72800  0.00000  0.25000  1.0000
  B   B2        1.0  0.27200  0.00000  0.75000  1.0000
  Cu  Cu1       1.0  0.44300  0.29900  0.23100  1.0000
  Cu  Cu2       1.0  0.14400  0.70100  0.26900  1.0000
  Cu  Cu3       1.0  0.85600  0.29900  0.73100  1.0000
  Cu  Cu4       1.0  0.55700  0.70100  0.76900  1.0000
  H   H1        1.0  0.73100  0.15500  0.08110  1.0000
  H   H2        1.0  0.57600  0.84500  0.41900  1.0000
  H   H3        1.0  0.42400  0.15500  0.58100  1.0000
  H   H4        1.0  0.26900  0.84500  0.91900  1.0000
  Li  Li1       1.0  0.00000  0.50000  0.00000  1.0000
  Li  Li2       1.0  0.50000  0.50000  0.50000  1.0000
  O   O1        1.0  0.20000  0.29200  0.06320  1.0000
  O   O2        1.0  0.34600  0.69200  0.08800  1.0000
  O   O3        1.0  0.86300  0.89600  0.15700  1.0000
  O   O4        1.0  0.60000  0.11000  0.16100  1.0000
  O   O5        1.0  0.76700  0.56700  0.16800  1.0000
  O   O6        1.0  0.20100  0.43300  0.33200  1.0000
  O   O7        1.0  0.49000  0.89000  0.33900  1.0000
  O   O8        1.0  0.96700  0.10400  0.34300  1.0000
  O   O9        1.0  0.65400  0.30800  0.41200  1.0000
  O   O10       1.0  0.90900  0.70800  0.43700  1.0000
  O   O11       1.0  0.09140  0.29200  0.56300  1.0000
  O   O12       1.0  0.34600  0.69200  0.58800  1.0000
  O   O13       1.0  0.03280  0.89600  0.65700  1.0000
  O   O14       1.0  0.51000  0.11000  0.66100  1.0000
  O   O15       1.0  0.79900  0.56700  0.66800  1.0000
  O   O16       1.0  0.23300  0.43300  0.83200  1.0000
  O   O17       1.0  0.40000  0.89000  0.83900  1.0000
  O   O18       1.0  0.13700  0.10400  0.84300  1.0000
  O   O19       1.0  0.65400  0.30800  0.91200  1.0000
  O   O20       1.0  0.80000  0.70800  0.93700  1.0000
  P   P1        1.0  0.68200  0.71400  0.08560  1.0000
  P   P2        1.0  0.96800  0.28600  0.41400  1.0000
  P   P3        1.0  0.03210  0.71400  0.58600  1.0000
  P   P4        1.0  0.31800  0.28600  0.91400  1.0000
