data_image0
_chemical_formula_structural       Mo4O24Tm8
_chemical_formula_sum              "Mo4 O24 Tm8"
_cell_length_a       5.27308
_cell_length_b       9.74558
_cell_length_c       9.74558
_cell_angle_alpha    67.6876
_cell_angle_beta     105.258
_cell_angle_gamma    105.258

_space_group_name_H-M_alt    "P 1"
_space_group_IT_number       1

loop_
  _space_group_symop_operation_xyz
  'x, y, z'

loop_
  _atom_site_type_symbol
  _atom_site_label
  _atom_site_symmetry_multiplicity
  _atom_site_fract_x
  _atom_site_fract_y
  _atom_site_fract_z
  _atom_site_occupancy
  Mo  Mo1       1.0  0.93700  0.29500  0.01440  1.0000
  Mo  Mo2       1.0  0.43700  0.01440  0.29500  1.0000
  Mo  Mo3       1.0  0.56300  0.98600  0.70500  1.0000
  Mo  Mo4       1.0  0.06270  0.70500  0.98600  1.0000
  O   O1        1.0  0.24700  0.43500  0.02390  1.0000
  O   O2        1.0  0.99000  0.10800  0.05030  1.0000
  O   O3        1.0  0.49000  0.05030  0.10800  1.0000
  O   O4        1.0  0.37700  0.67300  0.11600  1.0000
  O   O5        1.0  0.86300  0.28800  0.18900  1.0000
  O   O6        1.0  0.91900  0.66300  0.19500  1.0000
  O   O7        1.0  0.36300  0.18900  0.28800  1.0000
  O   O8        1.0  0.12300  0.88400  0.32700  1.0000
  O   O9        1.0  0.58100  0.80500  0.33700  1.0000
  O   O10       1.0  0.42200  0.42800  0.39000  1.0000
  O   O11       1.0  0.92200  0.39000  0.42800  1.0000
  O   O12       1.0  0.74700  0.02390  0.43500  1.0000
  O   O13       1.0  0.25300  0.97600  0.56500  1.0000
  O   O14       1.0  0.07840  0.61000  0.57200  1.0000
  O   O15       1.0  0.57800  0.57200  0.61000  1.0000
  O   O16       1.0  0.41900  0.19500  0.66300  1.0000
  O   O17       1.0  0.87700  0.11600  0.67300  1.0000
  O   O18       1.0  0.63700  0.81100  0.71200  1.0000
  O   O19       1.0  0.08120  0.33700  0.80500  1.0000
  O   O20       1.0  0.13700  0.71200  0.81100  1.0000
  O   O21       1.0  0.62300  0.32700  0.88400  1.0000
  O   O22       1.0  0.51000  0.95000  0.89200  1.0000
  O   O23       1.0  0.01010  0.89200  0.95000  1.0000
  O   O24       1.0  0.75300  0.56500  0.97600  1.0000
  Tm  Tm1       1.0  0.75000  0.86300  0.13700  1.0000
  Tm  Tm2       1.0  0.62200  0.44900  0.21700  1.0000
  Tm  Tm3       1.0  0.25000  0.60600  0.39400  1.0000
  Tm  Tm4       1.0  0.12200  0.21700  0.44900  1.0000
  Tm  Tm5       1.0  0.87800  0.78300  0.55100  1.0000
  Tm  Tm6       1.0  0.75000  0.39400  0.60600  1.0000
  Tm  Tm7       1.0  0.37800  0.55100  0.78300  1.0000
  Tm  Tm8       1.0  0.25000  0.13700  0.86300  1.0000
