data_image0
_chemical_formula_structural       Dy20Si16
_chemical_formula_sum              "Dy20 Si16"
_cell_length_a       7.43927
_cell_length_b       14.5775
_cell_length_c       7.68625
_cell_angle_alpha    90
_cell_angle_beta     90
_cell_angle_gamma    90

_space_group_name_H-M_alt    "P 1"
_space_group_IT_number       1

loop_
  _space_group_symop_operation_xyz
  'x, y, z'

loop_
  _atom_site_type_symbol
  _atom_site_label
  _atom_site_symmetry_multiplicity
  _atom_site_fract_x
  _atom_site_fract_y
  _atom_site_fract_z
  _atom_site_occupancy
  Dy  Dy1       1.0  0.35300  0.25000  0.01150  1.0000
  Dy  Dy2       1.0  0.31600  0.62300  0.17900  1.0000
  Dy  Dy3       1.0  0.31600  0.87700  0.17900  1.0000
  Dy  Dy4       1.0  0.03100  0.09900  0.18400  1.0000
  Dy  Dy5       1.0  0.03100  0.40100  0.18400  1.0000
  Dy  Dy6       1.0  0.53100  0.09900  0.31600  1.0000
  Dy  Dy7       1.0  0.53100  0.40100  0.31600  1.0000
  Dy  Dy8       1.0  0.81600  0.62300  0.32100  1.0000
  Dy  Dy9       1.0  0.81600  0.87700  0.32100  1.0000
  Dy  Dy10      1.0  0.85300  0.25000  0.48800  1.0000
  Dy  Dy11      1.0  0.14700  0.75000  0.51200  1.0000
  Dy  Dy12      1.0  0.18400  0.12300  0.67900  1.0000
  Dy  Dy13      1.0  0.18400  0.37700  0.67900  1.0000
  Dy  Dy14      1.0  0.46900  0.59900  0.68400  1.0000
  Dy  Dy15      1.0  0.46900  0.90100  0.68400  1.0000
  Dy  Dy16      1.0  0.96900  0.59900  0.81600  1.0000
  Dy  Dy17      1.0  0.96900  0.90100  0.81600  1.0000
  Dy  Dy18      1.0  0.68400  0.12300  0.82100  1.0000
  Dy  Dy19      1.0  0.68400  0.37700  0.82100  1.0000
  Dy  Dy20      1.0  0.64700  0.75000  0.98800  1.0000
  Si  Si1       1.0  0.64500  0.54100  0.02780  1.0000
  Si  Si2       1.0  0.64500  0.95900  0.02780  1.0000
  Si  Si3       1.0  0.01970  0.75000  0.10400  1.0000
  Si  Si4       1.0  0.73600  0.25000  0.12700  1.0000
  Si  Si5       1.0  0.23600  0.25000  0.37300  1.0000
  Si  Si6       1.0  0.52000  0.75000  0.39600  1.0000
  Si  Si7       1.0  0.14500  0.54100  0.47200  1.0000
  Si  Si8       1.0  0.14500  0.95900  0.47200  1.0000
  Si  Si9       1.0  0.85500  0.04060  0.52800  1.0000
  Si  Si10      1.0  0.85500  0.45900  0.52800  1.0000
  Si  Si11      1.0  0.48000  0.25000  0.60400  1.0000
  Si  Si12      1.0  0.76400  0.75000  0.62700  1.0000
  Si  Si13      1.0  0.26400  0.75000  0.87300  1.0000
  Si  Si14      1.0  0.98000  0.25000  0.89600  1.0000
  Si  Si15      1.0  0.35500  0.04060  0.97200  1.0000
  Si  Si16      1.0  0.35500  0.45900  0.97200  1.0000
