data_image0
_chemical_formula_structural       Nd20Si16
_chemical_formula_sum              "Nd20 Si16"
_cell_length_a       7.89478
_cell_length_b       7.89478
_cell_length_c       15.1153
_cell_angle_alpha    90
_cell_angle_beta     90
_cell_angle_gamma    90

_space_group_name_H-M_alt    "P 1"
_space_group_IT_number       1

loop_
  _space_group_symop_operation_xyz
  'x, y, z'

loop_
  _atom_site_type_symbol
  _atom_site_label
  _atom_site_symmetry_multiplicity
  _atom_site_fract_x
  _atom_site_fract_y
  _atom_site_fract_z
  _atom_site_occupancy
  Nd  Nd1       1.0  0.69000  0.69000  0.00000  1.0000
  Nd  Nd2       1.0  0.01070  0.37600  0.05140  1.0000
  Nd  Nd3       1.0  0.01860  0.87200  0.12400  1.0000
  Nd  Nd4       1.0  0.48100  0.37200  0.12600  1.0000
  Nd  Nd5       1.0  0.48900  0.87600  0.19900  1.0000
  Nd  Nd6       1.0  0.81000  0.19000  0.25000  1.0000
  Nd  Nd7       1.0  0.12400  0.51100  0.30100  1.0000
  Nd  Nd8       1.0  0.62800  0.51900  0.37400  1.0000
  Nd  Nd9       1.0  0.12800  0.98100  0.37600  1.0000
  Nd  Nd10      1.0  0.62400  0.98900  0.44900  1.0000
  Nd  Nd11      1.0  0.31000  0.31000  0.50000  1.0000
  Nd  Nd12      1.0  0.98900  0.62400  0.55100  1.0000
  Nd  Nd13      1.0  0.98100  0.12800  0.62400  1.0000
  Nd  Nd14      1.0  0.51900  0.62800  0.62600  1.0000
  Nd  Nd15      1.0  0.51100  0.12400  0.69900  1.0000
  Nd  Nd16      1.0  0.19000  0.81000  0.75000  1.0000
  Nd  Nd17      1.0  0.87600  0.48900  0.80100  1.0000
  Nd  Nd18      1.0  0.37200  0.48100  0.87400  1.0000
  Nd  Nd19      1.0  0.87200  0.01860  0.87600  1.0000
  Nd  Nd20      1.0  0.37600  0.01070  0.94900  1.0000
  Si  Si1       1.0  0.30400  0.66800  0.04930  1.0000
  Si  Si2       1.0  0.71100  0.07600  0.05970  1.0000
  Si  Si3       1.0  0.78900  0.57600  0.19000  1.0000
  Si  Si4       1.0  0.19600  0.16800  0.20100  1.0000
  Si  Si5       1.0  0.83200  0.80400  0.29900  1.0000
  Si  Si6       1.0  0.42400  0.21100  0.31000  1.0000
  Si  Si7       1.0  0.92400  0.28900  0.44000  1.0000
  Si  Si8       1.0  0.33200  0.69600  0.45100  1.0000
  Si  Si9       1.0  0.69600  0.33200  0.54900  1.0000
  Si  Si10      1.0  0.28900  0.92400  0.56000  1.0000
  Si  Si11      1.0  0.21100  0.42400  0.69000  1.0000
  Si  Si12      1.0  0.80400  0.83200  0.70100  1.0000
  Si  Si13      1.0  0.16800  0.19600  0.79900  1.0000
  Si  Si14      1.0  0.57600  0.78900  0.81000  1.0000
  Si  Si15      1.0  0.07600  0.71100  0.94000  1.0000
  Si  Si16      1.0  0.66800  0.30400  0.95100  1.0000
