data_image0
_chemical_formula_structural       La20Si16
_chemical_formula_sum              "La20 Si16"
_cell_length_a       8.04682
_cell_length_b       8.04682
_cell_length_c       15.4627
_cell_angle_alpha    90
_cell_angle_beta     90
_cell_angle_gamma    90

_space_group_name_H-M_alt    "P 1"
_space_group_IT_number       1

loop_
  _space_group_symop_operation_xyz
  'x, y, z'

loop_
  _atom_site_type_symbol
  _atom_site_label
  _atom_site_symmetry_multiplicity
  _atom_site_fract_x
  _atom_site_fract_y
  _atom_site_fract_z
  _atom_site_occupancy
  La  La1       1.0  0.19200  0.19200  0.00000  1.0000
  La  La2       1.0  0.51000  0.87900  0.05160  1.0000
  La  La3       1.0  0.52000  0.37300  0.12400  1.0000
  La  La4       1.0  0.98000  0.87300  0.12600  1.0000
  La  La5       1.0  0.99000  0.37900  0.19800  1.0000
  La  La6       1.0  0.30800  0.69200  0.25000  1.0000
  La  La7       1.0  0.62100  0.01000  0.30200  1.0000
  La  La8       1.0  0.12700  0.01970  0.37400  1.0000
  La  La9       1.0  0.62700  0.48000  0.37600  1.0000
  La  La10      1.0  0.12100  0.49000  0.44800  1.0000
  La  La11      1.0  0.80800  0.80800  0.50000  1.0000
  La  La12      1.0  0.49000  0.12100  0.55200  1.0000
  La  La13      1.0  0.48000  0.62700  0.62400  1.0000
  La  La14      1.0  0.01970  0.12700  0.62600  1.0000
  La  La15      1.0  0.01000  0.62100  0.69800  1.0000
  La  La16      1.0  0.69200  0.30800  0.75000  1.0000
  La  La17      1.0  0.37900  0.99000  0.80200  1.0000
  La  La18      1.0  0.87300  0.98000  0.87400  1.0000
  La  La19      1.0  0.37300  0.52000  0.87600  1.0000
  La  La20      1.0  0.87900  0.51000  0.94800  1.0000
  Si  Si1       1.0  0.80300  0.16900  0.04720  1.0000
  Si  Si2       1.0  0.21000  0.57900  0.05890  1.0000
  Si  Si3       1.0  0.29000  0.07850  0.19100  1.0000
  Si  Si4       1.0  0.69700  0.66900  0.20300  1.0000
  Si  Si5       1.0  0.33100  0.30300  0.29700  1.0000
  Si  Si6       1.0  0.92100  0.71000  0.30900  1.0000
  Si  Si7       1.0  0.42100  0.79000  0.44100  1.0000
  Si  Si8       1.0  0.83100  0.19700  0.45300  1.0000
  Si  Si9       1.0  0.19700  0.83100  0.54700  1.0000
  Si  Si10      1.0  0.79000  0.42100  0.55900  1.0000
  Si  Si11      1.0  0.71000  0.92100  0.69100  1.0000
  Si  Si12      1.0  0.30300  0.33100  0.70300  1.0000
  Si  Si13      1.0  0.66900  0.69700  0.79700  1.0000
  Si  Si14      1.0  0.07850  0.29000  0.80900  1.0000
  Si  Si15      1.0  0.57900  0.21000  0.94100  1.0000
  Si  Si16      1.0  0.16900  0.80300  0.95300  1.0000
