data_image0
_chemical_formula_structural       Si16Yb20
_chemical_formula_sum              "Si16 Yb20"
_cell_length_a       7.53096
_cell_length_b       15.4639
_cell_length_c       7.80272
_cell_angle_alpha    90
_cell_angle_beta     90
_cell_angle_gamma    90

_space_group_name_H-M_alt    "P 1"
_space_group_IT_number       1

loop_
  _space_group_symop_operation_xyz
  'x, y, z'

loop_
  _atom_site_type_symbol
  _atom_site_label
  _atom_site_symmetry_multiplicity
  _atom_site_fract_x
  _atom_site_fract_y
  _atom_site_fract_z
  _atom_site_occupancy
  Si  Si1       1.0  0.63500  0.53800  0.02300  1.0000
  Si  Si2       1.0  0.63500  0.96200  0.02300  1.0000
  Si  Si3       1.0  0.02310  0.75000  0.09620  1.0000
  Si  Si4       1.0  0.75600  0.25000  0.12100  1.0000
  Si  Si5       1.0  0.25600  0.25000  0.37900  1.0000
  Si  Si6       1.0  0.52300  0.75000  0.40400  1.0000
  Si  Si7       1.0  0.13500  0.53800  0.47700  1.0000
  Si  Si8       1.0  0.13500  0.96200  0.47700  1.0000
  Si  Si9       1.0  0.86500  0.03810  0.52300  1.0000
  Si  Si10      1.0  0.86500  0.46200  0.52300  1.0000
  Si  Si11      1.0  0.47700  0.25000  0.59600  1.0000
  Si  Si12      1.0  0.74400  0.75000  0.62100  1.0000
  Si  Si13      1.0  0.24400  0.75000  0.87900  1.0000
  Si  Si14      1.0  0.97700  0.25000  0.90400  1.0000
  Si  Si15      1.0  0.36500  0.03810  0.97700  1.0000
  Si  Si16      1.0  0.36500  0.46200  0.97700  1.0000
  Yb  Yb1       1.0  0.36300  0.25000  0.00766  1.0000
  Yb  Yb2       1.0  0.03690  0.09950  0.18000  1.0000
  Yb  Yb3       1.0  0.03690  0.40000  0.18000  1.0000
  Yb  Yb4       1.0  0.31400  0.62200  0.18100  1.0000
  Yb  Yb5       1.0  0.31400  0.87800  0.18100  1.0000
  Yb  Yb6       1.0  0.81400  0.62200  0.31900  1.0000
  Yb  Yb7       1.0  0.81400  0.87800  0.31900  1.0000
  Yb  Yb8       1.0  0.53700  0.09950  0.32000  1.0000
  Yb  Yb9       1.0  0.53700  0.40000  0.32000  1.0000
  Yb  Yb10      1.0  0.86300  0.25000  0.49200  1.0000
  Yb  Yb11      1.0  0.13700  0.75000  0.50800  1.0000
  Yb  Yb12      1.0  0.46300  0.60000  0.68000  1.0000
  Yb  Yb13      1.0  0.46300  0.90000  0.68000  1.0000
  Yb  Yb14      1.0  0.18600  0.12200  0.68100  1.0000
  Yb  Yb15      1.0  0.18600  0.37800  0.68100  1.0000
  Yb  Yb16      1.0  0.68600  0.12200  0.81900  1.0000
  Yb  Yb17      1.0  0.68600  0.37800  0.81900  1.0000
  Yb  Yb18      1.0  0.96300  0.60000  0.82000  1.0000
  Yb  Yb19      1.0  0.96300  0.90000  0.82000  1.0000
  Yb  Yb20      1.0  0.63700  0.75000  0.99200  1.0000
