data_image0
_chemical_formula_structural       Mn4N8O24
_chemical_formula_sum              "Mn4 N8 O24"
_cell_length_a       7.45638
_cell_length_b       7.45638
_cell_length_c       7.45638
_cell_angle_alpha    90
_cell_angle_beta     90
_cell_angle_gamma    90

_space_group_name_H-M_alt    "P 1"
_space_group_IT_number       1

loop_
  _space_group_symop_operation_xyz
  'x, y, z'

loop_
  _atom_site_type_symbol
  _atom_site_label
  _atom_site_symmetry_multiplicity
  _atom_site_fract_x
  _atom_site_fract_y
  _atom_site_fract_z
  _atom_site_occupancy
  Mn  Mn1       1.0  0.00000  0.00000  0.00000  1.0000
  Mn  Mn2       1.0  0.50000  0.50000  0.00000  1.0000
  Mn  Mn3       1.0  0.50000  0.00000  0.50000  1.0000
  Mn  Mn4       1.0  0.00000  0.50000  0.50000  1.0000
  N   N1        1.0  0.82800  0.32800  0.17200  1.0000
  N   N2        1.0  0.67200  0.82800  0.17200  1.0000
  N   N3        1.0  0.32800  0.32800  0.32800  1.0000
  N   N4        1.0  0.17200  0.82800  0.32800  1.0000
  N   N5        1.0  0.82800  0.17200  0.67200  1.0000
  N   N6        1.0  0.67200  0.67200  0.67200  1.0000
  N   N7        1.0  0.32800  0.17200  0.82800  1.0000
  N   N8        1.0  0.17200  0.67200  0.82800  1.0000
  O   O1        1.0  0.72000  0.30700  0.04370  1.0000
  O   O2        1.0  0.78000  0.80700  0.04370  1.0000
  O   O3        1.0  0.95600  0.22000  0.19300  1.0000
  O   O4        1.0  0.54400  0.72000  0.19300  1.0000
  O   O5        1.0  0.30700  0.45600  0.22000  1.0000
  O   O6        1.0  0.19300  0.95600  0.22000  1.0000
  O   O7        1.0  0.80700  0.45600  0.28000  1.0000
  O   O8        1.0  0.69300  0.95600  0.28000  1.0000
  O   O9        1.0  0.45600  0.22000  0.30700  1.0000
  O   O10       1.0  0.04370  0.72000  0.30700  1.0000
  O   O11       1.0  0.22000  0.30700  0.45600  1.0000
  O   O12       1.0  0.28000  0.80700  0.45600  1.0000
  O   O13       1.0  0.72000  0.19300  0.54400  1.0000
  O   O14       1.0  0.78000  0.69300  0.54400  1.0000
  O   O15       1.0  0.95600  0.28000  0.69300  1.0000
  O   O16       1.0  0.54400  0.78000  0.69300  1.0000
  O   O17       1.0  0.30700  0.04370  0.72000  1.0000
  O   O18       1.0  0.19300  0.54400  0.72000  1.0000
  O   O19       1.0  0.80700  0.04370  0.78000  1.0000
  O   O20       1.0  0.69300  0.54400  0.78000  1.0000
  O   O21       1.0  0.45600  0.28000  0.80700  1.0000
  O   O22       1.0  0.04370  0.78000  0.80700  1.0000
  O   O23       1.0  0.22000  0.19300  0.95600  1.0000
  O   O24       1.0  0.28000  0.69300  0.95600  1.0000
