data_image0
_chemical_formula_structural       Li4O24Sb4W4
_chemical_formula_sum              "Li4 O24 Sb4 W4"
_cell_length_a       4.65231
_cell_length_b       17.3509
_cell_length_c       4.99988
_cell_angle_alpha    90
_cell_angle_beta     90
_cell_angle_gamma    90

_space_group_name_H-M_alt    "P 1"
_space_group_IT_number       1

loop_
  _space_group_symop_operation_xyz
  'x, y, z'

loop_
  _atom_site_type_symbol
  _atom_site_label
  _atom_site_symmetry_multiplicity
  _atom_site_fract_x
  _atom_site_fract_y
  _atom_site_fract_z
  _atom_site_occupancy
  Li  Li1       1.0  0.00000  0.05220  0.25000  1.0000
  Li  Li2       1.0  0.50000  0.55200  0.25000  1.0000
  Li  Li3       1.0  0.50000  0.44800  0.75000  1.0000
  Li  Li4       1.0  0.00000  0.94800  0.75000  1.0000
  O   O1        1.0  0.28700  0.13400  0.05960  1.0000
  O   O2        1.0  0.21300  0.63400  0.05960  1.0000
  O   O3        1.0  0.24300  0.29500  0.07910  1.0000
  O   O4        1.0  0.25700  0.79500  0.07910  1.0000
  O   O5        1.0  0.25500  0.46100  0.10100  1.0000
  O   O6        1.0  0.24500  0.96100  0.10100  1.0000
  O   O7        1.0  0.74500  0.46100  0.39900  1.0000
  O   O8        1.0  0.75500  0.96100  0.39900  1.0000
  O   O9        1.0  0.75700  0.29500  0.42100  1.0000
  O   O10       1.0  0.74300  0.79500  0.42100  1.0000
  O   O11       1.0  0.71300  0.13400  0.44000  1.0000
  O   O12       1.0  0.78700  0.63400  0.44000  1.0000
  O   O13       1.0  0.21300  0.36600  0.56000  1.0000
  O   O14       1.0  0.28700  0.86600  0.56000  1.0000
  O   O15       1.0  0.25700  0.20500  0.57900  1.0000
  O   O16       1.0  0.24300  0.70500  0.57900  1.0000
  O   O17       1.0  0.24500  0.03910  0.60100  1.0000
  O   O18       1.0  0.25500  0.53900  0.60100  1.0000
  O   O19       1.0  0.75500  0.03910  0.89900  1.0000
  O   O20       1.0  0.74500  0.53900  0.89900  1.0000
  O   O21       1.0  0.74300  0.20500  0.92100  1.0000
  O   O22       1.0  0.75700  0.70500  0.92100  1.0000
  O   O23       1.0  0.78700  0.36600  0.94000  1.0000
  O   O24       1.0  0.71300  0.86600  0.94000  1.0000
  Sb  Sb1       1.0  0.50000  0.21800  0.25000  1.0000
  Sb  Sb2       1.0  0.00000  0.71800  0.25000  1.0000
  Sb  Sb3       1.0  0.00000  0.28200  0.75000  1.0000
  Sb  Sb4       1.0  0.50000  0.78200  0.75000  1.0000
  W   W1        1.0  0.00000  0.40000  0.25000  1.0000
  W   W2        1.0  0.50000  0.90000  0.25000  1.0000
  W   W3        1.0  0.50000  0.10000  0.75000  1.0000
  W   W4        1.0  0.00000  0.60000  0.75000  1.0000
