data_image0
_chemical_formula_structural       LiMnO6V
_chemical_formula_sum              "Li1 Mn1 O6 V1"
_cell_length_a       4.94062
_cell_length_b       4.94062
_cell_length_c       4.81894
_cell_angle_alpha    97.6266
_cell_angle_beta     97.6266
_cell_angle_gamma    121.564

_space_group_name_H-M_alt    "P 1"
_space_group_IT_number       1

loop_
  _space_group_symop_operation_xyz
  'x, y, z'

loop_
  _atom_site_type_symbol
  _atom_site_label
  _atom_site_symmetry_multiplicity
  _atom_site_fract_x
  _atom_site_fract_y
  _atom_site_fract_z
  _atom_site_occupancy
  Li  Li1       1.0  0.37800  0.62200  0.50000  1.0000
  Mn  Mn1       1.0  0.82200  0.17800  0.00000  1.0000
  O   O1        1.0  0.53800  0.90600  0.20700  1.0000
  O   O2        1.0  0.19700  0.20500  0.22900  1.0000
  O   O3        1.0  0.93600  0.56300  0.23400  1.0000
  O   O4        1.0  0.43700  0.06380  0.76600  1.0000
  O   O5        1.0  0.79500  0.80300  0.77100  1.0000
  O   O6        1.0  0.09450  0.46200  0.79300  1.0000
  V   V1        1.0  0.14100  0.85900  0.00000  1.0000
