data_image0
_chemical_formula_structural       H24Li2N8Te2
_chemical_formula_sum              "H24 Li2 N8 Te2"
_cell_length_a       6.54424
_cell_length_b       7.09082
_cell_length_c       8.18227
_cell_angle_alpha    100.461
_cell_angle_beta     113.304
_cell_angle_gamma    92.8529

_space_group_name_H-M_alt    "P 1"
_space_group_IT_number       1

loop_
  _space_group_symop_operation_xyz
  'x, y, z'

loop_
  _atom_site_type_symbol
  _atom_site_label
  _atom_site_symmetry_multiplicity
  _atom_site_fract_x
  _atom_site_fract_y
  _atom_site_fract_z
  _atom_site_occupancy
  H   H1        1.0  0.07360  0.28900  0.02620  1.0000
  H   H2        1.0  0.90800  0.12300  0.04960  1.0000
  H   H3        1.0  0.20000  0.70200  0.04990  1.0000
  H   H4        1.0  0.65900  0.86700  0.14000  1.0000
  H   H5        1.0  0.70000  0.10600  0.20100  1.0000
  H   H6        1.0  0.30700  0.21800  0.30600  1.0000
  H   H7        1.0  0.96400  0.59200  0.32300  1.0000
  H   H8        1.0  0.22000  0.59100  0.32900  1.0000
  H   H9        1.0  0.74300  0.97600  0.35500  1.0000
  H   H10       1.0  0.48800  0.14100  0.47400  1.0000
  H   H11       1.0  0.81600  0.35300  0.48000  1.0000
  H   H12       1.0  0.69700  0.73400  0.49000  1.0000
  H   H13       1.0  0.30300  0.26600  0.51000  1.0000
  H   H14       1.0  0.18400  0.64700  0.52000  1.0000
  H   H15       1.0  0.51200  0.85900  0.52600  1.0000
  H   H16       1.0  0.25700  0.02360  0.64500  1.0000
  H   H17       1.0  0.78000  0.40900  0.67100  1.0000
  H   H18       1.0  0.03560  0.40800  0.67700  1.0000
  H   H19       1.0  0.69300  0.78200  0.69400  1.0000
  H   H20       1.0  0.30000  0.89400  0.79900  1.0000
  H   H21       1.0  0.34100  0.13300  0.86000  1.0000
  H   H22       1.0  0.80000  0.29800  0.95000  1.0000
  H   H23       1.0  0.09160  0.87700  0.95000  1.0000
  H   H24       1.0  0.92600  0.71100  0.97400  1.0000
  Li  Li1       1.0  0.08290  0.91500  0.28600  1.0000
  Li  Li2       1.0  0.91700  0.08480  0.71400  1.0000
  N   N1        1.0  0.08150  0.79600  0.03900  1.0000
  N   N2        1.0  0.76400  0.98300  0.23900  1.0000
  N   N3        1.0  0.12600  0.66600  0.38800  1.0000
  N   N4        1.0  0.32200  0.15800  0.41500  1.0000
  N   N5        1.0  0.67800  0.84200  0.58500  1.0000
  N   N6        1.0  0.87400  0.33400  0.61200  1.0000
  N   N7        1.0  0.23600  0.01690  0.76100  1.0000
  N   N8        1.0  0.91800  0.20400  0.96100  1.0000
  Te  Te1       1.0  0.51600  0.45000  0.16100  1.0000
  Te  Te2       1.0  0.48400  0.55000  0.83900  1.0000
