data_image0
_chemical_formula_structural       Ho20Si16
_chemical_formula_sum              "Ho20 Si16"
_cell_length_a       7.38872
_cell_length_b       14.4968
_cell_length_c       7.66298
_cell_angle_alpha    90
_cell_angle_beta     90
_cell_angle_gamma    90

_space_group_name_H-M_alt    "P 1"
_space_group_IT_number       1

loop_
  _space_group_symop_operation_xyz
  'x, y, z'

loop_
  _atom_site_type_symbol
  _atom_site_label
  _atom_site_symmetry_multiplicity
  _atom_site_fract_x
  _atom_site_fract_y
  _atom_site_fract_z
  _atom_site_occupancy
  Ho  Ho1       1.0  0.65100  0.75000  0.01200  1.0000
  Ho  Ho2       1.0  0.68000  0.12300  0.18000  1.0000
  Ho  Ho3       1.0  0.68000  0.37700  0.18000  1.0000
  Ho  Ho4       1.0  0.97400  0.59800  0.18300  1.0000
  Ho  Ho5       1.0  0.97400  0.90200  0.18300  1.0000
  Ho  Ho6       1.0  0.47400  0.59800  0.31700  1.0000
  Ho  Ho7       1.0  0.47400  0.90200  0.31700  1.0000
  Ho  Ho8       1.0  0.18000  0.12300  0.32000  1.0000
  Ho  Ho9       1.0  0.18000  0.37700  0.32000  1.0000
  Ho  Ho10      1.0  0.15100  0.75000  0.48800  1.0000
  Ho  Ho11      1.0  0.84900  0.25000  0.51200  1.0000
  Ho  Ho12      1.0  0.82000  0.62300  0.68000  1.0000
  Ho  Ho13      1.0  0.82000  0.87700  0.68000  1.0000
  Ho  Ho14      1.0  0.52600  0.09810  0.68300  1.0000
  Ho  Ho15      1.0  0.52600  0.40200  0.68300  1.0000
  Ho  Ho16      1.0  0.02640  0.09810  0.81700  1.0000
  Ho  Ho17      1.0  0.02640  0.40200  0.81700  1.0000
  Ho  Ho18      1.0  0.32000  0.62300  0.82000  1.0000
  Ho  Ho19      1.0  0.32000  0.87700  0.82000  1.0000
  Ho  Ho20      1.0  0.34900  0.25000  0.98800  1.0000
  Si  Si1       1.0  0.35200  0.03990  0.02860  1.0000
  Si  Si2       1.0  0.35200  0.46000  0.02860  1.0000
  Si  Si3       1.0  0.97700  0.25000  0.10300  1.0000
  Si  Si4       1.0  0.26900  0.75000  0.12800  1.0000
  Si  Si5       1.0  0.76900  0.75000  0.37200  1.0000
  Si  Si6       1.0  0.47700  0.25000  0.39700  1.0000
  Si  Si7       1.0  0.85200  0.03990  0.47100  1.0000
  Si  Si8       1.0  0.85200  0.46000  0.47100  1.0000
  Si  Si9       1.0  0.14800  0.54000  0.52900  1.0000
  Si  Si10      1.0  0.14800  0.96000  0.52900  1.0000
  Si  Si11      1.0  0.52300  0.75000  0.60300  1.0000
  Si  Si12      1.0  0.23100  0.25000  0.62800  1.0000
  Si  Si13      1.0  0.73100  0.25000  0.87200  1.0000
  Si  Si14      1.0  0.02320  0.75000  0.89700  1.0000
  Si  Si15      1.0  0.64800  0.54000  0.97100  1.0000
  Si  Si16      1.0  0.64800  0.96000  0.97100  1.0000
