data_image0
_chemical_formula_structural       Na20Sn12Tl4
_chemical_formula_sum              "Na20 Sn12 Tl4"
_cell_length_a       7.22484
_cell_length_b       13.4934
_cell_length_c       11.3609
_cell_angle_alpha    90
_cell_angle_beta     104.935
_cell_angle_gamma    90

_space_group_name_H-M_alt    "P 1"
_space_group_IT_number       1

loop_
  _space_group_symop_operation_xyz
  'x, y, z'

loop_
  _atom_site_type_symbol
  _atom_site_label
  _atom_site_symmetry_multiplicity
  _atom_site_fract_x
  _atom_site_fract_y
  _atom_site_fract_z
  _atom_site_occupancy
  Na  Na1       1.0  0.36700  0.89200  0.02350  1.0000
  Na  Na2       1.0  0.05570  0.31500  0.03620  1.0000
  Na  Na3       1.0  0.55400  0.31500  0.13000  1.0000
  Na  Na4       1.0  0.96100  0.91200  0.15400  1.0000
  Na  Na5       1.0  0.34600  0.55200  0.16400  1.0000
  Na  Na6       1.0  0.65400  0.05240  0.33600  1.0000
  Na  Na7       1.0  0.03870  0.41200  0.34600  1.0000
  Na  Na8       1.0  0.44600  0.81500  0.37000  1.0000
  Na  Na9       1.0  0.94400  0.81500  0.46400  1.0000
  Na  Na10      1.0  0.63300  0.39200  0.47700  1.0000
  Na  Na11      1.0  0.36700  0.60800  0.52300  1.0000
  Na  Na12      1.0  0.05570  0.18500  0.53600  1.0000
  Na  Na13      1.0  0.55400  0.18500  0.63000  1.0000
  Na  Na14      1.0  0.96100  0.58800  0.65400  1.0000
  Na  Na15      1.0  0.34600  0.94800  0.66400  1.0000
  Na  Na16      1.0  0.65400  0.44800  0.83600  1.0000
  Na  Na17      1.0  0.03870  0.08820  0.84600  1.0000
  Na  Na18      1.0  0.44600  0.68500  0.87000  1.0000
  Na  Na19      1.0  0.94400  0.68500  0.96400  1.0000
  Na  Na20      1.0  0.63300  0.10800  0.97700  1.0000
  Sn  Sn1       1.0  0.26300  0.09380  0.13000  1.0000
  Sn  Sn2       1.0  0.65900  0.73700  0.16800  1.0000
  Sn  Sn3       1.0  0.93700  0.17300  0.22400  1.0000
  Sn  Sn4       1.0  0.06280  0.67300  0.27600  1.0000
  Sn  Sn5       1.0  0.34100  0.23700  0.33200  1.0000
  Sn  Sn6       1.0  0.73700  0.59400  0.37000  1.0000
  Sn  Sn7       1.0  0.26300  0.40600  0.63000  1.0000
  Sn  Sn8       1.0  0.65900  0.76300  0.66800  1.0000
  Sn  Sn9       1.0  0.93700  0.32700  0.72400  1.0000
  Sn  Sn10      1.0  0.06280  0.82700  0.77600  1.0000
  Sn  Sn11      1.0  0.34100  0.26300  0.83200  1.0000
  Sn  Sn12      1.0  0.73700  0.90600  0.87000  1.0000
  Tl  Tl1       1.0  0.77900  0.52100  0.11100  1.0000
  Tl  Tl2       1.0  0.22100  0.02060  0.38900  1.0000
  Tl  Tl3       1.0  0.77900  0.97900  0.61100  1.0000
  Tl  Tl4       1.0  0.22100  0.47900  0.88900  1.0000
