data_image0
_chemical_formula_structural       Ca6H4O20Si6
_chemical_formula_sum              "Ca6 H4 O20 Si6"
_cell_length_a       6.90378
_cell_length_b       9.43394
_cell_length_c       6.76975
_cell_angle_alpha    108.725
_cell_angle_beta     94.9359
_cell_angle_gamma    95.8377

_space_group_name_H-M_alt    "P 1"
_space_group_IT_number       1

loop_
  _space_group_symop_operation_xyz
  'x, y, z'

loop_
  _atom_site_type_symbol
  _atom_site_label
  _atom_site_symmetry_multiplicity
  _atom_site_fract_x
  _atom_site_fract_y
  _atom_site_fract_z
  _atom_site_occupancy
  Ca  Ca1       1.0  0.27900  0.34400  0.18400  1.0000
  Ca  Ca2       1.0  0.09600  0.68000  0.24200  1.0000
  Ca  Ca3       1.0  0.85000  0.00839  0.26600  1.0000
  Ca  Ca4       1.0  0.15000  0.99200  0.73400  1.0000
  Ca  Ca5       1.0  0.90400  0.32000  0.75800  1.0000
  Ca  Ca6       1.0  0.72100  0.65600  0.81600  1.0000
  H   H1        1.0  0.40000  0.65100  0.02620  1.0000
  H   H2        1.0  0.46800  0.87300  0.07980  1.0000
  H   H3        1.0  0.53200  0.12700  0.92000  1.0000
  H   H4        1.0  0.60000  0.34900  0.97400  1.0000
  O   O1        1.0  0.60600  0.29400  0.08780  1.0000
  O   O2        1.0  0.18700  0.08830  0.09130  1.0000
  O   O3        1.0  0.97700  0.42000  0.14700  1.0000
  O   O4        1.0  0.77200  0.72700  0.19700  1.0000
  O   O5        1.0  0.40600  0.59100  0.19900  1.0000
  O   O6        1.0  0.50400  0.96600  0.20700  1.0000
  O   O7        1.0  0.16100  0.94700  0.36900  1.0000
  O   O8        1.0  0.86000  0.26900  0.40300  1.0000
  O   O9        1.0  0.71900  0.53200  0.41700  1.0000
  O   O10       1.0  0.40400  0.21400  0.44700  1.0000
  O   O11       1.0  0.59600  0.78600  0.55300  1.0000
  O   O12       1.0  0.28100  0.46800  0.58300  1.0000
  O   O13       1.0  0.14000  0.73100  0.59700  1.0000
  O   O14       1.0  0.83900  0.05320  0.63100  1.0000
  O   O15       1.0  0.49600  0.03370  0.79300  1.0000
  O   O16       1.0  0.59400  0.40900  0.80100  1.0000
  O   O17       1.0  0.22800  0.27300  0.80300  1.0000
  O   O18       1.0  0.02340  0.58000  0.85300  1.0000
  O   O19       1.0  0.81300  0.91200  0.90900  1.0000
  O   O20       1.0  0.39400  0.70600  0.91200  1.0000
  Si  Si1       1.0  0.80200  0.37500  0.27100  1.0000
  Si  Si2       1.0  0.30700  0.04780  0.27700  1.0000
  Si  Si3       1.0  0.62300  0.66100  0.32800  1.0000
  Si  Si4       1.0  0.37700  0.33900  0.67200  1.0000
  Si  Si5       1.0  0.69300  0.95200  0.72300  1.0000
  Si  Si6       1.0  0.19800  0.62500  0.72900  1.0000
