data_image0
_chemical_formula_structural       Ge16Yb20
_chemical_formula_sum              "Ge16 Yb20"
_cell_length_a       7.48125
_cell_length_b       15.4592
_cell_length_c       7.87447
_cell_angle_alpha    90
_cell_angle_beta     90
_cell_angle_gamma    90

_space_group_name_H-M_alt    "P 1"
_space_group_IT_number       1

loop_
  _space_group_symop_operation_xyz
  'x, y, z'

loop_
  _atom_site_type_symbol
  _atom_site_label
  _atom_site_symmetry_multiplicity
  _atom_site_fract_x
  _atom_site_fract_y
  _atom_site_fract_z
  _atom_site_occupancy
  Ge  Ge1       1.0  0.65100  0.53800  0.02640  1.0000
  Ge  Ge2       1.0  0.65100  0.96200  0.02640  1.0000
  Ge  Ge3       1.0  0.02830  0.75000  0.10200  1.0000
  Ge  Ge4       1.0  0.73800  0.25000  0.12800  1.0000
  Ge  Ge5       1.0  0.23800  0.25000  0.37200  1.0000
  Ge  Ge6       1.0  0.52800  0.75000  0.39800  1.0000
  Ge  Ge7       1.0  0.15100  0.53800  0.47400  1.0000
  Ge  Ge8       1.0  0.15100  0.96200  0.47400  1.0000
  Ge  Ge9       1.0  0.84900  0.03830  0.52600  1.0000
  Ge  Ge10      1.0  0.84900  0.46200  0.52600  1.0000
  Ge  Ge11      1.0  0.47200  0.25000  0.60200  1.0000
  Ge  Ge12      1.0  0.76200  0.75000  0.62800  1.0000
  Ge  Ge13      1.0  0.26200  0.75000  0.87200  1.0000
  Ge  Ge14      1.0  0.97200  0.25000  0.89800  1.0000
  Ge  Ge15      1.0  0.34900  0.03830  0.97400  1.0000
  Ge  Ge16      1.0  0.34900  0.46200  0.97400  1.0000
  Yb  Yb1       1.0  0.35100  0.25000  0.00850  1.0000
  Yb  Yb2       1.0  0.32200  0.62200  0.17700  1.0000
  Yb  Yb3       1.0  0.32200  0.87800  0.17700  1.0000
  Yb  Yb4       1.0  0.02090  0.09710  0.17900  1.0000
  Yb  Yb5       1.0  0.02090  0.40300  0.17900  1.0000
  Yb  Yb6       1.0  0.52100  0.09710  0.32100  1.0000
  Yb  Yb7       1.0  0.52100  0.40300  0.32100  1.0000
  Yb  Yb8       1.0  0.82200  0.62200  0.32300  1.0000
  Yb  Yb9       1.0  0.82200  0.87800  0.32300  1.0000
  Yb  Yb10      1.0  0.85100  0.25000  0.49100  1.0000
  Yb  Yb11      1.0  0.14900  0.75000  0.50900  1.0000
  Yb  Yb12      1.0  0.17800  0.12200  0.67700  1.0000
  Yb  Yb13      1.0  0.17800  0.37800  0.67700  1.0000
  Yb  Yb14      1.0  0.47900  0.59700  0.67900  1.0000
  Yb  Yb15      1.0  0.47900  0.90300  0.67900  1.0000
  Yb  Yb16      1.0  0.97900  0.59700  0.82100  1.0000
  Yb  Yb17      1.0  0.97900  0.90300  0.82100  1.0000
  Yb  Yb18      1.0  0.67800  0.12200  0.82300  1.0000
  Yb  Yb19      1.0  0.67800  0.37800  0.82300  1.0000
  Yb  Yb20      1.0  0.64900  0.75000  0.99100  1.0000
