data_image0
_chemical_formula_structural       B4Fe4Ni8O20
_chemical_formula_sum              "B4 Fe4 Ni8 O20"
_cell_length_a       9.19483
_cell_length_b       12.2173
_cell_length_c       2.98357
_cell_angle_alpha    90
_cell_angle_beta     90
_cell_angle_gamma    90.0003

_space_group_name_H-M_alt    "P 1"
_space_group_IT_number       1

loop_
  _space_group_symop_operation_xyz
  'x, y, z'

loop_
  _atom_site_type_symbol
  _atom_site_label
  _atom_site_symmetry_multiplicity
  _atom_site_fract_x
  _atom_site_fract_y
  _atom_site_fract_z
  _atom_site_occupancy
  B   B1        1.0  0.27400  0.14000  0.00000  1.0000
  B   B2        1.0  0.77400  0.36000  0.00000  1.0000
  B   B3        1.0  0.22600  0.64000  0.00000  1.0000
  B   B4        1.0  0.72600  0.86000  0.00000  1.0000
  Fe  Fe1       1.0  0.73900  0.11500  0.00000  1.0000
  Fe  Fe2       1.0  0.23900  0.38500  0.00000  1.0000
  Fe  Fe3       1.0  0.76100  0.61500  0.00000  1.0000
  Fe  Fe4       1.0  0.26100  0.88500  0.00000  1.0000
  Ni  Ni1       1.0  0.00000  0.00000  0.00000  1.0000
  Ni  Ni2       1.0  0.50000  0.50000  0.00000  1.0000
  Ni  Ni3       1.0  0.50000  0.00000  0.50000  1.0000
  Ni  Ni4       1.0  0.00031  0.21700  0.50000  1.0000
  Ni  Ni5       1.0  0.50000  0.28300  0.50000  1.0000
  Ni  Ni6       1.0  0.00000  0.50000  0.50000  1.0000
  Ni  Ni7       1.0  0.50000  0.71700  0.50000  1.0000
  Ni  Ni8       1.0  0.00000  0.78300  0.50000  1.0000
  O   O1        1.0  0.35100  0.04180  0.00000  1.0000
  O   O2        1.0  0.12400  0.14100  0.00000  1.0000
  O   O3        1.0  0.35000  0.23800  0.00000  1.0000
  O   O4        1.0  0.85000  0.26200  0.00000  1.0000
  O   O5        1.0  0.62400  0.35900  0.00000  1.0000
  O   O6        1.0  0.85100  0.45800  0.00000  1.0000
  O   O7        1.0  0.14900  0.54200  0.00000  1.0000
  O   O8        1.0  0.37600  0.64100  0.00000  1.0000
  O   O9        1.0  0.15000  0.73800  0.00000  1.0000
  O   O10       1.0  0.65000  0.76200  0.00000  1.0000
  O   O11       1.0  0.87600  0.85900  0.00000  1.0000
  O   O12       1.0  0.64900  0.95800  0.00000  1.0000
  O   O13       1.0  0.88300  0.07650  0.50000  1.0000
  O   O14       1.0  0.60600  0.14400  0.50000  1.0000
  O   O15       1.0  0.10600  0.35600  0.50000  1.0000
  O   O16       1.0  0.38300  0.42300  0.50000  1.0000
  O   O17       1.0  0.61700  0.57700  0.50000  1.0000
  O   O18       1.0  0.89400  0.64400  0.50000  1.0000
  O   O19       1.0  0.39400  0.85600  0.50000  1.0000
  O   O20       1.0  0.11700  0.92300  0.50000  1.0000
