data_image0
_chemical_formula_structural       Li2MnO6Ru
_chemical_formula_sum              "Li2 Mn1 O6 Ru1"
_cell_length_a       5.04413
_cell_length_b       5.04413
_cell_length_c       4.90253
_cell_angle_alpha    98.144
_cell_angle_beta     98.144
_cell_angle_gamma    121.957

_space_group_name_H-M_alt    "P 1"
_space_group_IT_number       1

loop_
  _space_group_symop_operation_xyz
  'x, y, z'

loop_
  _atom_site_type_symbol
  _atom_site_label
  _atom_site_symmetry_multiplicity
  _atom_site_fract_x
  _atom_site_fract_y
  _atom_site_fract_z
  _atom_site_occupancy
  Li  Li1       1.0  0.64500  0.35500  0.50000  1.0000
  Li  Li2       1.0  0.35000  0.65000  0.50000  1.0000
  Mn  Mn1       1.0  0.16400  0.83600  0.00000  1.0000
  O   O1        1.0  0.21800  0.21400  0.22700  1.0000
  O   O2        1.0  0.55900  0.94300  0.23300  1.0000
  O   O3        1.0  0.94300  0.56500  0.23400  1.0000
  O   O4        1.0  0.43500  0.05650  0.76600  1.0000
  O   O5        1.0  0.05750  0.44100  0.76700  1.0000
  O   O6        1.0  0.78600  0.78200  0.77300  1.0000
  Ru  Ru1       1.0  0.84000  0.16000  0.00000  1.0000
