data_image0
_chemical_formula_structural       Dy2K2O24P8
_chemical_formula_sum              "Dy2 K2 O24 P8"
_cell_length_a       7.19395
_cell_length_b       7.19395
_cell_length_c       10.3763
_cell_angle_alpha    101.213
_cell_angle_beta     101.213
_cell_angle_gamma    115.042

_space_group_name_H-M_alt    "P 1"
_space_group_IT_number       1

loop_
  _space_group_symop_operation_xyz
  'x, y, z'

loop_
  _atom_site_type_symbol
  _atom_site_label
  _atom_site_symmetry_multiplicity
  _atom_site_fract_x
  _atom_site_fract_y
  _atom_site_fract_z
  _atom_site_occupancy
  Dy  Dy1       1.0  0.88100  0.11900  0.25000  1.0000
  Dy  Dy2       1.0  0.11900  0.88100  0.75000  1.0000
  K   K1        1.0  0.18200  0.81800  0.25000  1.0000
  K   K2        1.0  0.81800  0.18200  0.75000  1.0000
  O   O1        1.0  0.27500  0.53600  0.07590  1.0000
  O   O2        1.0  0.86700  0.84400  0.07930  1.0000
  O   O3        1.0  0.51200  0.36400  0.09140  1.0000
  O   O4        1.0  0.82900  0.30300  0.09890  1.0000
  O   O5        1.0  0.51100  0.92300  0.11600  1.0000
  O   O6        1.0  0.20100  0.24600  0.18600  1.0000
  O   O7        1.0  0.75400  0.79900  0.31400  1.0000
  O   O8        1.0  0.07740  0.48900  0.38400  1.0000
  O   O9        1.0  0.69700  0.17100  0.40100  1.0000
  O   O10       1.0  0.63600  0.48800  0.40900  1.0000
  O   O11       1.0  0.15600  0.13300  0.42100  1.0000
  O   O12       1.0  0.46400  0.72500  0.42400  1.0000
  O   O13       1.0  0.53600  0.27500  0.57600  1.0000
  O   O14       1.0  0.84400  0.86700  0.57900  1.0000
  O   O15       1.0  0.36400  0.51200  0.59100  1.0000
  O   O16       1.0  0.30300  0.82900  0.59900  1.0000
  O   O17       1.0  0.92300  0.51100  0.61600  1.0000
  O   O18       1.0  0.24600  0.20100  0.68600  1.0000
  O   O19       1.0  0.79900  0.75400  0.81400  1.0000
  O   O20       1.0  0.48900  0.07740  0.88400  1.0000
  O   O21       1.0  0.17100  0.69700  0.90100  1.0000
  O   O22       1.0  0.48800  0.63600  0.90900  1.0000
  O   O23       1.0  0.13300  0.15600  0.92100  1.0000
  O   O24       1.0  0.72500  0.46400  0.92400  1.0000
  P   P1        1.0  0.63400  0.28400  0.00052  1.0000
  P   P2        1.0  0.26100  0.30500  0.06520  1.0000
  P   P3        1.0  0.69500  0.73900  0.43500  1.0000
  P   P4        1.0  0.71600  0.36600  0.49900  1.0000
  P   P5        1.0  0.28400  0.63400  0.50100  1.0000
  P   P6        1.0  0.30500  0.26100  0.56500  1.0000
  P   P7        1.0  0.73900  0.69500  0.93500  1.0000
  P   P8        1.0  0.36600  0.71600  0.99900  1.0000
