data_image0
_chemical_formula_structural       Er2K2O24P8
_chemical_formula_sum              "Er2 K2 O24 P8"
_cell_length_a       7.15351
_cell_length_b       7.81405
_cell_length_c       8.17924
_cell_angle_alpha    90
_cell_angle_beta     90
_cell_angle_gamma    91.9548

_space_group_name_H-M_alt    "P 1"
_space_group_IT_number       1

loop_
  _space_group_symop_operation_xyz
  'x, y, z'

loop_
  _atom_site_type_symbol
  _atom_site_label
  _atom_site_symmetry_multiplicity
  _atom_site_fract_x
  _atom_site_fract_y
  _atom_site_fract_z
  _atom_site_occupancy
  Er  Er1       1.0  0.23600  0.24400  0.00299  1.0000
  Er  Er2       1.0  0.76400  0.75600  0.50300  1.0000
  K   K1        1.0  0.27300  0.72100  0.30400  1.0000
  K   K2        1.0  0.72700  0.27900  0.80400  1.0000
  O   O1        1.0  0.68500  0.88700  0.04060  1.0000
  O   O2        1.0  0.97400  0.08170  0.05820  1.0000
  O   O3        1.0  0.52600  0.35200  0.08950  1.0000
  O   O4        1.0  0.31800  0.07080  0.23000  1.0000
  O   O5        1.0  0.83100  0.34500  0.23100  1.0000
  O   O6        1.0  0.17800  0.38700  0.25200  1.0000
  O   O7        1.0  0.91700  0.82600  0.25500  1.0000
  O   O8        1.0  0.61300  0.58300  0.30300  1.0000
  O   O9        1.0  0.54500  0.27800  0.39200  1.0000
  O   O10       1.0  0.57600  0.95600  0.40500  1.0000
  O   O11       1.0  0.96800  0.53700  0.45500  1.0000
  O   O12       1.0  0.98700  0.21400  0.46200  1.0000
  O   O13       1.0  0.31500  0.11300  0.54100  1.0000
  O   O14       1.0  0.02590  0.91800  0.55800  1.0000
  O   O15       1.0  0.47400  0.64800  0.59000  1.0000
  O   O16       1.0  0.68200  0.92900  0.73000  1.0000
  O   O17       1.0  0.16900  0.65500  0.73100  1.0000
  O   O18       1.0  0.82200  0.61300  0.75200  1.0000
  O   O19       1.0  0.08340  0.17400  0.75500  1.0000
  O   O20       1.0  0.38700  0.41700  0.80300  1.0000
  O   O21       1.0  0.45500  0.72200  0.89200  1.0000
  O   O22       1.0  0.42400  0.04360  0.90500  1.0000
  O   O23       1.0  0.03230  0.46300  0.95500  1.0000
  O   O24       1.0  0.01320  0.78600  0.96200  1.0000
  P   P1        1.0  0.90100  0.90300  0.08880  1.0000
  P   P2        1.0  0.61900  0.40200  0.24600  1.0000
  P   P3        1.0  0.00232  0.38300  0.35200  1.0000
  P   P4        1.0  0.43900  0.09380  0.37800  1.0000
  P   P5        1.0  0.09860  0.09700  0.58900  1.0000
  P   P6        1.0  0.38100  0.59800  0.74600  1.0000
  P   P7        1.0  0.99800  0.61700  0.85200  1.0000
  P   P8        1.0  0.56100  0.90600  0.87800  1.0000
