data_image0
_chemical_formula_structural       AsLiMnO6
_chemical_formula_sum              "As1 Li1 Mn1 O6"
_cell_length_a       4.87718
_cell_length_b       4.87711
_cell_length_c       5.11205
_cell_angle_alpha    103.015
_cell_angle_beta     103.014
_cell_angle_gamma    119.6

_space_group_name_H-M_alt    "P 1"
_space_group_IT_number       1

loop_
  _space_group_symop_operation_xyz
  'x, y, z'

loop_
  _atom_site_type_symbol
  _atom_site_label
  _atom_site_symmetry_multiplicity
  _atom_site_fract_x
  _atom_site_fract_y
  _atom_site_fract_z
  _atom_site_occupancy
  As  As1       1.0  0.16700  0.83300  0.00000  1.0000
  Li  Li1       1.0  0.99600  0.00408  0.50000  1.0000
  Mn  Mn1       1.0  0.83500  0.16500  0.00000  1.0000
  O   O1        1.0  0.59500  0.95100  0.21600  1.0000
  O   O2        1.0  0.96300  0.61100  0.22000  1.0000
  O   O3        1.0  0.23000  0.22100  0.23700  1.0000
  O   O4        1.0  0.77900  0.77000  0.76300  1.0000
  O   O5        1.0  0.38900  0.03720  0.78000  1.0000
  O   O6        1.0  0.04940  0.40500  0.78400  1.0000
