data_image0
_chemical_formula_structural       Al4Ba4F24Li4
_chemical_formula_sum              "Al4 Ba4 F24 Li4"
_cell_length_a       5.32175
_cell_length_b       9.54713
_cell_length_c       8.21935
_cell_angle_alpha    90.0012
_cell_angle_beta     90.7031
_cell_angle_gamma    89.9947

_space_group_name_H-M_alt    "P 1"
_space_group_IT_number       1

loop_
  _space_group_symop_operation_xyz
  'x, y, z'

loop_
  _atom_site_type_symbol
  _atom_site_label
  _atom_site_symmetry_multiplicity
  _atom_site_fract_x
  _atom_site_fract_y
  _atom_site_fract_z
  _atom_site_occupancy
  Al  Al1       1.0  0.77000  0.08180  0.23300  1.0000
  Al  Al2       1.0  0.23000  0.58200  0.26700  1.0000
  Al  Al3       1.0  0.77000  0.41800  0.73300  1.0000
  Al  Al4       1.0  0.23000  0.91900  0.76700  1.0000
  Ba  Ba1       1.0  0.69100  0.69800  0.00187  1.0000
  Ba  Ba2       1.0  0.30900  0.19800  0.49800  1.0000
  Ba  Ba3       1.0  0.69100  0.80200  0.50200  1.0000
  Ba  Ba4       1.0  0.30900  0.30300  0.99800  1.0000
  F   F1        1.0  0.67200  0.09200  0.02110  1.0000
  F   F2        1.0  0.15500  0.59400  0.04830  1.0000
  F   F3        1.0  0.09230  0.13200  0.18800  1.0000
  F   F4        1.0  0.52700  0.50400  0.19700  1.0000
  F   F5        1.0  0.88200  0.90000  0.20900  1.0000
  F   F6        1.0  0.36800  0.75600  0.24700  1.0000
  F   F7        1.0  0.63400  0.25500  0.25400  1.0000
  F   F8        1.0  0.12000  0.40100  0.29100  1.0000
  F   F9        1.0  0.47200  0.00258  0.30400  1.0000
  F   F10       1.0  0.90700  0.63300  0.31300  1.0000
  F   F11       1.0  0.84300  0.09490  0.45100  1.0000
  F   F12       1.0  0.32800  0.59300  0.47900  1.0000
  F   F13       1.0  0.67100  0.40600  0.52100  1.0000
  F   F14       1.0  0.15300  0.90700  0.54800  1.0000
  F   F15       1.0  0.09220  0.36500  0.68700  1.0000
  F   F16       1.0  0.52700  0.99700  0.69700  1.0000
  F   F17       1.0  0.88200  0.60200  0.70800  1.0000
  F   F18       1.0  0.36700  0.74400  0.74700  1.0000
  F   F19       1.0  0.63400  0.24300  0.75300  1.0000
  F   F20       1.0  0.11900  0.10200  0.79100  1.0000
  F   F21       1.0  0.47200  0.49500  0.80400  1.0000
  F   F22       1.0  0.90700  0.86700  0.81200  1.0000
  F   F23       1.0  0.84900  0.40700  0.95100  1.0000
  F   F24       1.0  0.32700  0.90700  0.97900  1.0000
  Li  Li1       1.0  0.22700  0.92500  0.18100  1.0000
  Li  Li2       1.0  0.77400  0.42500  0.31900  1.0000
  Li  Li3       1.0  0.22700  0.57500  0.68100  1.0000
  Li  Li4       1.0  0.77300  0.07530  0.81900  1.0000
