data_image0
_chemical_formula_structural       Cl12Pd12S12
_chemical_formula_sum              "Cl12 Pd12 S12"
_cell_length_a       7.95959
_cell_length_b       12.252
_cell_length_c       9.38036
_cell_angle_alpha    90
_cell_angle_beta     110.731
_cell_angle_gamma    90

_space_group_name_H-M_alt    "P 1"
_space_group_IT_number       1

loop_
  _space_group_symop_operation_xyz
  'x, y, z'

loop_
  _atom_site_type_symbol
  _atom_site_label
  _atom_site_symmetry_multiplicity
  _atom_site_fract_x
  _atom_site_fract_y
  _atom_site_fract_z
  _atom_site_occupancy
  Cl  Cl1       1.0  0.77800  0.60600  0.02040  1.0000
  Cl  Cl2       1.0  0.77800  0.89400  0.02040  1.0000
  Cl  Cl3       1.0  0.92000  0.25000  0.11500  1.0000
  Cl  Cl4       1.0  0.63600  0.10500  0.31700  1.0000
  Cl  Cl5       1.0  0.63600  0.39500  0.31700  1.0000
  Cl  Cl6       1.0  0.34000  0.25000  0.45100  1.0000
  Cl  Cl7       1.0  0.66000  0.75000  0.54900  1.0000
  Cl  Cl8       1.0  0.36400  0.60500  0.68300  1.0000
  Cl  Cl9       1.0  0.36400  0.89500  0.68300  1.0000
  Cl  Cl10      1.0  0.07980  0.75000  0.88500  1.0000
  Cl  Cl11      1.0  0.22200  0.10600  0.98000  1.0000
  Cl  Cl12      1.0  0.22200  0.39400  0.98000  1.0000
  Pd  Pd1       1.0  0.10100  0.63000  0.09480  1.0000
  Pd  Pd2       1.0  0.10100  0.87000  0.09480  1.0000
  Pd  Pd3       1.0  0.85200  0.75000  0.20800  1.0000
  Pd  Pd4       1.0  0.40700  0.62900  0.44300  1.0000
  Pd  Pd5       1.0  0.40700  0.87100  0.44300  1.0000
  Pd  Pd6       1.0  0.84000  0.25000  0.44400  1.0000
  Pd  Pd7       1.0  0.16000  0.75000  0.55600  1.0000
  Pd  Pd8       1.0  0.59300  0.12900  0.55700  1.0000
  Pd  Pd9       1.0  0.59300  0.37100  0.55700  1.0000
  Pd  Pd10      1.0  0.14800  0.25000  0.79200  1.0000
  Pd  Pd11      1.0  0.89900  0.13000  0.90500  1.0000
  Pd  Pd12      1.0  0.89900  0.37000  0.90500  1.0000
  S   S1        1.0  0.40600  0.66300  0.20000  1.0000
  S   S2        1.0  0.40600  0.83700  0.20000  1.0000
  S   S3        1.0  0.14300  0.53600  0.31800  1.0000
  S   S4        1.0  0.14300  0.96400  0.31800  1.0000
  S   S5        1.0  0.96400  0.62400  0.40100  1.0000
  S   S6        1.0  0.96400  0.87600  0.40100  1.0000
  S   S7        1.0  0.03580  0.12400  0.59900  1.0000
  S   S8        1.0  0.03580  0.37600  0.59900  1.0000
  S   S9        1.0  0.85700  0.03610  0.68200  1.0000
  S   S10       1.0  0.85700  0.46400  0.68200  1.0000
  S   S11       1.0  0.59400  0.16300  0.80000  1.0000
  S   S12       1.0  0.59400  0.33700  0.80000  1.0000
