data_image0
_chemical_formula_structural       Li2MnO6Pa
_chemical_formula_sum              "Li2 Mn1 O6 Pa1"
_cell_length_a       5.47433
_cell_length_b       5.47433
_cell_length_c       4.98362
_cell_angle_alpha    97.4471
_cell_angle_beta     97.4471
_cell_angle_gamma    123.004

_space_group_name_H-M_alt    "P 1"
_space_group_IT_number       1

loop_
  _space_group_symop_operation_xyz
  'x, y, z'

loop_
  _atom_site_type_symbol
  _atom_site_label
  _atom_site_symmetry_multiplicity
  _atom_site_fract_x
  _atom_site_fract_y
  _atom_site_fract_z
  _atom_site_occupancy
  Li  Li1       1.0  0.37200  0.62900  0.50000  1.0000
  Li  Li2       1.0  0.68000  0.32000  0.50000  1.0000
  Mn  Mn1       1.0  0.83500  0.16500  0.00000  1.0000
  O   O1        1.0  0.19000  0.23100  0.22500  1.0000
  O   O2        1.0  0.57700  0.95100  0.23300  1.0000
  O   O3        1.0  0.92800  0.52200  0.24300  1.0000
  O   O4        1.0  0.47800  0.07240  0.75700  1.0000
  O   O5        1.0  0.04890  0.42300  0.76700  1.0000
  O   O6        1.0  0.76900  0.81000  0.77500  1.0000
  Pa  Pa1       1.0  0.15400  0.84600  0.00000  1.0000
