data_image0
_chemical_formula_structural       Ba6Cl8Li4O14V4
_chemical_formula_sum              "Ba6 Cl8 Li4 O14 V4"
_cell_length_a       5.76562
_cell_length_b       8.58688
_cell_length_c       14.407
_cell_angle_alpha    90.5526
_cell_angle_beta     90
_cell_angle_gamma    109.616

_space_group_name_H-M_alt    "P 1"
_space_group_IT_number       1

loop_
  _space_group_symop_operation_xyz
  'x, y, z'

loop_
  _atom_site_type_symbol
  _atom_site_label
  _atom_site_symmetry_multiplicity
  _atom_site_fract_x
  _atom_site_fract_y
  _atom_site_fract_z
  _atom_site_occupancy
  Ba  Ba1       1.0  0.50000  0.00000  0.00000  1.0000
  Ba  Ba2       1.0  0.86300  0.72700  0.27400  1.0000
  Ba  Ba3       1.0  0.13500  0.26900  0.28000  1.0000
  Ba  Ba4       1.0  0.50000  0.00000  0.50000  1.0000
  Ba  Ba5       1.0  0.86500  0.73100  0.72000  1.0000
  Ba  Ba6       1.0  0.13700  0.27300  0.72600  1.0000
  Cl  Cl1       1.0  0.00153  0.00306  0.11500  1.0000
  Cl  Cl2       1.0  0.31100  0.62300  0.37900  1.0000
  Cl  Cl3       1.0  0.68500  0.37000  0.38000  1.0000
  Cl  Cl4       1.0  0.88400  0.76700  0.49900  1.0000
  Cl  Cl5       1.0  0.11600  0.23300  0.50100  1.0000
  Cl  Cl6       1.0  0.31500  0.63000  0.62000  1.0000
  Cl  Cl7       1.0  0.68900  0.37700  0.62100  1.0000
  Cl  Cl8       1.0  0.99800  0.99700  0.88500  1.0000
  Li  Li1       1.0  0.30200  0.60400  0.11700  1.0000
  Li  Li2       1.0  0.00000  0.50000  0.50000  1.0000
  Li  Li3       1.0  0.50000  0.50000  0.50000  1.0000
  Li  Li4       1.0  0.69800  0.39600  0.88300  1.0000
  O   O1        1.0  0.67000  0.34000  0.01110  1.0000
  O   O2        1.0  0.50400  0.48500  0.16600  1.0000
  O   O3        1.0  0.98000  0.48500  0.16600  1.0000
  O   O4        1.0  0.58700  0.17400  0.17800  1.0000
  O   O5        1.0  0.41100  0.82100  0.18200  1.0000
  O   O6        1.0  0.26200  0.99400  0.32400  1.0000
  O   O7        1.0  0.73300  0.99400  0.32400  1.0000
  O   O8        1.0  0.26700  0.00563  0.67600  1.0000
  O   O9        1.0  0.73800  0.00563  0.67600  1.0000
  O   O10       1.0  0.58900  0.17900  0.81800  1.0000
  O   O11       1.0  0.41300  0.82600  0.82200  1.0000
  O   O12       1.0  0.01980  0.51500  0.83400  1.0000
  O   O13       1.0  0.49600  0.51500  0.83400  1.0000
  O   O14       1.0  0.33000  0.66000  0.98900  1.0000
  V   V1        1.0  0.68900  0.37800  0.12700  1.0000
  V   V2        1.0  0.49600  0.99200  0.25200  1.0000
  V   V3        1.0  0.50400  0.00813  0.74800  1.0000
  V   V4        1.0  0.31100  0.62200  0.87300  1.0000
