data_image0
_chemical_formula_structural       B8Ce8Co20
_chemical_formula_sum              "B8 Ce8 Co20"
_cell_length_a       5.23672
_cell_length_b       5.23617
_cell_length_c       20.3115
_cell_angle_alpha    90
_cell_angle_beta     90
_cell_angle_gamma    120.003

_space_group_name_H-M_alt    "P 1"
_space_group_IT_number       1

loop_
  _space_group_symop_operation_xyz
  'x, y, z'

loop_
  _atom_site_type_symbol
  _atom_site_label
  _atom_site_symmetry_multiplicity
  _atom_site_fract_x
  _atom_site_fract_y
  _atom_site_fract_z
  _atom_site_occupancy
  B   B1        1.0  0.66700  0.33300  0.17500  1.0000
  B   B2        1.0  0.00000  0.00000  0.17900  1.0000
  B   B3        1.0  0.00000  0.00000  0.32100  1.0000
  B   B4        1.0  0.66700  0.33300  0.32500  1.0000
  B   B5        1.0  0.33300  0.66700  0.67500  1.0000
  B   B6        1.0  0.00000  0.00000  0.67900  1.0000
  B   B7        1.0  0.00000  0.00000  0.82100  1.0000
  B   B8        1.0  0.33300  0.66700  0.82500  1.0000
  Ce  Ce1       1.0  0.33300  0.66700  0.02100  1.0000
  Ce  Ce2       1.0  0.33300  0.66700  0.17500  1.0000
  Ce  Ce3       1.0  0.33300  0.66700  0.32500  1.0000
  Ce  Ce4       1.0  0.33300  0.66700  0.47900  1.0000
  Ce  Ce5       1.0  0.66700  0.33300  0.52100  1.0000
  Ce  Ce6       1.0  0.66700  0.33300  0.67500  1.0000
  Ce  Ce7       1.0  0.66700  0.33300  0.82500  1.0000
  Ce  Ce8       1.0  0.66700  0.33300  0.97900  1.0000
  Co  Co1       1.0  0.00000  0.00000  0.00000  1.0000
  Co  Co2       1.0  0.84000  0.67900  0.10900  1.0000
  Co  Co3       1.0  0.32100  0.16000  0.10900  1.0000
  Co  Co4       1.0  0.84000  0.16000  0.10900  1.0000
  Co  Co5       1.0  0.33600  0.16800  0.25000  1.0000
  Co  Co6       1.0  0.83200  0.16800  0.25000  1.0000
  Co  Co7       1.0  0.83200  0.66400  0.25000  1.0000
  Co  Co8       1.0  0.32100  0.16000  0.39100  1.0000
  Co  Co9       1.0  0.84000  0.16000  0.39100  1.0000
  Co  Co10      1.0  0.84000  0.67900  0.39100  1.0000
  Co  Co11      1.0  0.00000  0.00000  0.50000  1.0000
  Co  Co12      1.0  0.16000  0.32100  0.60900  1.0000
  Co  Co13      1.0  0.16000  0.84000  0.60900  1.0000
  Co  Co14      1.0  0.67900  0.84000  0.60900  1.0000
  Co  Co15      1.0  0.16800  0.33600  0.75000  1.0000
  Co  Co16      1.0  0.16800  0.83200  0.75000  1.0000
  Co  Co17      1.0  0.66400  0.83200  0.75000  1.0000
  Co  Co18      1.0  0.16000  0.84000  0.89100  1.0000
  Co  Co19      1.0  0.67900  0.84000  0.89100  1.0000
  Co  Co20      1.0  0.16000  0.32100  0.89100  1.0000
