data_image0
_chemical_formula_structural       Li2O24P8Y2
_chemical_formula_sum              "Li2 O24 P8 Y2"
_cell_length_a       6.96557
_cell_length_b       8.78017
_cell_length_c       8.80189
_cell_angle_alpha    96.1811
_cell_angle_beta     113.309
_cell_angle_gamma    113.37

_space_group_name_H-M_alt    "P 1"
_space_group_IT_number       1

loop_
  _space_group_symop_operation_xyz
  'x, y, z'

loop_
  _atom_site_type_symbol
  _atom_site_label
  _atom_site_symmetry_multiplicity
  _atom_site_fract_x
  _atom_site_fract_y
  _atom_site_fract_z
  _atom_site_occupancy
  Li  Li1       1.0  0.04420  0.25000  0.25000  1.0000
  Li  Li2       1.0  0.95600  0.75000  0.75000  1.0000
  O   O1        1.0  0.70800  0.81500  0.04560  1.0000
  O   O2        1.0  0.04320  0.76100  0.07670  1.0000
  O   O3        1.0  0.73700  0.22200  0.08590  1.0000
  O   O4        1.0  0.32100  0.64100  0.15200  1.0000
  O   O5        1.0  0.13700  0.07510  0.20100  1.0000
  O   O6        1.0  0.49100  0.97300  0.23500  1.0000
  O   O7        1.0  0.78200  0.52700  0.26500  1.0000
  O   O8        1.0  0.36100  0.42500  0.29900  1.0000
  O   O9        1.0  0.02830  0.85900  0.34800  1.0000
  O   O10       1.0  0.92900  0.27800  0.41400  1.0000
  O   O11       1.0  0.70500  0.73900  0.42300  1.0000
  O   O12       1.0  0.34700  0.68500  0.45400  1.0000
  O   O13       1.0  0.65300  0.31500  0.54600  1.0000
  O   O14       1.0  0.29500  0.26100  0.57700  1.0000
  O   O15       1.0  0.07080  0.72200  0.58600  1.0000
  O   O16       1.0  0.97200  0.14100  0.65200  1.0000
  O   O17       1.0  0.63900  0.57500  0.70100  1.0000
  O   O18       1.0  0.21800  0.47300  0.73500  1.0000
  O   O19       1.0  0.50900  0.02700  0.76500  1.0000
  O   O20       1.0  0.86300  0.92500  0.79900  1.0000
  O   O21       1.0  0.67900  0.35900  0.84800  1.0000
  O   O22       1.0  0.26300  0.77800  0.91400  1.0000
  O   O23       1.0  0.95700  0.23900  0.92300  1.0000
  O   O24       1.0  0.29200  0.18500  0.95400  1.0000
  P   P1        1.0  0.30100  0.80300  0.09670  1.0000
  P   P2        1.0  0.96900  0.88500  0.16000  1.0000
  P   P3        1.0  0.42400  0.61500  0.34000  1.0000
  P   P4        1.0  0.90200  0.69700  0.40300  1.0000
  P   P5        1.0  0.09830  0.30300  0.59700  1.0000
  P   P6        1.0  0.57600  0.38500  0.66000  1.0000
  P   P7        1.0  0.03070  0.11500  0.84000  1.0000
  P   P8        1.0  0.69900  0.19700  0.90300  1.0000
  Y   Y1        1.0  0.54400  0.25000  0.25000  1.0000
  Y   Y2        1.0  0.45500  0.75000  0.75000  1.0000
