data_image0
_chemical_formula_structural       F24Hf6O2Rb4
_chemical_formula_sum              "F24 Hf6 O2 Rb4"
_cell_length_a       7.57959
_cell_length_b       7.57959
_cell_length_c       10.4827
_cell_angle_alpha    68.8052
_cell_angle_beta     111.196
_cell_angle_gamma    119.998

_space_group_name_H-M_alt    "P 1"
_space_group_IT_number       1

loop_
  _space_group_symop_operation_xyz
  'x, y, z'

loop_
  _atom_site_type_symbol
  _atom_site_label
  _atom_site_symmetry_multiplicity
  _atom_site_fract_x
  _atom_site_fract_y
  _atom_site_fract_z
  _atom_site_occupancy
  F   F1        1.0  0.34900  0.00000  0.00000  1.0000
  F   F2        1.0  0.65100  0.00000  0.00000  1.0000
  F   F3        1.0  0.00000  0.34900  0.00000  1.0000
  F   F4        1.0  0.34900  0.34900  0.00000  1.0000
  F   F5        1.0  0.65100  0.65100  0.00000  1.0000
  F   F6        1.0  0.00000  0.65100  0.00000  1.0000
  F   F7        1.0  0.63400  0.70500  0.22500  1.0000
  F   F8        1.0  0.29500  0.36600  0.22500  1.0000
  F   F9        1.0  0.29500  0.70500  0.22500  1.0000
  F   F10       1.0  0.91400  0.08560  0.22900  1.0000
  F   F11       1.0  0.40000  0.08570  0.22900  1.0000
  F   F12       1.0  0.91400  0.60000  0.22900  1.0000
  F   F13       1.0  0.65500  0.34500  0.39300  1.0000
  F   F14       1.0  0.08240  0.34500  0.39300  1.0000
  F   F15       1.0  0.65500  0.91800  0.39300  1.0000
  F   F16       1.0  0.91800  0.65500  0.60700  1.0000
  F   F17       1.0  0.34500  0.08240  0.60700  1.0000
  F   F18       1.0  0.34500  0.65500  0.60700  1.0000
  F   F19       1.0  0.08560  0.40000  0.77100  1.0000
  F   F20       1.0  0.60000  0.91400  0.77100  1.0000
  F   F21       1.0  0.08560  0.91400  0.77100  1.0000
  F   F22       1.0  0.70500  0.29500  0.77500  1.0000
  F   F23       1.0  0.70500  0.63400  0.77500  1.0000
  F   F24       1.0  0.36600  0.29500  0.77500  1.0000
  Hf  Hf1       1.0  0.57800  0.42200  0.18600  1.0000
  Hf  Hf2       1.0  0.57800  0.96900  0.18600  1.0000
  Hf  Hf3       1.0  0.03080  0.42200  0.18600  1.0000
  Hf  Hf4       1.0  0.96900  0.57800  0.81400  1.0000
  Hf  Hf5       1.0  0.42200  0.03080  0.81400  1.0000
  Hf  Hf6       1.0  0.42200  0.57800  0.81400  1.0000
  O   O1        1.0  0.71200  0.28800  0.13700  1.0000
  O   O2        1.0  0.28800  0.71200  0.86300  1.0000
  Rb  Rb1       1.0  0.00000  0.00000  0.00000  1.0000
  Rb  Rb2       1.0  0.13600  0.86400  0.40800  1.0000
  Rb  Rb3       1.0  0.50000  0.50000  0.50000  1.0000
  Rb  Rb4       1.0  0.86400  0.13600  0.59200  1.0000
