data_image0
_chemical_formula_structural       Ag20Cs4Se12
_chemical_formula_sum              "Ag20 Cs4 Se12"
_cell_length_a       14.1311
_cell_length_b       14.1311
_cell_length_c       4.41798
_cell_angle_alpha    90
_cell_angle_beta     90
_cell_angle_gamma    90

_space_group_name_H-M_alt    "P 1"
_space_group_IT_number       1

loop_
  _space_group_symop_operation_xyz
  'x, y, z'

loop_
  _atom_site_type_symbol
  _atom_site_label
  _atom_site_symmetry_multiplicity
  _atom_site_fract_x
  _atom_site_fract_y
  _atom_site_fract_z
  _atom_site_occupancy
  Ag  Ag1       1.0  0.28200  0.07990  0.00000  1.0000
  Ag  Ag2       1.0  0.48500  0.10900  0.00000  1.0000
  Ag  Ag3       1.0  0.07990  0.28200  0.00000  1.0000
  Ag  Ag4       1.0  0.67400  0.32600  0.00000  1.0000
  Ag  Ag5       1.0  0.10900  0.48500  0.00000  1.0000
  Ag  Ag6       1.0  0.89100  0.51500  0.00000  1.0000
  Ag  Ag7       1.0  0.32600  0.67400  0.00000  1.0000
  Ag  Ag8       1.0  0.92000  0.71800  0.00000  1.0000
  Ag  Ag9       1.0  0.51500  0.89100  0.00000  1.0000
  Ag  Ag10      1.0  0.71800  0.92000  0.00000  1.0000
  Ag  Ag11      1.0  0.60900  0.01520  0.50000  1.0000
  Ag  Ag12      1.0  0.17400  0.17400  0.50000  1.0000
  Ag  Ag13      1.0  0.58000  0.21800  0.50000  1.0000
  Ag  Ag14      1.0  0.98500  0.39100  0.50000  1.0000
  Ag  Ag15      1.0  0.78200  0.42000  0.50000  1.0000
  Ag  Ag16      1.0  0.21800  0.58000  0.50000  1.0000
  Ag  Ag17      1.0  0.01520  0.60900  0.50000  1.0000
  Ag  Ag18      1.0  0.42000  0.78200  0.50000  1.0000
  Ag  Ag19      1.0  0.82600  0.82600  0.50000  1.0000
  Ag  Ag20      1.0  0.39100  0.98500  0.50000  1.0000
  Cs  Cs1       1.0  0.38500  0.38500  0.00000  1.0000
  Cs  Cs2       1.0  0.61500  0.61500  0.00000  1.0000
  Cs  Cs3       1.0  0.88500  0.11500  0.50000  1.0000
  Cs  Cs4       1.0  0.11500  0.88500  0.50000  1.0000
  Se  Se1       1.0  0.09670  0.09670  0.00000  1.0000
  Se  Se2       1.0  0.67300  0.11800  0.00000  1.0000
  Se  Se3       1.0  0.88200  0.32700  0.00000  1.0000
  Se  Se4       1.0  0.11800  0.67300  0.00000  1.0000
  Se  Se5       1.0  0.32700  0.88200  0.00000  1.0000
  Se  Se6       1.0  0.90300  0.90300  0.00000  1.0000
  Se  Se7       1.0  0.38200  0.17300  0.50000  1.0000
  Se  Se8       1.0  0.17300  0.38200  0.50000  1.0000
  Se  Se9       1.0  0.59700  0.40300  0.50000  1.0000
  Se  Se10      1.0  0.40300  0.59700  0.50000  1.0000
  Se  Se11      1.0  0.82700  0.61800  0.50000  1.0000
  Se  Se12      1.0  0.61800  0.82700  0.50000  1.0000
