data_image0
_chemical_formula_structural       Mn4O24P8
_chemical_formula_sum              "Mn4 O24 P8"
_cell_length_a       7.30821
_cell_length_b       7.30821
_cell_length_c       9.8285
_cell_angle_alpha    99.1851
_cell_angle_beta     109.541
_cell_angle_gamma    109.603

_space_group_name_H-M_alt    "P 1"
_space_group_IT_number       1

loop_
  _space_group_symop_operation_xyz
  'x, y, z'

loop_
  _atom_site_type_symbol
  _atom_site_label
  _atom_site_symmetry_multiplicity
  _atom_site_fract_x
  _atom_site_fract_y
  _atom_site_fract_z
  _atom_site_occupancy
  Mn  Mn1       1.0  0.50000  0.00000  0.00000  1.0000
  Mn  Mn2       1.0  0.70100  0.45100  0.25000  1.0000
  Mn  Mn3       1.0  0.50000  0.50000  0.50000  1.0000
  Mn  Mn4       1.0  0.29900  0.54900  0.75000  1.0000
  O   O1        1.0  0.04780  0.27000  0.06090  1.0000
  O   O2        1.0  0.37800  0.20900  0.08310  1.0000
  O   O3        1.0  0.75300  0.58200  0.08520  1.0000
  O   O4        1.0  0.46100  0.84500  0.15400  1.0000
  O   O5        1.0  0.96400  0.96200  0.16000  1.0000
  O   O6        1.0  0.79900  0.21400  0.18300  1.0000
  O   O7        1.0  0.53100  0.61600  0.31700  1.0000
  O   O8        1.0  0.30100  0.80400  0.34000  1.0000
  O   O9        1.0  0.19100  0.30600  0.34600  1.0000
  O   O10       1.0  0.99700  0.66800  0.41500  1.0000
  O   O11       1.0  0.62600  0.29500  0.41700  1.0000
  O   O12       1.0  0.70900  0.98700  0.43900  1.0000
  O   O13       1.0  0.29100  0.01310  0.56100  1.0000
  O   O14       1.0  0.37400  0.70500  0.58300  1.0000
  O   O15       1.0  0.00290  0.33200  0.58500  1.0000
  O   O16       1.0  0.80900  0.69400  0.65400  1.0000
  O   O17       1.0  0.69900  0.19600  0.66000  1.0000
  O   O18       1.0  0.46900  0.38400  0.68300  1.0000
  O   O19       1.0  0.20100  0.78600  0.81700  1.0000
  O   O20       1.0  0.03570  0.03850  0.84000  1.0000
  O   O21       1.0  0.53900  0.15500  0.84600  1.0000
  O   O22       1.0  0.24700  0.41800  0.91500  1.0000
  O   O23       1.0  0.62200  0.79100  0.91700  1.0000
  O   O24       1.0  0.95200  0.73000  0.93900  1.0000
  P   P1        1.0  0.80200  0.75400  0.02210  1.0000
  P   P2        1.0  0.00531  0.19800  0.19800  1.0000
  P   P3        1.0  0.50000  0.80700  0.30200  1.0000
  P   P4        1.0  0.23200  0.78000  0.47800  1.0000
  P   P5        1.0  0.76800  0.22000  0.52200  1.0000
  P   P6        1.0  0.50000  0.19300  0.69800  1.0000
  P   P7        1.0  0.99500  0.80200  0.80200  1.0000
  P   P8        1.0  0.19800  0.24600  0.97800  1.0000
