data_image0
_chemical_formula_structural       Ce2Li2O24P8
_chemical_formula_sum              "Ce2 Li2 O24 P8"
_cell_length_a       7.03448
_cell_length_b       8.91852
_cell_length_c       8.96264
_cell_angle_alpha    95.8385
_cell_angle_beta     113.106
_cell_angle_gamma    113.227

_space_group_name_H-M_alt    "P 1"
_space_group_IT_number       1

loop_
  _space_group_symop_operation_xyz
  'x, y, z'

loop_
  _atom_site_type_symbol
  _atom_site_label
  _atom_site_symmetry_multiplicity
  _atom_site_fract_x
  _atom_site_fract_y
  _atom_site_fract_z
  _atom_site_occupancy
  Ce  Ce1       1.0  0.94900  0.25000  0.25000  1.0000
  Ce  Ce2       1.0  0.05130  0.75000  0.75000  1.0000
  Li  Li1       1.0  0.44900  0.25000  0.25000  1.0000
  Li  Li2       1.0  0.55100  0.75000  0.75000  1.0000
  O   O1        1.0  0.16700  0.82000  0.05670  1.0000
  O   O2        1.0  0.55400  0.23000  0.08380  1.0000
  O   O3        1.0  0.81200  0.76200  0.08950  1.0000
  O   O4        1.0  0.47500  0.63100  0.14600  1.0000
  O   O5        1.0  0.14000  0.07260  0.19800  1.0000
  O   O6        1.0  0.70900  0.95800  0.23100  1.0000
  O   O7        1.0  0.01890  0.54200  0.26900  1.0000
  O   O8        1.0  0.36900  0.42700  0.30200  1.0000
  O   O9        1.0  0.19700  0.86900  0.35400  1.0000
  O   O10       1.0  0.46100  0.73800  0.41100  1.0000
  O   O11       1.0  0.74000  0.27000  0.41600  1.0000
  O   O12       1.0  0.79100  0.68000  0.44300  1.0000
  O   O13       1.0  0.20900  0.32000  0.55700  1.0000
  O   O14       1.0  0.26000  0.73000  0.58400  1.0000
  O   O15       1.0  0.53900  0.26200  0.58900  1.0000
  O   O16       1.0  0.80300  0.13100  0.64600  1.0000
  O   O17       1.0  0.63100  0.57300  0.69800  1.0000
  O   O18       1.0  0.98100  0.45800  0.73100  1.0000
  O   O19       1.0  0.29100  0.04180  0.76900  1.0000
  O   O20       1.0  0.86000  0.92700  0.80200  1.0000
  O   O21       1.0  0.52500  0.36900  0.85400  1.0000
  O   O22       1.0  0.18800  0.23800  0.91100  1.0000
  O   O23       1.0  0.44600  0.77000  0.91600  1.0000
  O   O24       1.0  0.83300  0.18000  0.94300  1.0000
  P   P1        1.0  0.60600  0.79400  0.09730  1.0000
  P   P2        1.0  0.08750  0.88800  0.16600  1.0000
  P   P3        1.0  0.53300  0.61200  0.33400  1.0000
  P   P4        1.0  0.21500  0.70600  0.40300  1.0000
  P   P5        1.0  0.78500  0.29400  0.59700  1.0000
  P   P6        1.0  0.46700  0.38800  0.66600  1.0000
  P   P7        1.0  0.91200  0.11200  0.83400  1.0000
  P   P8        1.0  0.39400  0.20600  0.90300  1.0000
