data_image0
_chemical_formula_structural       Li2MnO6Pd
_chemical_formula_sum              "Li2 Mn1 O6 Pd1"
_cell_length_a       5.04102
_cell_length_b       5.04102
_cell_length_c       4.89314
_cell_angle_alpha    98.2476
_cell_angle_beta     98.2476
_cell_angle_gamma    121.81

_space_group_name_H-M_alt    "P 1"
_space_group_IT_number       1

loop_
  _space_group_symop_operation_xyz
  'x, y, z'

loop_
  _atom_site_type_symbol
  _atom_site_label
  _atom_site_symmetry_multiplicity
  _atom_site_fract_x
  _atom_site_fract_y
  _atom_site_fract_z
  _atom_site_occupancy
  Li  Li1       1.0  0.64900  0.35100  0.50000  1.0000
  Li  Li2       1.0  0.35700  0.64300  0.50000  1.0000
  Mn  Mn1       1.0  0.16200  0.83800  0.00000  1.0000
  O   O1        1.0  0.22600  0.21600  0.23100  1.0000
  O   O2        1.0  0.93800  0.57200  0.23600  1.0000
  O   O3        1.0  0.54800  0.93000  0.23700  1.0000
  O   O4        1.0  0.06960  0.45200  0.76300  1.0000
  O   O5        1.0  0.42800  0.06190  0.76400  1.0000
  O   O6        1.0  0.78400  0.77400  0.76900  1.0000
  Pd  Pd1       1.0  0.83700  0.16300  0.00000  1.0000
