data_image0
_chemical_formula_structural       C4Ca16N16
_chemical_formula_sum              "C4 Ca16 N16"
_cell_length_a       11.417
_cell_length_b       3.53778
_cell_length_c       13.8004
_cell_angle_alpha    90
_cell_angle_beta     90
_cell_angle_gamma    90

_space_group_name_H-M_alt    "P 1"
_space_group_IT_number       1

loop_
  _space_group_symop_operation_xyz
  'x, y, z'

loop_
  _atom_site_type_symbol
  _atom_site_label
  _atom_site_symmetry_multiplicity
  _atom_site_fract_x
  _atom_site_fract_y
  _atom_site_fract_z
  _atom_site_occupancy
  C   C1        1.0  0.36100  0.25000  0.08680  1.0000
  C   C2        1.0  0.86100  0.25000  0.41300  1.0000
  C   C3        1.0  0.13900  0.75000  0.58700  1.0000
  C   C4        1.0  0.63900  0.75000  0.91300  1.0000
  Ca  Ca1       1.0  0.87900  0.25000  0.03980  1.0000
  Ca  Ca2       1.0  0.62300  0.75000  0.11500  1.0000
  Ca  Ca3       1.0  0.11400  0.25000  0.17200  1.0000
  Ca  Ca4       1.0  0.86000  0.75000  0.24000  1.0000
  Ca  Ca5       1.0  0.36000  0.75000  0.26000  1.0000
  Ca  Ca6       1.0  0.61400  0.25000  0.32800  1.0000
  Ca  Ca7       1.0  0.12300  0.75000  0.38500  1.0000
  Ca  Ca8       1.0  0.37900  0.25000  0.46000  1.0000
  Ca  Ca9       1.0  0.62100  0.75000  0.54000  1.0000
  Ca  Ca10      1.0  0.87700  0.25000  0.61500  1.0000
  Ca  Ca11      1.0  0.38600  0.75000  0.67200  1.0000
  Ca  Ca12      1.0  0.64000  0.25000  0.74000  1.0000
  Ca  Ca13      1.0  0.14000  0.25000  0.76000  1.0000
  Ca  Ca14      1.0  0.88600  0.75000  0.82800  1.0000
  Ca  Ca15      1.0  0.37700  0.25000  0.88500  1.0000
  Ca  Ca16      1.0  0.12100  0.75000  0.96000  1.0000
  N   N1        1.0  0.26600  0.25000  0.04200  1.0000
  N   N2        1.0  0.00013  0.75000  0.11700  1.0000
  N   N3        1.0  0.45600  0.25000  0.13100  1.0000
  N   N4        1.0  0.73400  0.25000  0.18400  1.0000
  N   N5        1.0  0.23400  0.25000  0.31600  1.0000
  N   N6        1.0  0.95600  0.25000  0.36900  1.0000
  N   N7        1.0  0.50000  0.75000  0.38300  1.0000
  N   N8        1.0  0.76600  0.25000  0.45800  1.0000
  N   N9        1.0  0.23400  0.75000  0.54200  1.0000
  N   N10       1.0  0.50000  0.25000  0.61700  1.0000
  N   N11       1.0  0.04410  0.75000  0.63100  1.0000
  N   N12       1.0  0.76600  0.75000  0.68400  1.0000
  N   N13       1.0  0.26600  0.75000  0.81600  1.0000
  N   N14       1.0  0.54400  0.75000  0.86900  1.0000
  N   N15       1.0  0.00000  0.25000  0.88300  1.0000
  N   N16       1.0  0.73400  0.75000  0.95800  1.0000
