data_image0
_chemical_formula_structural       As2C2F22N4S6
_chemical_formula_sum              "As2 C2 F22 N4 S6"
_cell_length_a       5.72579
_cell_length_b       6.64296
_cell_length_c       12.0275
_cell_angle_alpha    97.6311
_cell_angle_beta     94.9992
_cell_angle_gamma    104.204

_space_group_name_H-M_alt    "P 1"
_space_group_IT_number       1

loop_
  _space_group_symop_operation_xyz
  'x, y, z'

loop_
  _atom_site_type_symbol
  _atom_site_label
  _atom_site_symmetry_multiplicity
  _atom_site_fract_x
  _atom_site_fract_y
  _atom_site_fract_z
  _atom_site_occupancy
  As  As1       1.0  0.51600  0.23500  0.18100  1.0000
  As  As2       1.0  0.48400  0.76500  0.81900  1.0000
  C   C1        1.0  0.06590  0.75600  0.27200  1.0000
  C   C2        1.0  0.93400  0.24400  0.72800  1.0000
  F   F1        1.0  0.64100  0.23100  0.05130  1.0000
  F   F2        1.0  0.22600  0.19400  0.10200  1.0000
  F   F3        1.0  0.46500  0.95800  0.16800  1.0000
  F   F4        1.0  0.56000  0.51000  0.19200  1.0000
  F   F5        1.0  0.80600  0.26800  0.25200  1.0000
  F   F6        1.0  0.37900  0.23600  0.30300  1.0000
  F   F7        1.0  0.19000  0.51000  0.37900  1.0000
  F   F8        1.0  0.46200  0.81900  0.38000  1.0000
  F   F9        1.0  0.92000  0.68100  0.44700  1.0000
  F   F10       1.0  0.19900  0.99300  0.45100  1.0000
  F   F11       1.0  0.70100  0.25600  0.46100  1.0000
  F   F12       1.0  0.29900  0.74400  0.53900  1.0000
  F   F13       1.0  0.80100  0.00712  0.54900  1.0000
  F   F14       1.0  0.07980  0.31900  0.55300  1.0000
  F   F15       1.0  0.53800  0.18100  0.62000  1.0000
  F   F16       1.0  0.81000  0.49000  0.62100  1.0000
  F   F17       1.0  0.62100  0.76400  0.69700  1.0000
  F   F18       1.0  0.19400  0.73200  0.74800  1.0000
  F   F19       1.0  0.44000  0.49000  0.80800  1.0000
  F   F20       1.0  0.53500  0.04190  0.83200  1.0000
  F   F21       1.0  0.77400  0.80600  0.89800  1.0000
  F   F22       1.0  0.35900  0.76900  0.94900  1.0000
  N   N1        1.0  0.96300  0.67300  0.06740  1.0000
  N   N2        1.0  0.94200  0.88800  0.25000  1.0000
  N   N3        1.0  0.05810  0.11200  0.75000  1.0000
  N   N4        1.0  0.03750  0.32700  0.93300  1.0000
  S   S1        1.0  0.85500  0.86100  0.11700  1.0000
  S   S2        1.0  0.10300  0.58200  0.16000  1.0000
  S   S3        1.0  0.19200  0.75200  0.41500  1.0000
  S   S4        1.0  0.80800  0.24800  0.58500  1.0000
  S   S5        1.0  0.89700  0.41800  0.84000  1.0000
  S   S6        1.0  0.14500  0.13900  0.88300  1.0000
