data_image0
_chemical_formula_structural       AlLiMnO6
_chemical_formula_sum              "Al1 Li1 Mn1 O6"
_cell_length_a       4.92834
_cell_length_b       4.92834
_cell_length_c       4.9218
_cell_angle_alpha    102.304
_cell_angle_beta     102.304
_cell_angle_gamma    119.71

_space_group_name_H-M_alt    "P 1"
_space_group_IT_number       1

loop_
  _space_group_symop_operation_xyz
  'x, y, z'

loop_
  _atom_site_type_symbol
  _atom_site_label
  _atom_site_symmetry_multiplicity
  _atom_site_fract_x
  _atom_site_fract_y
  _atom_site_fract_z
  _atom_site_occupancy
  Al  Al1       1.0  0.18000  0.82000  0.00000  1.0000
  Li  Li1       1.0  0.99800  0.00171  0.50000  1.0000
  Mn  Mn1       1.0  0.81900  0.18100  0.00000  1.0000
  O   O1        1.0  0.21600  0.21500  0.20400  1.0000
  O   O2        1.0  0.95100  0.60200  0.22500  1.0000
  O   O3        1.0  0.60700  0.95700  0.23400  1.0000
  O   O4        1.0  0.04320  0.39300  0.76600  1.0000
  O   O5        1.0  0.39800  0.04940  0.77500  1.0000
  O   O6        1.0  0.78500  0.78400  0.79600  1.0000
