data_image0
_chemical_formula_structural       Cd12Rb8Te16
_chemical_formula_sum              "Cd12 Rb8 Te16"
_cell_length_a       10.6341
_cell_length_b       10.6341
_cell_length_c       13.0403
_cell_angle_alpha    107.641
_cell_angle_beta     107.641
_cell_angle_gamma    93.2166

_space_group_name_H-M_alt    "P 1"
_space_group_IT_number       1

loop_
  _space_group_symop_operation_xyz
  'x, y, z'

loop_
  _atom_site_type_symbol
  _atom_site_label
  _atom_site_symmetry_multiplicity
  _atom_site_fract_x
  _atom_site_fract_y
  _atom_site_fract_z
  _atom_site_occupancy
  Cd  Cd1       1.0  0.62100  0.14000  0.04310  1.0000
  Cd  Cd2       1.0  0.12500  0.64800  0.08970  1.0000
  Cd  Cd3       1.0  0.88800  0.40800  0.19800  1.0000
  Cd  Cd4       1.0  0.59200  0.11200  0.30200  1.0000
  Cd  Cd5       1.0  0.35200  0.87500  0.41000  1.0000
  Cd  Cd6       1.0  0.86000  0.37900  0.45700  1.0000
  Cd  Cd7       1.0  0.14000  0.62100  0.54300  1.0000
  Cd  Cd8       1.0  0.64800  0.12500  0.59000  1.0000
  Cd  Cd9       1.0  0.40800  0.88800  0.69800  1.0000
  Cd  Cd10      1.0  0.11200  0.59200  0.80200  1.0000
  Cd  Cd11      1.0  0.87500  0.35200  0.91000  1.0000
  Cd  Cd12      1.0  0.37900  0.86000  0.95700  1.0000
  Rb  Rb1       1.0  0.00000  0.00000  0.00000  1.0000
  Rb  Rb2       1.0  0.75100  0.75500  0.13600  1.0000
  Rb  Rb3       1.0  0.49900  0.50100  0.25000  1.0000
  Rb  Rb4       1.0  0.24500  0.24900  0.36400  1.0000
  Rb  Rb5       1.0  0.00000  0.00000  0.50000  1.0000
  Rb  Rb6       1.0  0.75500  0.75100  0.63600  1.0000
  Rb  Rb7       1.0  0.50100  0.49900  0.75000  1.0000
  Rb  Rb8       1.0  0.24900  0.24500  0.86400  1.0000
  Te  Te1       1.0  0.65300  0.38100  0.00000  1.0000
  Te  Te2       1.0  0.34700  0.61900  0.00000  1.0000
  Te  Te3       1.0  0.38100  0.11700  0.10800  1.0000
  Te  Te4       1.0  0.11000  0.39200  0.12200  1.0000
  Te  Te5       1.0  0.84600  0.15400  0.25000  1.0000
  Te  Te6       1.0  0.11500  0.88500  0.25000  1.0000
  Te  Te7       1.0  0.60800  0.89000  0.37800  1.0000
  Te  Te8       1.0  0.88300  0.61900  0.39200  1.0000
  Te  Te9       1.0  0.38100  0.65300  0.50000  1.0000
  Te  Te10      1.0  0.61900  0.34700  0.50000  1.0000
  Te  Te11      1.0  0.11700  0.38100  0.60800  1.0000
  Te  Te12      1.0  0.39200  0.11000  0.62200  1.0000
  Te  Te13      1.0  0.88500  0.11500  0.75000  1.0000
  Te  Te14      1.0  0.15400  0.84600  0.75000  1.0000
  Te  Te15      1.0  0.89000  0.60800  0.87800  1.0000
  Te  Te16      1.0  0.61900  0.88300  0.89200  1.0000
