data_image0
_chemical_formula_structural       Gd2Li2O24P8
_chemical_formula_sum              "Gd2 Li2 O24 P8"
_cell_length_a       6.97175
_cell_length_b       8.80623
_cell_length_c       8.83296
_cell_angle_alpha    65.2377
_cell_angle_beta     113.244
_cell_angle_gamma    113.319

_space_group_name_H-M_alt    "P 1"
_space_group_IT_number       1

loop_
  _space_group_symop_operation_xyz
  'x, y, z'

loop_
  _atom_site_type_symbol
  _atom_site_label
  _atom_site_symmetry_multiplicity
  _atom_site_fract_x
  _atom_site_fract_y
  _atom_site_fract_z
  _atom_site_occupancy
  Gd  Gd1       1.0  0.29600  0.75000  0.25000  1.0000
  Gd  Gd2       1.0  0.70400  0.25000  0.75000  1.0000
  Li  Li1       1.0  0.79600  0.75000  0.25000  1.0000
  Li  Li2       1.0  0.20400  0.25000  0.75000  1.0000
  O   O1        1.0  0.89100  0.18300  0.04830  1.0000
  O   O2        1.0  0.28100  0.23900  0.07910  1.0000
  O   O3        1.0  0.51700  0.77600  0.08560  1.0000
  O   O4        1.0  0.67900  0.36200  0.15100  1.0000
  O   O5        1.0  0.06180  0.92500  0.20000  1.0000
  O   O6        1.0  0.51900  0.03030  0.23400  1.0000
  O   O7        1.0  0.25400  0.47000  0.26600  1.0000
  O   O8        1.0  0.93700  0.57500  0.30000  1.0000
  O   O9        1.0  0.16700  0.13800  0.34900  1.0000
  O   O10       1.0  0.65600  0.72400  0.41400  1.0000
  O   O11       1.0  0.96300  0.26100  0.42100  1.0000
  O   O12       1.0  0.66000  0.31700  0.45200  1.0000
  O   O13       1.0  0.34000  0.68300  0.54800  1.0000
  O   O14       1.0  0.03710  0.73900  0.57900  1.0000
  O   O15       1.0  0.34400  0.27600  0.58600  1.0000
  O   O16       1.0  0.83300  0.86200  0.65100  1.0000
  O   O17       1.0  0.06310  0.42500  0.70000  1.0000
  O   O18       1.0  0.74600  0.53000  0.73400  1.0000
  O   O19       1.0  0.48100  0.97000  0.76600  1.0000
  O   O20       1.0  0.93800  0.07480  0.80000  1.0000
  O   O21       1.0  0.32100  0.63800  0.84900  1.0000
  O   O22       1.0  0.48300  0.22400  0.91400  1.0000
  O   O23       1.0  0.71900  0.76100  0.92100  1.0000
  O   O24       1.0  0.10900  0.81700  0.95200  1.0000
  P   P1        1.0  0.49700  0.19900  0.09660  1.0000
  P   P2        1.0  0.08280  0.11400  0.16100  1.0000
  P   P3        1.0  0.80800  0.38600  0.33900  1.0000
  P   P4        1.0  0.20100  0.30100  0.40300  1.0000
  P   P5        1.0  0.79900  0.69900  0.59700  1.0000
  P   P6        1.0  0.19200  0.61400  0.66100  1.0000
  P   P7        1.0  0.91700  0.88600  0.83900  1.0000
  P   P8        1.0  0.50300  0.80100  0.90300  1.0000
