data_image0
_chemical_formula_structural       Mn12O48Sr16Zr4
_chemical_formula_sum              "Mn12 O48 Sr16 Zr4"
_cell_length_a       11.8273
_cell_length_b       11.8273
_cell_length_c       12.4758
_cell_angle_alpha    115.027
_cell_angle_beta     115.027
_cell_angle_gamma    39.3482

_space_group_name_H-M_alt    "P 1"
_space_group_IT_number       1

loop_
  _space_group_symop_operation_xyz
  'x, y, z'

loop_
  _atom_site_type_symbol
  _atom_site_label
  _atom_site_symmetry_multiplicity
  _atom_site_fract_x
  _atom_site_fract_y
  _atom_site_fract_z
  _atom_site_occupancy
  Mn  Mn1       1.0  0.25200  0.75200  0.50400  1.0000
  Mn  Mn2       1.0  0.75200  0.25200  0.50400  1.0000
  Mn  Mn3       1.0  0.18800  0.68800  0.74900  1.0000
  Mn  Mn4       1.0  0.68800  0.18800  0.74700  1.0000
  Mn  Mn5       1.0  0.81400  0.31400  0.25100  1.0000
  Mn  Mn6       1.0  0.12400  0.62400  0.99400  1.0000
  Mn  Mn7       1.0  0.43600  0.93600  0.74700  1.0000
  Mn  Mn8       1.0  0.93700  0.43700  0.74800  1.0000
  Mn  Mn9       1.0  0.37400  0.87400  0.99400  1.0000
  Mn  Mn10      1.0  0.87300  0.37300  0.99600  1.0000
  Mn  Mn11      1.0  0.50000  0.00020  0.50500  1.0000
  Mn  Mn12      1.0  0.00000  0.50000  0.50200  1.0000
  O   O1        1.0  0.05300  0.07490  0.25300  1.0000
  O   O2        1.0  0.02740  0.52700  0.38100  1.0000
  O   O3        1.0  0.52900  0.02860  0.38700  1.0000
  O   O4        1.0  0.31000  0.31200  0.26500  1.0000
  O   O5        1.0  0.25000  0.25000  0.50800  1.0000
  O   O6        1.0  0.09390  0.59400  0.11400  1.0000
  O   O7        1.0  0.59800  0.09850  0.13200  1.0000
  O   O8        1.0  0.18600  0.18600  0.74800  1.0000
  O   O9        1.0  0.12300  0.12200  0.99300  1.0000
  O   O10       1.0  0.16200  0.66200  0.38200  1.0000
  O   O11       1.0  0.66200  0.16200  0.38500  1.0000
  O   O12       1.0  0.09370  0.59400  0.62500  1.0000
  O   O13       1.0  0.59600  0.09580  0.62600  1.0000
  O   O14       1.0  0.21400  0.71400  0.11600  1.0000
  O   O15       1.0  0.72500  0.22500  0.13000  1.0000
  O   O16       1.0  0.02920  0.52900  0.87200  1.0000
  O   O17       1.0  0.52500  0.02510  0.87000  1.0000
  O   O18       1.0  0.21800  0.71800  0.62500  1.0000
  O   O19       1.0  0.72200  0.22200  0.62700  1.0000
  O   O20       1.0  0.50300  0.50300  0.50400  1.0000
  O   O21       1.0  0.43800  0.43800  0.74800  1.0000
  O   O22       1.0  0.28000  0.78000  0.38100  1.0000
  O   O23       1.0  0.78100  0.28100  0.37500  1.0000
  O   O24       1.0  0.15500  0.65500  0.86900  1.0000
  O   O25       1.0  0.65900  0.15900  0.86600  1.0000
  O   O26       1.0  0.57500  0.55300  0.25300  1.0000
  O   O27       1.0  0.36300  0.38500  0.99200  1.0000
  O   O28       1.0  0.34500  0.84500  0.11700  1.0000
  O   O29       1.0  0.84700  0.34700  0.12900  1.0000
  O   O30       1.0  0.34400  0.84400  0.62600  1.0000
  O   O31       1.0  0.84600  0.34600  0.62400  1.0000
  O   O32       1.0  0.27900  0.77900  0.87300  1.0000
  O   O33       1.0  0.78100  0.28100  0.87400  1.0000
  O   O34       1.0  0.41100  0.91100  0.38400  1.0000
  O   O35       1.0  0.90700  0.40700  0.37900  1.0000
  O   O36       1.0  0.46400  0.96400  0.11300  1.0000
  O   O37       1.0  0.96400  0.46400  0.11500  1.0000
  O   O38       1.0  0.40300  0.90300  0.86900  1.0000
  O   O39       1.0  0.90600  0.40600  0.87300  1.0000
  O   O40       1.0  0.68600  0.68600  0.74800  1.0000
  O   O41       1.0  0.62200  0.62300  0.99300  1.0000
  O   O42       1.0  0.46900  0.96900  0.62900  1.0000
  O   O43       1.0  0.96900  0.46900  0.62800  1.0000
  O   O44       1.0  0.75000  0.75000  0.50800  1.0000
  O   O45       1.0  0.81200  0.81000  0.26500  1.0000
  O   O46       1.0  0.88500  0.86300  0.99200  1.0000
  O   O47       1.0  0.93800  0.93800  0.74800  1.0000
  O   O48       1.0  0.00271  0.00253  0.50400  1.0000
  Sr  Sr1       1.0  0.17500  0.19600  0.25300  1.0000
  Sr  Sr2       1.0  0.12200  0.13300  0.50800  1.0000
  Sr  Sr3       1.0  0.06240  0.06150  0.74800  1.0000
  Sr  Sr4       1.0  0.37600  0.37800  0.51100  1.0000
  Sr  Sr5       1.0  0.45200  0.43600  0.26100  1.0000
  Sr  Sr6       1.0  0.30400  0.31900  0.74400  1.0000
  Sr  Sr7       1.0  0.23800  0.24600  0.98200  1.0000
  Sr  Sr8       1.0  0.56200  0.56200  0.74800  1.0000
  Sr  Sr9       1.0  0.63300  0.62200  0.50800  1.0000
  Sr  Sr10      1.0  0.50000  0.50200  0.98900  1.0000
  Sr  Sr11      1.0  0.69600  0.67500  0.25300  1.0000
  Sr  Sr12      1.0  0.74600  0.73800  0.98200  1.0000
  Sr  Sr13      1.0  0.81900  0.80400  0.74400  1.0000
  Sr  Sr14      1.0  0.87900  0.87600  0.51100  1.0000
  Sr  Sr15      1.0  0.93600  0.95200  0.26100  1.0000
  Sr  Sr16      1.0  0.00224  0.00000  0.98900  1.0000
  Zr  Zr1       1.0  0.06370  0.56400  0.24700  1.0000
  Zr  Zr2       1.0  0.56000  0.06030  0.25300  1.0000
  Zr  Zr3       1.0  0.31300  0.81300  0.24900  1.0000
  Zr  Zr4       1.0  0.62600  0.12600  0.99600  1.0000
