data_image0
_chemical_formula_structural       Al6O24V6
_chemical_formula_sum              "Al6 O24 V6"
_cell_length_a       6.52206
_cell_length_b       7.73729
_cell_length_c       9.07829
_cell_angle_alpha    96.2387
_cell_angle_beta     107.072
_cell_angle_gamma    101.243

_space_group_name_H-M_alt    "P 1"
_space_group_IT_number       1

loop_
  _space_group_symop_operation_xyz
  'x, y, z'

loop_
  _atom_site_type_symbol
  _atom_site_label
  _atom_site_symmetry_multiplicity
  _atom_site_fract_x
  _atom_site_fract_y
  _atom_site_fract_z
  _atom_site_occupancy
  Al  Al1       1.0  0.96100  0.30800  0.00845  1.0000
  Al  Al2       1.0  0.46100  0.88500  0.21200  1.0000
  Al  Al3       1.0  0.74800  0.70200  0.41000  1.0000
  Al  Al4       1.0  0.25200  0.29800  0.59000  1.0000
  Al  Al5       1.0  0.53900  0.11500  0.78800  1.0000
  Al  Al6       1.0  0.03920  0.69200  0.99200  1.0000
  O   O1        1.0  0.35600  0.72700  0.02540  1.0000
  O   O2        1.0  0.25000  0.29600  0.03190  1.0000
  O   O3        1.0  0.04610  0.52600  0.14200  1.0000
  O   O4        1.0  0.94800  0.15800  0.15200  1.0000
  O   O5        1.0  0.15600  0.87100  0.17100  1.0000
  O   O6        1.0  0.52500  0.12200  0.22400  1.0000
  O   O7        1.0  0.64300  0.49600  0.25500  1.0000
  O   O8        1.0  0.74800  0.86200  0.26200  1.0000
  O   O9        1.0  0.45700  0.74800  0.36600  1.0000
  O   O10       1.0  0.26400  0.43100  0.43200  1.0000
  O   O11       1.0  0.04350  0.70200  0.43400  1.0000
  O   O12       1.0  0.16600  0.09160  0.43500  1.0000
  O   O13       1.0  0.83400  0.90800  0.56500  1.0000
  O   O14       1.0  0.95600  0.29800  0.56600  1.0000
  O   O15       1.0  0.73600  0.56900  0.56800  1.0000
  O   O16       1.0  0.54300  0.25200  0.63400  1.0000
  O   O17       1.0  0.25200  0.13800  0.73800  1.0000
  O   O18       1.0  0.35700  0.50400  0.74500  1.0000
  O   O19       1.0  0.47500  0.87800  0.77600  1.0000
  O   O20       1.0  0.84400  0.12900  0.82900  1.0000
  O   O21       1.0  0.05220  0.84200  0.84800  1.0000
  O   O22       1.0  0.95400  0.47400  0.85800  1.0000
  O   O23       1.0  0.75000  0.70400  0.96800  1.0000
  O   O24       1.0  0.64400  0.27300  0.97500  1.0000
  V   V1        1.0  0.51700  0.30200  0.12700  1.0000
  V   V2        1.0  0.00187  0.99600  0.25600  1.0000
  V   V3        1.0  0.19600  0.60200  0.34600  1.0000
  V   V4        1.0  0.80400  0.39800  0.65400  1.0000
  V   V5        1.0  0.99800  0.00361  0.74400  1.0000
  V   V6        1.0  0.48300  0.69800  0.87300  1.0000
