data_image0
_chemical_formula_structural       Gd2K2O24P8
_chemical_formula_sum              "Gd2 K2 O24 P8"
_cell_length_a       7.22795
_cell_length_b       7.22795
_cell_length_c       10.4137
_cell_angle_alpha    101.053
_cell_angle_beta     101.053
_cell_angle_gamma    115.081

_space_group_name_H-M_alt    "P 1"
_space_group_IT_number       1

loop_
  _space_group_symop_operation_xyz
  'x, y, z'

loop_
  _atom_site_type_symbol
  _atom_site_label
  _atom_site_symmetry_multiplicity
  _atom_site_fract_x
  _atom_site_fract_y
  _atom_site_fract_z
  _atom_site_occupancy
  Gd  Gd1       1.0  0.11900  0.88100  0.25000  1.0000
  Gd  Gd2       1.0  0.88100  0.11900  0.75000  1.0000
  K   K1        1.0  0.82000  0.18000  0.25000  1.0000
  K   K2        1.0  0.18000  0.82000  0.75000  1.0000
  O   O1        1.0  0.84200  0.86500  0.07790  1.0000
  O   O2        1.0  0.53600  0.27900  0.07810  1.0000
  O   O3        1.0  0.36100  0.51200  0.09100  1.0000
  O   O4        1.0  0.30400  0.82900  0.09500  1.0000
  O   O5        1.0  0.92100  0.51000  0.11600  1.0000
  O   O6        1.0  0.24500  0.20300  0.18600  1.0000
  O   O7        1.0  0.79700  0.75500  0.31400  1.0000
  O   O8        1.0  0.49000  0.07940  0.38400  1.0000
  O   O9        1.0  0.17100  0.69600  0.40500  1.0000
  O   O10       1.0  0.48800  0.63900  0.40900  1.0000
  O   O11       1.0  0.72100  0.46400  0.42200  1.0000
  O   O12       1.0  0.13500  0.15800  0.42200  1.0000
  O   O13       1.0  0.86500  0.84200  0.57800  1.0000
  O   O14       1.0  0.27900  0.53600  0.57800  1.0000
  O   O15       1.0  0.51200  0.36100  0.59100  1.0000
  O   O16       1.0  0.82900  0.30400  0.59500  1.0000
  O   O17       1.0  0.51000  0.92100  0.61600  1.0000
  O   O18       1.0  0.20300  0.24500  0.68600  1.0000
  O   O19       1.0  0.75500  0.79700  0.81400  1.0000
  O   O20       1.0  0.07940  0.49000  0.88400  1.0000
  O   O21       1.0  0.69600  0.17100  0.90500  1.0000
  O   O22       1.0  0.63900  0.48800  0.90900  1.0000
  O   O23       1.0  0.46400  0.72100  0.92200  1.0000
  O   O24       1.0  0.15800  0.13500  0.92200  1.0000
  P   P1        1.0  0.71600  0.36600  0.00125  1.0000
  P   P2        1.0  0.30400  0.26300  0.06570  1.0000
  P   P3        1.0  0.73700  0.69600  0.43400  1.0000
  P   P4        1.0  0.63400  0.28400  0.49900  1.0000
  P   P5        1.0  0.36600  0.71600  0.50100  1.0000
  P   P6        1.0  0.26300  0.30400  0.56600  1.0000
  P   P7        1.0  0.69600  0.73700  0.93400  1.0000
  P   P8        1.0  0.28400  0.63400  0.99900  1.0000
