data_image0
_chemical_formula_structural       Li2O24P6Zr4
_chemical_formula_sum              "Li2 O24 P6 Zr4"
_cell_length_a       8.83013
_cell_length_b       8.83013
_cell_length_c       8.86391
_cell_angle_alpha    90
_cell_angle_beta     119.874
_cell_angle_gamma    60

_space_group_name_H-M_alt    "P 1"
_space_group_IT_number       1

loop_
  _space_group_symop_operation_xyz
  'x, y, z'

loop_
  _atom_site_type_symbol
  _atom_site_label
  _atom_site_symmetry_multiplicity
  _atom_site_fract_x
  _atom_site_fract_y
  _atom_site_fract_z
  _atom_site_occupancy
  Li  Li1       1.0  0.00000  0.00000  0.00000  1.0000
  Li  Li2       1.0  0.00000  0.50000  0.50000  1.0000
  O   O1        1.0  0.39100  0.10800  0.07710  1.0000
  O   O2        1.0  0.57800  0.31400  0.07710  1.0000
  O   O3        1.0  0.18500  0.50100  0.07710  1.0000
  O   O4        1.0  0.96800  0.09210  0.23200  1.0000
  O   O5        1.0  0.17200  0.73600  0.23200  1.0000
  O   O6        1.0  0.32400  0.94000  0.23200  1.0000
  O   O7        1.0  0.82800  0.40800  0.26800  1.0000
  O   O8        1.0  0.03220  0.56000  0.26800  1.0000
  O   O9        1.0  0.67600  0.76400  0.26800  1.0000
  O   O10       1.0  0.81500  0.18600  0.42300  1.0000
  O   O11       1.0  0.42200  0.39200  0.42300  1.0000
  O   O12       1.0  0.60900  0.99900  0.42300  1.0000
  O   O13       1.0  0.39100  0.00084  0.57700  1.0000
  O   O14       1.0  0.57800  0.60800  0.57700  1.0000
  O   O15       1.0  0.18500  0.81400  0.57700  1.0000
  O   O16       1.0  0.32400  0.23600  0.73200  1.0000
  O   O17       1.0  0.96800  0.44000  0.73200  1.0000
  O   O18       1.0  0.17200  0.59200  0.73200  1.0000
  O   O19       1.0  0.67600  0.05990  0.76800  1.0000
  O   O20       1.0  0.82800  0.26400  0.76800  1.0000
  O   O21       1.0  0.03220  0.90800  0.76800  1.0000
  O   O22       1.0  0.81500  0.49900  0.92300  1.0000
  O   O23       1.0  0.42200  0.68600  0.92300  1.0000
  O   O24       1.0  0.60900  0.89200  0.92300  1.0000
  P   P1        1.0  0.79700  0.25000  0.25000  1.0000
  P   P2        1.0  0.20300  0.54700  0.25000  1.0000
  P   P3        1.0  0.50000  0.95300  0.25000  1.0000
  P   P4        1.0  0.50000  0.04700  0.75000  1.0000
  P   P5        1.0  0.79700  0.45300  0.75000  1.0000
  P   P6        1.0  0.20300  0.75000  0.75000  1.0000
  Zr  Zr1       1.0  0.71500  0.64200  0.07310  1.0000
  Zr  Zr2       1.0  0.28500  0.85800  0.42700  1.0000
  Zr  Zr3       1.0  0.71500  0.14200  0.57300  1.0000
  Zr  Zr4       1.0  0.28500  0.35800  0.92700  1.0000
