data_image0
_chemical_formula_structural       C6Co6H6O18
_chemical_formula_sum              "C6 Co6 H6 O18"
_cell_length_a       7.47614
_cell_length_b       7.47614
_cell_length_c       7.47614
_cell_angle_alpha    95.9689
_cell_angle_beta     95.9689
_cell_angle_gamma    95.9689

_space_group_name_H-M_alt    "P 1"
_space_group_IT_number       1

loop_
  _space_group_symop_operation_xyz
  'x, y, z'

loop_
  _atom_site_type_symbol
  _atom_site_label
  _atom_site_symmetry_multiplicity
  _atom_site_fract_x
  _atom_site_fract_y
  _atom_site_fract_z
  _atom_site_occupancy
  C   C1        1.0  0.83500  0.62500  0.06900  1.0000
  C   C2        1.0  0.37500  0.93100  0.16500  1.0000
  C   C3        1.0  0.93100  0.16500  0.37500  1.0000
  C   C4        1.0  0.06900  0.83500  0.62500  1.0000
  C   C5        1.0  0.62500  0.06900  0.83500  1.0000
  C   C6        1.0  0.16500  0.37500  0.93100  1.0000
  Co  Co1       1.0  0.47600  0.55300  0.20800  1.0000
  Co  Co2       1.0  0.79200  0.52400  0.44700  1.0000
  Co  Co3       1.0  0.55300  0.20800  0.47600  1.0000
  Co  Co4       1.0  0.44700  0.79200  0.52400  1.0000
  Co  Co5       1.0  0.20800  0.47600  0.55300  1.0000
  Co  Co6       1.0  0.52400  0.44700  0.79200  1.0000
  H   H1        1.0  0.08150  0.35000  0.04140  1.0000
  H   H2        1.0  0.35000  0.04140  0.08150  1.0000
  H   H3        1.0  0.04140  0.08150  0.35000  1.0000
  H   H4        1.0  0.95900  0.91900  0.65000  1.0000
  H   H5        1.0  0.65000  0.95900  0.91900  1.0000
  H   H6        1.0  0.91900  0.65000  0.95900  1.0000
  O   O1        1.0  0.66300  0.59800  0.02260  1.0000
  O   O2        1.0  0.37500  0.77400  0.08850  1.0000
  O   O3        1.0  0.91100  0.62500  0.22600  1.0000
  O   O4        1.0  0.58200  0.36500  0.28300  1.0000
  O   O5        1.0  0.40200  0.97700  0.33700  1.0000
  O   O6        1.0  0.28300  0.58200  0.36500  1.0000
  O   O7        1.0  0.77400  0.08850  0.37500  1.0000
  O   O8        1.0  0.97700  0.33700  0.40200  1.0000
  O   O9        1.0  0.63500  0.71700  0.41800  1.0000
  O   O10       1.0  0.36500  0.28300  0.58200  1.0000
  O   O11       1.0  0.02260  0.66300  0.59800  1.0000
  O   O12       1.0  0.22600  0.91100  0.62500  1.0000
  O   O13       1.0  0.71700  0.41800  0.63500  1.0000
  O   O14       1.0  0.59800  0.02260  0.66300  1.0000
  O   O15       1.0  0.41800  0.63500  0.71700  1.0000
  O   O16       1.0  0.08850  0.37500  0.77400  1.0000
  O   O17       1.0  0.62500  0.22600  0.91100  1.0000
  O   O18       1.0  0.33700  0.40200  0.97700  1.0000
