data_image0
_chemical_formula_structural       Cd4O24P8
_chemical_formula_sum              "Cd4 O24 P8"
_cell_length_a       7.47693
_cell_length_b       7.47693
_cell_length_c       10.0495
_cell_angle_alpha    99.3004
_cell_angle_beta     109.407
_cell_angle_gamma    109.644

_space_group_name_H-M_alt    "P 1"
_space_group_IT_number       1

loop_
  _space_group_symop_operation_xyz
  'x, y, z'

loop_
  _atom_site_type_symbol
  _atom_site_label
  _atom_site_symmetry_multiplicity
  _atom_site_fract_x
  _atom_site_fract_y
  _atom_site_fract_z
  _atom_site_occupancy
  Cd  Cd1       1.0  0.50000  0.00000  0.00000  1.0000
  Cd  Cd2       1.0  0.28500  0.03480  0.25000  1.0000
  Cd  Cd3       1.0  0.50000  0.50000  0.50000  1.0000
  Cd  Cd4       1.0  0.71500  0.96500  0.75000  1.0000
  O   O1        1.0  0.31800  0.52300  0.05600  1.0000
  O   O2        1.0  0.99400  0.80300  0.06860  1.0000
  O   O3        1.0  0.36800  0.20900  0.08450  1.0000
  O   O4        1.0  0.81200  0.21200  0.16200  1.0000
  O   O5        1.0  0.71400  0.71600  0.16300  1.0000
  O   O6        1.0  0.47800  0.88200  0.18900  1.0000
  O   O7        1.0  0.19300  0.28800  0.31100  1.0000
  O   O8        1.0  0.05350  0.55100  0.33700  1.0000
  O   O9        1.0  0.55000  0.65000  0.33800  1.0000
  O   O10       1.0  0.62500  0.28400  0.41600  1.0000
  O   O11       1.0  0.23400  0.92600  0.43100  1.0000
  O   O12       1.0  0.96700  0.26200  0.44400  1.0000
  O   O13       1.0  0.03300  0.73800  0.55600  1.0000
  O   O14       1.0  0.76600  0.07440  0.56900  1.0000
  O   O15       1.0  0.37500  0.71600  0.58400  1.0000
  O   O16       1.0  0.45000  0.35000  0.66200  1.0000
  O   O17       1.0  0.94700  0.44900  0.66300  1.0000
  O   O18       1.0  0.80700  0.71200  0.68900  1.0000
  O   O19       1.0  0.52200  0.11800  0.81100  1.0000
  O   O20       1.0  0.28600  0.28400  0.83700  1.0000
  O   O21       1.0  0.18800  0.78800  0.83800  1.0000
  O   O22       1.0  0.63200  0.79100  0.91600  1.0000
  O   O23       1.0  0.00581  0.19700  0.93100  1.0000
  O   O24       1.0  0.68200  0.47700  0.94400  1.0000
  P   P1        1.0  0.76400  0.71300  0.01820  1.0000
  P   P2        1.0  0.51400  0.69600  0.19700  1.0000
  P   P3        1.0  0.99900  0.31700  0.30300  1.0000
  P   P4        1.0  0.19400  0.74600  0.48200  1.0000
  P   P5        1.0  0.80600  0.25400  0.51800  1.0000
  P   P6        1.0  0.00117  0.68300  0.69700  1.0000
  P   P7        1.0  0.48600  0.30400  0.80300  1.0000
  P   P8        1.0  0.23600  0.28700  0.98200  1.0000
