data_image0
_chemical_formula_structural       La2Li2O24P8
_chemical_formula_sum              "La2 Li2 O24 P8"
_cell_length_a       7.03558
_cell_length_b       8.94377
_cell_length_c       8.98113
_cell_angle_alpha    95.6032
_cell_angle_beta     113.06
_cell_angle_gamma    113.161

_space_group_name_H-M_alt    "P 1"
_space_group_IT_number       1

loop_
  _space_group_symop_operation_xyz
  'x, y, z'

loop_
  _atom_site_type_symbol
  _atom_site_label
  _atom_site_symmetry_multiplicity
  _atom_site_fract_x
  _atom_site_fract_y
  _atom_site_fract_z
  _atom_site_occupancy
  La  La1       1.0  0.94800  0.25000  0.25000  1.0000
  La  La2       1.0  0.05160  0.75000  0.75000  1.0000
  Li  Li1       1.0  0.44800  0.25000  0.25000  1.0000
  Li  Li2       1.0  0.55200  0.75000  0.75000  1.0000
  O   O1        1.0  0.16700  0.82100  0.05550  1.0000
  O   O2        1.0  0.55500  0.23300  0.08480  1.0000
  O   O3        1.0  0.81400  0.76300  0.08890  1.0000
  O   O4        1.0  0.47900  0.63300  0.14800  1.0000
  O   O5        1.0  0.14100  0.07200  0.20000  1.0000
  O   O6        1.0  0.70600  0.95800  0.22700  1.0000
  O   O7        1.0  0.02070  0.54200  0.27300  1.0000
  O   O8        1.0  0.37000  0.42800  0.30000  1.0000
  O   O9        1.0  0.19800  0.86700  0.35200  1.0000
  O   O10       1.0  0.46200  0.73700  0.41100  1.0000
  O   O11       1.0  0.73700  0.26700  0.41500  1.0000
  O   O12       1.0  0.79100  0.67900  0.44500  1.0000
  O   O13       1.0  0.20900  0.32100  0.55500  1.0000
  O   O14       1.0  0.26300  0.73300  0.58500  1.0000
  O   O15       1.0  0.53800  0.26300  0.58900  1.0000
  O   O16       1.0  0.80200  0.13300  0.64800  1.0000
  O   O17       1.0  0.63000  0.57200  0.70000  1.0000
  O   O18       1.0  0.97900  0.45800  0.72700  1.0000
  O   O19       1.0  0.29400  0.04160  0.77300  1.0000
  O   O20       1.0  0.85900  0.92800  0.80000  1.0000
  O   O21       1.0  0.52100  0.36700  0.85200  1.0000
  O   O22       1.0  0.18600  0.23700  0.91100  1.0000
  O   O23       1.0  0.44500  0.76700  0.91500  1.0000
  O   O24       1.0  0.83300  0.17900  0.94500  1.0000
  P   P1        1.0  0.60700  0.79500  0.09620  1.0000
  P   P2        1.0  0.08880  0.88800  0.16600  1.0000
  P   P3        1.0  0.53500  0.61200  0.33400  1.0000
  P   P4        1.0  0.21600  0.70500  0.40400  1.0000
  P   P5        1.0  0.78400  0.29500  0.59600  1.0000
  P   P6        1.0  0.46500  0.38800  0.66600  1.0000
  P   P7        1.0  0.91100  0.11200  0.83400  1.0000
  P   P8        1.0  0.39300  0.20500  0.90400  1.0000
