data_image0
_chemical_formula_structural       Br24Si12
_chemical_formula_sum              "Br24 Si12"
_cell_length_a       10.3439
_cell_length_b       10.7496
_cell_length_c       14.7767
_cell_angle_alpha    107.508
_cell_angle_beta     90
_cell_angle_gamma    118.759

_space_group_name_H-M_alt    "P 1"
_space_group_IT_number       1

loop_
  _space_group_symop_operation_xyz
  'x, y, z'

loop_
  _atom_site_type_symbol
  _atom_site_label
  _atom_site_symmetry_multiplicity
  _atom_site_fract_x
  _atom_site_fract_y
  _atom_site_fract_z
  _atom_site_occupancy
  Br  Br1       1.0  0.36400  0.84000  0.06190  1.0000
  Br  Br2       1.0  0.07050  0.39000  0.08940  1.0000
  Br  Br3       1.0  0.85700  0.97000  0.10200  1.0000
  Br  Br4       1.0  0.38000  0.25100  0.13700  1.0000
  Br  Br5       1.0  0.82200  0.59900  0.14700  1.0000
  Br  Br6       1.0  0.49800  0.72800  0.23400  1.0000
  Br  Br7       1.0  0.77100  0.27200  0.26600  1.0000
  Br  Br8       1.0  0.22300  0.40100  0.35300  1.0000
  Br  Br9       1.0  0.12900  0.74900  0.36300  1.0000
  Br  Br10      1.0  0.88600  0.02970  0.39800  1.0000
  Br  Br11      1.0  0.68000  0.61000  0.41100  1.0000
  Br  Br12      1.0  0.52300  0.16000  0.43800  1.0000
  Br  Br13      1.0  0.47700  0.84000  0.56200  1.0000
  Br  Br14      1.0  0.32000  0.39000  0.58900  1.0000
  Br  Br15      1.0  0.11400  0.97000  0.60200  1.0000
  Br  Br16      1.0  0.87100  0.25100  0.63700  1.0000
  Br  Br17      1.0  0.77700  0.59900  0.64700  1.0000
  Br  Br18      1.0  0.22900  0.72800  0.73400  1.0000
  Br  Br19      1.0  0.50200  0.27200  0.76600  1.0000
  Br  Br20      1.0  0.17800  0.40100  0.85300  1.0000
  Br  Br21      1.0  0.62000  0.74900  0.86300  1.0000
  Br  Br22      1.0  0.14300  0.02970  0.89800  1.0000
  Br  Br23      1.0  0.93000  0.61000  0.91100  1.0000
  Br  Br24      1.0  0.63600  0.16000  0.93800  1.0000
  Si  Si1       1.0  0.25600  0.43400  0.00393  1.0000
  Si  Si2       1.0  0.66800  0.74600  0.00940  1.0000
  Si  Si3       1.0  0.44700  0.69000  0.07790  1.0000
  Si  Si4       1.0  0.75700  0.31000  0.42200  1.0000
  Si  Si5       1.0  0.92200  0.25400  0.49100  1.0000
  Si  Si6       1.0  0.82100  0.56600  0.49600  1.0000
  Si  Si7       1.0  0.17900  0.43400  0.50400  1.0000
  Si  Si8       1.0  0.07780  0.74600  0.50900  1.0000
  Si  Si9       1.0  0.24300  0.69000  0.57800  1.0000
  Si  Si10      1.0  0.55300  0.31000  0.92200  1.0000
  Si  Si11      1.0  0.33200  0.25400  0.99100  1.0000
  Si  Si12      1.0  0.74400  0.56600  0.99600  1.0000
