data_image0
_chemical_formula_structural       Er8Ni28
_chemical_formula_sum              "Er8 Ni28"
_cell_length_a       4.90106
_cell_length_b       4.90106
_cell_length_c       24.0253
_cell_angle_alpha    90
_cell_angle_beta     90
_cell_angle_gamma    120

_space_group_name_H-M_alt    "P 1"
_space_group_IT_number       1

loop_
  _space_group_symop_operation_xyz
  'x, y, z'

loop_
  _atom_site_type_symbol
  _atom_site_label
  _atom_site_symmetry_multiplicity
  _atom_site_fract_x
  _atom_site_fract_y
  _atom_site_fract_z
  _atom_site_occupancy
  Er  Er1       1.0  0.33300  0.66700  0.02890  1.0000
  Er  Er2       1.0  0.33300  0.66700  0.17400  1.0000
  Er  Er3       1.0  0.33300  0.66700  0.32600  1.0000
  Er  Er4       1.0  0.33300  0.66700  0.47100  1.0000
  Er  Er5       1.0  0.66700  0.33300  0.52900  1.0000
  Er  Er6       1.0  0.66700  0.33300  0.67400  1.0000
  Er  Er7       1.0  0.66700  0.33300  0.82600  1.0000
  Er  Er8       1.0  0.66700  0.33300  0.97100  1.0000
  Ni  Ni1       1.0  0.00000  0.00000  0.00000  1.0000
  Ni  Ni2       1.0  0.83300  0.66500  0.08480  1.0000
  Ni  Ni3       1.0  0.33500  0.16700  0.08480  1.0000
  Ni  Ni4       1.0  0.83300  0.16700  0.08480  1.0000
  Ni  Ni5       1.0  0.66700  0.33300  0.16700  1.0000
  Ni  Ni6       1.0  0.00000  0.00000  0.16700  1.0000
  Ni  Ni7       1.0  0.33400  0.16700  0.25000  1.0000
  Ni  Ni8       1.0  0.83300  0.16700  0.25000  1.0000
  Ni  Ni9       1.0  0.83300  0.66600  0.25000  1.0000
  Ni  Ni10      1.0  0.00000  0.00000  0.33300  1.0000
  Ni  Ni11      1.0  0.66700  0.33300  0.33300  1.0000
  Ni  Ni12      1.0  0.33500  0.16700  0.41500  1.0000
  Ni  Ni13      1.0  0.83300  0.16700  0.41500  1.0000
  Ni  Ni14      1.0  0.83300  0.66500  0.41500  1.0000
  Ni  Ni15      1.0  0.00000  0.00000  0.50000  1.0000
  Ni  Ni16      1.0  0.16700  0.33500  0.58500  1.0000
  Ni  Ni17      1.0  0.16700  0.83300  0.58500  1.0000
  Ni  Ni18      1.0  0.66500  0.83300  0.58500  1.0000
  Ni  Ni19      1.0  0.33300  0.66700  0.66700  1.0000
  Ni  Ni20      1.0  0.00000  0.00000  0.66700  1.0000
  Ni  Ni21      1.0  0.16700  0.33400  0.75000  1.0000
  Ni  Ni22      1.0  0.16700  0.83300  0.75000  1.0000
  Ni  Ni23      1.0  0.66600  0.83300  0.75000  1.0000
  Ni  Ni24      1.0  0.00000  0.00000  0.83300  1.0000
  Ni  Ni25      1.0  0.33300  0.66700  0.83300  1.0000
  Ni  Ni26      1.0  0.16700  0.83300  0.91500  1.0000
  Ni  Ni27      1.0  0.66500  0.83300  0.91500  1.0000
  Ni  Ni28      1.0  0.16700  0.33500  0.91500  1.0000
