data_image0
_chemical_formula_structural       Lu6Zn30
_chemical_formula_sum              "Lu6 Zn30"
_cell_length_a       8.80559
_cell_length_b       8.80552
_cell_length_c       8.95292
_cell_angle_alpha    90
_cell_angle_beta     90
_cell_angle_gamma    120

_space_group_name_H-M_alt    "P 1"
_space_group_IT_number       1

loop_
  _space_group_symop_operation_xyz
  'x, y, z'

loop_
  _atom_site_type_symbol
  _atom_site_label
  _atom_site_symmetry_multiplicity
  _atom_site_fract_x
  _atom_site_fract_y
  _atom_site_fract_z
  _atom_site_occupancy
  Lu  Lu1       1.0  0.19300  0.38600  0.25000  1.0000
  Lu  Lu2       1.0  0.19300  0.80700  0.25000  1.0000
  Lu  Lu3       1.0  0.61400  0.80700  0.25000  1.0000
  Lu  Lu4       1.0  0.38600  0.19300  0.75000  1.0000
  Lu  Lu5       1.0  0.80700  0.19300  0.75000  1.0000
  Lu  Lu6       1.0  0.80700  0.61400  0.75000  1.0000
  Zn  Zn1       1.0  0.00000  0.00000  0.00000  1.0000
  Zn  Zn2       1.0  0.50000  0.00000  0.00000  1.0000
  Zn  Zn3       1.0  0.00000  0.50000  0.00000  1.0000
  Zn  Zn4       1.0  0.50000  0.50000  0.00000  1.0000
  Zn  Zn5       1.0  0.33300  0.66700  0.01530  1.0000
  Zn  Zn6       1.0  0.31800  0.15900  0.09370  1.0000
  Zn  Zn7       1.0  0.84100  0.15900  0.09370  1.0000
  Zn  Zn8       1.0  0.84100  0.68200  0.09370  1.0000
  Zn  Zn9       1.0  0.56700  0.13400  0.25000  1.0000
  Zn  Zn10      1.0  0.56700  0.43300  0.25000  1.0000
  Zn  Zn11      1.0  0.86600  0.43300  0.25000  1.0000
  Zn  Zn12      1.0  0.84100  0.68200  0.40600  1.0000
  Zn  Zn13      1.0  0.31800  0.15900  0.40600  1.0000
  Zn  Zn14      1.0  0.84100  0.15900  0.40600  1.0000
  Zn  Zn15      1.0  0.33300  0.66700  0.48500  1.0000
  Zn  Zn16      1.0  0.00000  0.00000  0.50000  1.0000
  Zn  Zn17      1.0  0.50000  0.00000  0.50000  1.0000
  Zn  Zn18      1.0  0.00000  0.50000  0.50000  1.0000
  Zn  Zn19      1.0  0.50000  0.50000  0.50000  1.0000
  Zn  Zn20      1.0  0.66700  0.33300  0.51500  1.0000
  Zn  Zn21      1.0  0.15900  0.84100  0.59400  1.0000
  Zn  Zn22      1.0  0.68200  0.84100  0.59400  1.0000
  Zn  Zn23      1.0  0.15900  0.31800  0.59400  1.0000
  Zn  Zn24      1.0  0.13400  0.56700  0.75000  1.0000
  Zn  Zn25      1.0  0.43300  0.56700  0.75000  1.0000
  Zn  Zn26      1.0  0.43300  0.86600  0.75000  1.0000
  Zn  Zn27      1.0  0.15900  0.31800  0.90600  1.0000
  Zn  Zn28      1.0  0.15900  0.84100  0.90600  1.0000
  Zn  Zn29      1.0  0.68200  0.84100  0.90600  1.0000
  Zn  Zn30      1.0  0.66700  0.33300  0.98500  1.0000
