data_image0
_chemical_formula_structural       Li2MnNbO6
_chemical_formula_sum              "Li2 Mn1 Nb1 O6"
_cell_length_a       5.12511
_cell_length_b       5.12511
_cell_length_c       5.11427
_cell_angle_alpha    100.391
_cell_angle_beta     100.391
_cell_angle_gamma    121.097

_space_group_name_H-M_alt    "P 1"
_space_group_IT_number       1

loop_
  _space_group_symop_operation_xyz
  'x, y, z'

loop_
  _atom_site_type_symbol
  _atom_site_label
  _atom_site_symmetry_multiplicity
  _atom_site_fract_x
  _atom_site_fract_y
  _atom_site_fract_z
  _atom_site_occupancy
  Li  Li1       1.0  0.99200  0.00780  0.50000  1.0000
  Li  Li2       1.0  0.35500  0.64500  0.50000  1.0000
  Mn  Mn1       1.0  0.82900  0.17100  0.00000  1.0000
  Nb  Nb1       1.0  0.15300  0.84700  0.00000  1.0000
  O   O1        1.0  0.59200  0.94400  0.22100  1.0000
  O   O2        1.0  0.95700  0.57600  0.23400  1.0000
  O   O3        1.0  0.20200  0.22100  0.24300  1.0000
  O   O4        1.0  0.77900  0.79800  0.75700  1.0000
  O   O5        1.0  0.42400  0.04300  0.76600  1.0000
  O   O6        1.0  0.05590  0.40800  0.77900  1.0000
