data_image0
_chemical_formula_structural       Li2O24P8Sm2
_chemical_formula_sum              "Li2 O24 P8 Sm2"
_cell_length_a       6.99098
_cell_length_b       8.84534
_cell_length_c       8.87622
_cell_angle_alpha    95.9799
_cell_angle_beta     113.191
_cell_angle_gamma    113.277

_space_group_name_H-M_alt    "P 1"
_space_group_IT_number       1

loop_
  _space_group_symop_operation_xyz
  'x, y, z'

loop_
  _atom_site_type_symbol
  _atom_site_label
  _atom_site_symmetry_multiplicity
  _atom_site_fract_x
  _atom_site_fract_y
  _atom_site_fract_z
  _atom_site_occupancy
  Li  Li1       1.0  0.45300  0.25000  0.25000  1.0000
  Li  Li2       1.0  0.54700  0.75000  0.75000  1.0000
  O   O1        1.0  0.15900  0.81800  0.04990  1.0000
  O   O2        1.0  0.80200  0.76200  0.08220  1.0000
  O   O3        1.0  0.56500  0.22700  0.08550  1.0000
  O   O4        1.0  0.47400  0.63700  0.15000  1.0000
  O   O5        1.0  0.13900  0.07420  0.20000  1.0000
  O   O6        1.0  0.71200  0.96700  0.23200  1.0000
  O   O7        1.0  0.01300  0.53300  0.26800  1.0000
  O   O8        1.0  0.36500  0.42600  0.30000  1.0000
  O   O9        1.0  0.18600  0.86300  0.35000  1.0000
  O   O10       1.0  0.75300  0.27300  0.41400  1.0000
  O   O11       1.0  0.45800  0.73800  0.41800  1.0000
  O   O12       1.0  0.79100  0.68200  0.45000  1.0000
  O   O13       1.0  0.20900  0.31800  0.55000  1.0000
  O   O14       1.0  0.54200  0.26200  0.58200  1.0000
  O   O15       1.0  0.24700  0.72700  0.58600  1.0000
  O   O16       1.0  0.81400  0.13700  0.65000  1.0000
  O   O17       1.0  0.63500  0.57400  0.70000  1.0000
  O   O18       1.0  0.98700  0.46700  0.73200  1.0000
  O   O19       1.0  0.28800  0.03310  0.76800  1.0000
  O   O20       1.0  0.86100  0.92600  0.80000  1.0000
  O   O21       1.0  0.52600  0.36300  0.85000  1.0000
  O   O22       1.0  0.43500  0.77300  0.91400  1.0000
  O   O23       1.0  0.19800  0.23800  0.91800  1.0000
  O   O24       1.0  0.84100  0.18200  0.95000  1.0000
  P   P1        1.0  0.60100  0.79900  0.09650  1.0000
  P   P2        1.0  0.08090  0.88700  0.16300  1.0000
  P   P3        1.0  0.53200  0.61300  0.33700  1.0000
  P   P4        1.0  0.20500  0.70100  0.40400  1.0000
  P   P5        1.0  0.79500  0.29900  0.59600  1.0000
  P   P6        1.0  0.46800  0.38700  0.66300  1.0000
  P   P7        1.0  0.91900  0.11300  0.83700  1.0000
  P   P8        1.0  0.39900  0.20100  0.90400  1.0000
  Sm  Sm1       1.0  0.95300  0.25000  0.25000  1.0000
  Sm  Sm2       1.0  0.04700  0.75000  0.75000  1.0000
