data_image0
_chemical_formula_structural       Ce20Sn16
_chemical_formula_sum              "Ce20 Sn16"
_cell_length_a       8.42795
_cell_length_b       16.1847
_cell_length_c       8.58211
_cell_angle_alpha    90
_cell_angle_beta     90
_cell_angle_gamma    90

_space_group_name_H-M_alt    "P 1"
_space_group_IT_number       1

loop_
  _space_group_symop_operation_xyz
  'x, y, z'

loop_
  _atom_site_type_symbol
  _atom_site_label
  _atom_site_symmetry_multiplicity
  _atom_site_fract_x
  _atom_site_fract_y
  _atom_site_fract_z
  _atom_site_occupancy
  Ce  Ce1       1.0  0.30100  0.25000  0.00280  1.0000
  Ce  Ce2       1.0  0.63100  0.12000  0.16300  1.0000
  Ce  Ce3       1.0  0.63100  0.38000  0.16300  1.0000
  Ce  Ce4       1.0  0.01520  0.59900  0.18200  1.0000
  Ce  Ce5       1.0  0.01520  0.90100  0.18200  1.0000
  Ce  Ce6       1.0  0.51500  0.59900  0.31800  1.0000
  Ce  Ce7       1.0  0.51500  0.90100  0.31800  1.0000
  Ce  Ce8       1.0  0.13100  0.12000  0.33700  1.0000
  Ce  Ce9       1.0  0.13100  0.38000  0.33700  1.0000
  Ce  Ce10      1.0  0.80100  0.25000  0.49700  1.0000
  Ce  Ce11      1.0  0.19900  0.75000  0.50300  1.0000
  Ce  Ce12      1.0  0.86900  0.62000  0.66300  1.0000
  Ce  Ce13      1.0  0.86900  0.88000  0.66300  1.0000
  Ce  Ce14      1.0  0.48500  0.09910  0.68200  1.0000
  Ce  Ce15      1.0  0.48500  0.40100  0.68200  1.0000
  Ce  Ce16      1.0  0.98500  0.09910  0.81800  1.0000
  Ce  Ce17      1.0  0.98500  0.40100  0.81800  1.0000
  Ce  Ce18      1.0  0.36900  0.62000  0.83700  1.0000
  Ce  Ce19      1.0  0.36900  0.88000  0.83700  1.0000
  Ce  Ce20      1.0  0.69900  0.75000  0.99700  1.0000
  Sn  Sn1       1.0  0.29000  0.04180  0.03700  1.0000
  Sn  Sn2       1.0  0.29000  0.45800  0.03700  1.0000
  Sn  Sn3       1.0  0.93100  0.25000  0.11100  1.0000
  Sn  Sn4       1.0  0.31900  0.75000  0.14100  1.0000
  Sn  Sn5       1.0  0.81900  0.75000  0.35900  1.0000
  Sn  Sn6       1.0  0.43100  0.25000  0.38900  1.0000
  Sn  Sn7       1.0  0.79000  0.04180  0.46300  1.0000
  Sn  Sn8       1.0  0.79000  0.45800  0.46300  1.0000
  Sn  Sn9       1.0  0.21000  0.54200  0.53700  1.0000
  Sn  Sn10      1.0  0.21000  0.95800  0.53700  1.0000
  Sn  Sn11      1.0  0.56900  0.75000  0.61100  1.0000
  Sn  Sn12      1.0  0.18100  0.25000  0.64100  1.0000
  Sn  Sn13      1.0  0.68100  0.25000  0.85900  1.0000
  Sn  Sn14      1.0  0.06890  0.75000  0.88900  1.0000
  Sn  Sn15      1.0  0.71000  0.54200  0.96300  1.0000
  Sn  Sn16      1.0  0.71000  0.95800  0.96300  1.0000
