data_image0
_chemical_formula_structural       Br12C4Li4N8Sr8
_chemical_formula_sum              "Br12 C4 Li4 N8 Sr8"
_cell_length_a       10.3506
_cell_length_b       10.3506
_cell_length_c       10.3506
_cell_angle_alpha    120
_cell_angle_beta     90
_cell_angle_gamma    120

_space_group_name_H-M_alt    "P 1"
_space_group_IT_number       1

loop_
  _space_group_symop_operation_xyz
  'x, y, z'

loop_
  _atom_site_type_symbol
  _atom_site_label
  _atom_site_symmetry_multiplicity
  _atom_site_fract_x
  _atom_site_fract_y
  _atom_site_fract_z
  _atom_site_occupancy
  Br  Br1       1.0  0.92900  0.35900  0.17900  1.0000
  Br  Br2       1.0  0.32100  0.75000  0.17900  1.0000
  Br  Br3       1.0  0.92900  0.75000  0.17900  1.0000
  Br  Br4       1.0  0.07060  0.25000  0.42900  1.0000
  Br  Br5       1.0  0.67900  0.25000  0.42900  1.0000
  Br  Br6       1.0  0.67900  0.85900  0.42900  1.0000
  Br  Br7       1.0  0.32100  0.75000  0.57100  1.0000
  Br  Br8       1.0  0.92900  0.75000  0.57100  1.0000
  Br  Br9       1.0  0.32100  0.14100  0.57100  1.0000
  Br  Br10      1.0  0.07060  0.25000  0.82100  1.0000
  Br  Br11      1.0  0.07060  0.64100  0.82100  1.0000
  Br  Br12      1.0  0.67900  0.25000  0.82100  1.0000
  C   C1        1.0  0.00000  0.00000  0.00000  1.0000
  C   C2        1.0  0.50000  0.00000  0.00000  1.0000
  C   C3        1.0  0.50000  0.50000  0.00000  1.0000
  C   C4        1.0  0.50000  0.50000  0.50000  1.0000
  Li  Li1       1.0  0.00000  0.50000  0.00000  1.0000
  Li  Li2       1.0  0.00000  0.00000  0.50000  1.0000
  Li  Li3       1.0  0.00000  0.50000  0.50000  1.0000
  Li  Li4       1.0  0.50000  0.00000  0.50000  1.0000
  N   N1        1.0  0.14600  0.09730  0.04870  1.0000
  N   N2        1.0  0.45100  0.09730  0.04870  1.0000
  N   N3        1.0  0.45100  0.40300  0.04870  1.0000
  N   N4        1.0  0.45100  0.40300  0.35400  1.0000
  N   N5        1.0  0.54900  0.59700  0.64600  1.0000
  N   N6        1.0  0.54900  0.90300  0.95100  1.0000
  N   N7        1.0  0.54900  0.59700  0.95100  1.0000
  N   N8        1.0  0.85400  0.90300  0.95100  1.0000
  Sr  Sr1       1.0  0.72200  0.94400  0.16600  1.0000
  Sr  Sr2       1.0  0.27800  0.05590  0.22200  1.0000
  Sr  Sr3       1.0  0.27800  0.44400  0.22200  1.0000
  Sr  Sr4       1.0  0.66600  0.44400  0.22200  1.0000
  Sr  Sr5       1.0  0.33400  0.55600  0.77800  1.0000
  Sr  Sr6       1.0  0.72200  0.55600  0.77800  1.0000
  Sr  Sr7       1.0  0.72200  0.94400  0.77800  1.0000
  Sr  Sr8       1.0  0.27800  0.05590  0.83400  1.0000
