data_image0
_chemical_formula_structural       Eu2Li2O24P8
_chemical_formula_sum              "Eu2 Li2 O24 P8"
_cell_length_a       6.97599
_cell_length_b       8.88012
_cell_length_c       8.90119
_cell_angle_alpha    96.2997
_cell_angle_beta     113.07
_cell_angle_gamma    113.128

_space_group_name_H-M_alt    "P 1"
_space_group_IT_number       1

loop_
  _space_group_symop_operation_xyz
  'x, y, z'

loop_
  _atom_site_type_symbol
  _atom_site_label
  _atom_site_symmetry_multiplicity
  _atom_site_fract_x
  _atom_site_fract_y
  _atom_site_fract_z
  _atom_site_occupancy
  Eu  Eu1       1.0  0.95500  0.25000  0.25000  1.0000
  Eu  Eu2       1.0  0.04480  0.75000  0.75000  1.0000
  Li  Li1       1.0  0.45100  0.25000  0.25000  1.0000
  Li  Li2       1.0  0.54900  0.75000  0.75000  1.0000
  O   O1        1.0  0.16200  0.81100  0.05920  1.0000
  O   O2        1.0  0.55500  0.22000  0.08360  1.0000
  O   O3        1.0  0.80900  0.76300  0.09280  1.0000
  O   O4        1.0  0.46400  0.63000  0.14100  1.0000
  O   O5        1.0  0.14300  0.07280  0.19800  1.0000
  O   O6        1.0  0.70300  0.96100  0.23500  1.0000
  O   O7        1.0  0.00671  0.53900  0.26500  1.0000
  O   O8        1.0  0.37200  0.42700  0.30200  1.0000
  O   O9        1.0  0.19400  0.87000  0.35900  1.0000
  O   O10       1.0  0.45300  0.73700  0.40700  1.0000
  O   O11       1.0  0.75100  0.28000  0.41600  1.0000
  O   O12       1.0  0.79200  0.68900  0.44100  1.0000
  O   O13       1.0  0.20800  0.31100  0.55900  1.0000
  O   O14       1.0  0.24900  0.72000  0.58400  1.0000
  O   O15       1.0  0.54700  0.26300  0.59300  1.0000
  O   O16       1.0  0.80600  0.13000  0.64100  1.0000
  O   O17       1.0  0.62800  0.57300  0.69800  1.0000
  O   O18       1.0  0.99300  0.46100  0.73500  1.0000
  O   O19       1.0  0.29700  0.03870  0.76500  1.0000
  O   O20       1.0  0.85700  0.92700  0.80200  1.0000
  O   O21       1.0  0.53600  0.37000  0.85900  1.0000
  O   O22       1.0  0.19100  0.23700  0.90700  1.0000
  O   O23       1.0  0.44500  0.78000  0.91600  1.0000
  O   O24       1.0  0.83800  0.18900  0.94100  1.0000
  P   P1        1.0  0.60000  0.79600  0.09710  1.0000
  P   P2        1.0  0.08700  0.88800  0.16900  1.0000
  P   P3        1.0  0.53000  0.61200  0.33100  1.0000
  P   P4        1.0  0.20700  0.70400  0.40300  1.0000
  P   P5        1.0  0.79300  0.29600  0.59700  1.0000
  P   P6        1.0  0.47000  0.38800  0.66900  1.0000
  P   P7        1.0  0.91300  0.11200  0.83100  1.0000
  P   P8        1.0  0.40000  0.20400  0.90300  1.0000
