data_image0
_chemical_formula_structural       F4H4Na4O16P4Sn4
_chemical_formula_sum              "F4 H4 Na4 O16 P4 Sn4"
_cell_length_a       4.71652
_cell_length_b       5.15091
_cell_length_c       18.2942
_cell_angle_alpha    90
_cell_angle_beta     90
_cell_angle_gamma    90

_space_group_name_H-M_alt    "P 1"
_space_group_IT_number       1

loop_
  _space_group_symop_operation_xyz
  'x, y, z'

loop_
  _atom_site_type_symbol
  _atom_site_label
  _atom_site_symmetry_multiplicity
  _atom_site_fract_x
  _atom_site_fract_y
  _atom_site_fract_z
  _atom_site_occupancy
  F   F1        1.0  0.33800  0.25000  0.03470  1.0000
  F   F2        1.0  0.83800  0.25000  0.46500  1.0000
  F   F3        1.0  0.16200  0.75000  0.53500  1.0000
  F   F4        1.0  0.66200  0.75000  0.96500  1.0000
  H   H1        1.0  0.69300  0.75000  0.24900  1.0000
  H   H2        1.0  0.19300  0.75000  0.25100  1.0000
  H   H3        1.0  0.80700  0.25000  0.74900  1.0000
  H   H4        1.0  0.30700  0.25000  0.75100  1.0000
  Na  Na1       1.0  0.22100  0.75000  0.00856  1.0000
  Na  Na2       1.0  0.72100  0.75000  0.49100  1.0000
  Na  Na3       1.0  0.27900  0.25000  0.50900  1.0000
  Na  Na4       1.0  0.77900  0.25000  0.99100  1.0000
  O   O1        1.0  0.89900  0.50600  0.09710  1.0000
  O   O2        1.0  0.89900  0.99400  0.09710  1.0000
  O   O3        1.0  0.44400  0.75000  0.12800  1.0000
  O   O4        1.0  0.86200  0.75000  0.21600  1.0000
  O   O5        1.0  0.36200  0.75000  0.28400  1.0000
  O   O6        1.0  0.94400  0.75000  0.37200  1.0000
  O   O7        1.0  0.39900  0.50600  0.40300  1.0000
  O   O8        1.0  0.39900  0.99400  0.40300  1.0000
  O   O9        1.0  0.60100  0.00606  0.59700  1.0000
  O   O10       1.0  0.60100  0.49400  0.59700  1.0000
  O   O11       1.0  0.05650  0.25000  0.62800  1.0000
  O   O12       1.0  0.63800  0.25000  0.71600  1.0000
  O   O13       1.0  0.13800  0.25000  0.78400  1.0000
  O   O14       1.0  0.55600  0.25000  0.87200  1.0000
  O   O15       1.0  0.10100  0.00606  0.90300  1.0000
  O   O16       1.0  0.10100  0.49400  0.90300  1.0000
  P   P1        1.0  0.76500  0.75000  0.13100  1.0000
  P   P2        1.0  0.26500  0.75000  0.36900  1.0000
  P   P3        1.0  0.73500  0.25000  0.63100  1.0000
  P   P4        1.0  0.23500  0.25000  0.86900  1.0000
  Sn  Sn1       1.0  0.22700  0.25000  0.14400  1.0000
  Sn  Sn2       1.0  0.72700  0.25000  0.35600  1.0000
  Sn  Sn3       1.0  0.27300  0.75000  0.64400  1.0000
  Sn  Sn4       1.0  0.77300  0.75000  0.85600  1.0000
