data_image0
_chemical_formula_structural       K4O24U4V4
_chemical_formula_sum              "K4 O24 U4 V4"
_cell_length_a       6.63868
_cell_length_b       9.60294
_cell_length_c       9.53654
_cell_angle_alpha    89.995
_cell_angle_beta     105.868
_cell_angle_gamma    90.0068

_space_group_name_H-M_alt    "P 1"
_space_group_IT_number       1

loop_
  _space_group_symop_operation_xyz
  'x, y, z'

loop_
  _atom_site_type_symbol
  _atom_site_label
  _atom_site_symmetry_multiplicity
  _atom_site_fract_x
  _atom_site_fract_y
  _atom_site_fract_z
  _atom_site_occupancy
  K   K1        1.0  0.42000  0.73300  0.16100  1.0000
  K   K2        1.0  0.58000  0.23300  0.33900  1.0000
  K   K3        1.0  0.42000  0.76700  0.66100  1.0000
  K   K4        1.0  0.58000  0.26700  0.83900  1.0000
  O   O1        1.0  0.38000  0.36900  0.01980  1.0000
  O   O2        1.0  0.13900  0.94700  0.11900  1.0000
  O   O3        1.0  0.59500  0.07340  0.12200  1.0000
  O   O4        1.0  0.99500  0.24100  0.12200  1.0000
  O   O5        1.0  0.07020  0.56100  0.12400  1.0000
  O   O6        1.0  0.17000  0.29300  0.24300  1.0000
  O   O7        1.0  0.83000  0.79300  0.25700  1.0000
  O   O8        1.0  0.93000  0.06090  0.37600  1.0000
  O   O9        1.0  0.00483  0.74100  0.37800  1.0000
  O   O10       1.0  0.40500  0.57300  0.37800  1.0000
  O   O11       1.0  0.86100  0.44700  0.38100  1.0000
  O   O12       1.0  0.62100  0.86900  0.48000  1.0000
  O   O13       1.0  0.37900  0.13100  0.52000  1.0000
  O   O14       1.0  0.13900  0.55300  0.61900  1.0000
  O   O15       1.0  0.59500  0.42700  0.62200  1.0000
  O   O16       1.0  0.99500  0.25900  0.62200  1.0000
  O   O17       1.0  0.07020  0.93900  0.62400  1.0000
  O   O18       1.0  0.17000  0.20700  0.74300  1.0000
  O   O19       1.0  0.83000  0.70700  0.75700  1.0000
  O   O20       1.0  0.93000  0.43900  0.87600  1.0000
  O   O21       1.0  0.00481  0.75900  0.87800  1.0000
  O   O22       1.0  0.40500  0.92700  0.87800  1.0000
  O   O23       1.0  0.86100  0.05280  0.88100  1.0000
  O   O24       1.0  0.62000  0.63100  0.98000  1.0000
  U   U1        1.0  0.86300  0.00858  0.12800  1.0000
  U   U2        1.0  0.13700  0.50900  0.37200  1.0000
  U   U3        1.0  0.86300  0.49100  0.62800  1.0000
  U   U4        1.0  0.13700  0.99100  0.87200  1.0000
  V   V1        1.0  0.14800  0.38700  0.05060  1.0000
  V   V2        1.0  0.85200  0.88700  0.44900  1.0000
  V   V3        1.0  0.14800  0.11300  0.55100  1.0000
  V   V4        1.0  0.85200  0.61300  0.94900  1.0000
