data_image0
_chemical_formula_structural       Ba12P16Sn8
_chemical_formula_sum              "Ba12 P16 Sn8"
_cell_length_a       7.96967
_cell_length_b       19.5171
_cell_length_c       7.95687
_cell_angle_alpha    90
_cell_angle_beta     112.865
_cell_angle_gamma    90

_space_group_name_H-M_alt    "P 1"
_space_group_IT_number       1

loop_
  _space_group_symop_operation_xyz
  'x, y, z'

loop_
  _atom_site_type_symbol
  _atom_site_label
  _atom_site_symmetry_multiplicity
  _atom_site_fract_x
  _atom_site_fract_y
  _atom_site_fract_z
  _atom_site_occupancy
  Ba  Ba1       1.0  0.76700  0.06250  0.45100  1.0000
  Ba  Ba2       1.0  0.23300  0.56200  0.04910  1.0000
  Ba  Ba3       1.0  0.23300  0.93800  0.54900  1.0000
  Ba  Ba4       1.0  0.76700  0.43800  0.95100  1.0000
  Ba  Ba5       1.0  0.81700  0.19500  0.94600  1.0000
  Ba  Ba6       1.0  0.18300  0.69500  0.55400  1.0000
  Ba  Ba7       1.0  0.18300  0.80500  0.05420  1.0000
  Ba  Ba8       1.0  0.81700  0.30500  0.44600  1.0000
  Ba  Ba9       1.0  0.29700  0.18800  0.42900  1.0000
  Ba  Ba10      1.0  0.70300  0.68800  0.07150  1.0000
  Ba  Ba11      1.0  0.70300  0.81200  0.57100  1.0000
  Ba  Ba12      1.0  0.29700  0.31200  0.92900  1.0000
  P   P1        1.0  0.53100  0.07160  0.71800  1.0000
  P   P2        1.0  0.46900  0.57200  0.78200  1.0000
  P   P3        1.0  0.46900  0.92800  0.28200  1.0000
  P   P4        1.0  0.53100  0.42800  0.21800  1.0000
  P   P5        1.0  0.06770  0.18000  0.69500  1.0000
  P   P6        1.0  0.93200  0.68000  0.80500  1.0000
  P   P7        1.0  0.93200  0.82000  0.30500  1.0000
  P   P8        1.0  0.06770  0.32000  0.19500  1.0000
  P   P9        1.0  0.02740  0.05660  0.21200  1.0000
  P   P10       1.0  0.97300  0.55700  0.28800  1.0000
  P   P11       1.0  0.97300  0.94300  0.78800  1.0000
  P   P12       1.0  0.02740  0.44300  0.71200  1.0000
  P   P13       1.0  0.55700  0.19000  0.18100  1.0000
  P   P14       1.0  0.44300  0.69000  0.31900  1.0000
  P   P15       1.0  0.44300  0.81000  0.81900  1.0000
  P   P16       1.0  0.55700  0.31000  0.68100  1.0000
  Sn  Sn1       1.0  0.22700  0.00576  0.05360  1.0000
  Sn  Sn2       1.0  0.77300  0.50600  0.44600  1.0000
  Sn  Sn3       1.0  0.77300  0.99400  0.94600  1.0000
  Sn  Sn4       1.0  0.22700  0.49400  0.55400  1.0000
  Sn  Sn5       1.0  0.35200  0.12100  0.90900  1.0000
  Sn  Sn6       1.0  0.64800  0.62100  0.59100  1.0000
  Sn  Sn7       1.0  0.64800  0.87900  0.09060  1.0000
  Sn  Sn8       1.0  0.35200  0.37900  0.40900  1.0000
