data_image0
_chemical_formula_structural       Cd2O5Ti2
_chemical_formula_sum              "Cd2 O5 Ti2"
_cell_length_a       5.28534
_cell_length_b       5.22735
_cell_length_c       5.79368
_cell_angle_alpha    63.5737
_cell_angle_beta     65.8309
_cell_angle_gamma    61.5484

_space_group_name_H-M_alt    "P 1"
_space_group_IT_number       1

loop_
  _space_group_symop_operation_xyz
  'x, y, z'

loop_
  _atom_site_type_symbol
  _atom_site_label
  _atom_site_symmetry_multiplicity
  _atom_site_fract_x
  _atom_site_fract_y
  _atom_site_fract_z
  _atom_site_occupancy
  Cd  Cd1       1.0  0.60600  0.53400  0.16300  1.0000
  Cd  Cd2       1.0  0.38700  0.36300  0.92600  1.0000
  O   O1        1.0  0.17700  0.98500  0.26800  1.0000
  O   O2        1.0  0.92900  0.58500  0.28000  1.0000
  O   O3        1.0  0.45900  0.85900  0.64700  1.0000
  O   O4        1.0  0.07310  0.44400  0.70800  1.0000
  O   O5        1.0  0.80900  0.04840  0.72100  1.0000
  Ti  Ti1       1.0  0.87000  0.81600  0.48400  1.0000
  Ti  Ti2       1.0  0.12800  0.17000  0.52500  1.0000
