data_image0
_chemical_formula_structural       Li4Nb4O24U4
_chemical_formula_sum              "Li4 Nb4 O24 U4"
_cell_length_a       10.1827
_cell_length_b       6.4663
_cell_length_c       7.58518
_cell_angle_alpha    90
_cell_angle_beta     100.766
_cell_angle_gamma    90

_space_group_name_H-M_alt    "P 1"
_space_group_IT_number       1

loop_
  _space_group_symop_operation_xyz
  'x, y, z'

loop_
  _atom_site_type_symbol
  _atom_site_label
  _atom_site_symmetry_multiplicity
  _atom_site_fract_x
  _atom_site_fract_y
  _atom_site_fract_z
  _atom_site_occupancy
  Li  Li1       1.0  0.99500  0.00559  0.18300  1.0000
  Li  Li2       1.0  0.00545  0.50600  0.31700  1.0000
  Li  Li3       1.0  0.99500  0.49400  0.68300  1.0000
  Li  Li4       1.0  0.00545  0.99400  0.81700  1.0000
  Nb  Nb1       1.0  0.72900  0.75000  0.18100  1.0000
  Nb  Nb2       1.0  0.27100  0.25000  0.31900  1.0000
  Nb  Nb3       1.0  0.72900  0.75000  0.68100  1.0000
  Nb  Nb4       1.0  0.27100  0.25000  0.81900  1.0000
  O   O1        1.0  0.12300  0.83500  0.03400  1.0000
  O   O2        1.0  0.31000  0.17500  0.07910  1.0000
  O   O3        1.0  0.48700  0.78200  0.12400  1.0000
  O   O4        1.0  0.69800  0.45300  0.13100  1.0000
  O   O5        1.0  0.70600  0.05180  0.21500  1.0000
  O   O6        1.0  0.91000  0.74900  0.22600  1.0000
  O   O7        1.0  0.09010  0.24900  0.27400  1.0000
  O   O8        1.0  0.29400  0.55200  0.28500  1.0000
  O   O9        1.0  0.30200  0.95300  0.36900  1.0000
  O   O10       1.0  0.51300  0.28200  0.37600  1.0000
  O   O11       1.0  0.69000  0.67500  0.42100  1.0000
  O   O12       1.0  0.87700  0.33500  0.46600  1.0000
  O   O13       1.0  0.12300  0.66500  0.53400  1.0000
  O   O14       1.0  0.31000  0.32500  0.57900  1.0000
  O   O15       1.0  0.48700  0.71800  0.62400  1.0000
  O   O16       1.0  0.69800  0.04730  0.63100  1.0000
  O   O17       1.0  0.70600  0.44800  0.71500  1.0000
  O   O18       1.0  0.91000  0.75100  0.72600  1.0000
  O   O19       1.0  0.09010  0.25100  0.77400  1.0000
  O   O20       1.0  0.29400  0.94800  0.78500  1.0000
  O   O21       1.0  0.30200  0.54700  0.86900  1.0000
  O   O22       1.0  0.51300  0.21800  0.87600  1.0000
  O   O23       1.0  0.69000  0.82500  0.92100  1.0000
  O   O24       1.0  0.87700  0.16500  0.96600  1.0000
  U   U1        1.0  0.30600  0.80400  0.07910  1.0000
  U   U2        1.0  0.69400  0.30400  0.42100  1.0000
  U   U3        1.0  0.30600  0.69600  0.57900  1.0000
  U   U4        1.0  0.69400  0.19600  0.92100  1.0000
