data_image0
_chemical_formula_structural       Ho2Li2O24P8
_chemical_formula_sum              "Ho2 Li2 O24 P8"
_cell_length_a       6.95856
_cell_length_b       8.78537
_cell_length_c       8.76891
_cell_angle_alpha    96.2317
_cell_angle_beta     113.377
_cell_angle_gamma    113.33

_space_group_name_H-M_alt    "P 1"
_space_group_IT_number       1

loop_
  _space_group_symop_operation_xyz
  'x, y, z'

loop_
  _atom_site_type_symbol
  _atom_site_label
  _atom_site_symmetry_multiplicity
  _atom_site_fract_x
  _atom_site_fract_y
  _atom_site_fract_z
  _atom_site_occupancy
  Ho  Ho1       1.0  0.95500  0.25000  0.25000  1.0000
  Ho  Ho2       1.0  0.04470  0.75000  0.75000  1.0000
  Li  Li1       1.0  0.45600  0.25000  0.25000  1.0000
  Li  Li2       1.0  0.54400  0.75000  0.75000  1.0000
  O   O1        1.0  0.28100  0.76500  0.02540  1.0000
  O   O2        1.0  0.13800  0.20100  0.07550  1.0000
  O   O3        1.0  0.82200  0.65300  0.14200  1.0000
  O   O4        1.0  0.84800  0.95600  0.18400  1.0000
  O   O5        1.0  0.57300  0.08620  0.22200  1.0000
  O   O6        1.0  0.20700  0.92400  0.23900  1.0000
  O   O7        1.0  0.54300  0.57600  0.26100  1.0000
  O   O8        1.0  0.76400  0.41400  0.27800  1.0000
  O   O9        1.0  0.20800  0.54400  0.31600  1.0000
  O   O10       1.0  0.52800  0.84700  0.35800  1.0000
  O   O11       1.0  0.36200  0.29900  0.42400  1.0000
  O   O12       1.0  0.99100  0.73500  0.47500  1.0000
  O   O13       1.0  0.00912  0.26500  0.52500  1.0000
  O   O14       1.0  0.63800  0.70100  0.57600  1.0000
  O   O15       1.0  0.47200  0.15300  0.64200  1.0000
  O   O16       1.0  0.79200  0.45600  0.68400  1.0000
  O   O17       1.0  0.23600  0.58600  0.72200  1.0000
  O   O18       1.0  0.45700  0.42400  0.73900  1.0000
  O   O19       1.0  0.79300  0.07560  0.76100  1.0000
  O   O20       1.0  0.42700  0.91400  0.77800  1.0000
  O   O21       1.0  0.15200  0.04410  0.81600  1.0000
  O   O22       1.0  0.17800  0.34700  0.85800  1.0000
  O   O23       1.0  0.86200  0.79900  0.92400  1.0000
  O   O24       1.0  0.71900  0.23500  0.97500  1.0000
  P   P1        1.0  0.92500  0.84100  0.11500  1.0000
  P   P2        1.0  0.40200  0.90300  0.19600  1.0000
  P   P3        1.0  0.80200  0.59700  0.30400  1.0000
  P   P4        1.0  0.46900  0.65900  0.38500  1.0000
  P   P5        1.0  0.53100  0.34100  0.61500  1.0000
  P   P6        1.0  0.19800  0.40300  0.69600  1.0000
  P   P7        1.0  0.59800  0.09650  0.80400  1.0000
  P   P8        1.0  0.07480  0.15900  0.88500  1.0000
