data_image0
_chemical_formula_structural       FeLi2MnO6
_chemical_formula_sum              "Fe1 Li2 Mn1 O6"
_cell_length_a       4.9218
_cell_length_b       4.9218
_cell_length_c       4.88413
_cell_angle_alpha    97.8711
_cell_angle_beta     97.8711
_cell_angle_gamma    122.249

_space_group_name_H-M_alt    "P 1"
_space_group_IT_number       1

loop_
  _space_group_symop_operation_xyz
  'x, y, z'

loop_
  _atom_site_type_symbol
  _atom_site_label
  _atom_site_symmetry_multiplicity
  _atom_site_fract_x
  _atom_site_fract_y
  _atom_site_fract_z
  _atom_site_occupancy
  Fe  Fe1       1.0  0.83700  0.16300  0.00000  1.0000
  Li  Li1       1.0  0.64900  0.35100  0.50000  1.0000
  Li  Li2       1.0  0.35400  0.64600  0.50000  1.0000
  Mn  Mn1       1.0  0.15900  0.84100  0.00000  1.0000
  O   O1        1.0  0.20800  0.21300  0.22400  1.0000
  O   O2        1.0  0.56100  0.94200  0.22700  1.0000
  O   O3        1.0  0.93700  0.55500  0.22900  1.0000
  O   O4        1.0  0.44500  0.06280  0.77100  1.0000
  O   O5        1.0  0.05790  0.43900  0.77300  1.0000
  O   O6        1.0  0.78700  0.79200  0.77600  1.0000
