data_image0
_chemical_formula_structural       Ag4I20Tl12
_chemical_formula_sum              "Ag4 I20 Tl12"
_cell_length_a       10.6491
_cell_length_b       10.6491
_cell_length_c       13.4524
_cell_angle_alpha    90
_cell_angle_beta     90
_cell_angle_gamma    120

_space_group_name_H-M_alt    "P 1"
_space_group_IT_number       1

loop_
  _space_group_symop_operation_xyz
  'x, y, z'

loop_
  _atom_site_type_symbol
  _atom_site_label
  _atom_site_symmetry_multiplicity
  _atom_site_fract_x
  _atom_site_fract_y
  _atom_site_fract_z
  _atom_site_occupancy
  Ag  Ag1       1.0  0.00000  0.00000  0.12000  1.0000
  Ag  Ag2       1.0  0.00000  0.00000  0.38000  1.0000
  Ag  Ag3       1.0  0.00000  0.00000  0.62000  1.0000
  Ag  Ag4       1.0  0.00000  0.00000  0.88000  1.0000
  I   I1        1.0  0.75200  0.00000  0.00000  1.0000
  I   I2        1.0  0.24800  0.24800  0.00000  1.0000
  I   I3        1.0  0.00000  0.75200  0.00000  1.0000
  I   I4        1.0  0.33300  0.66700  0.10300  1.0000
  I   I5        1.0  0.66700  0.33300  0.14200  1.0000
  I   I6        1.0  0.24600  0.00635  0.25000  1.0000
  I   I7        1.0  0.99400  0.24000  0.25000  1.0000
  I   I8        1.0  0.76000  0.75400  0.25000  1.0000
  I   I9        1.0  0.66700  0.33300  0.35800  1.0000
  I   I10       1.0  0.33300  0.66700  0.39700  1.0000
  I   I11       1.0  0.00000  0.75200  0.50000  1.0000
  I   I12       1.0  0.75200  0.00000  0.50000  1.0000
  I   I13       1.0  0.24800  0.24800  0.50000  1.0000
  I   I14       1.0  0.66700  0.33300  0.60300  1.0000
  I   I15       1.0  0.33300  0.66700  0.64200  1.0000
  I   I16       1.0  0.00635  0.24600  0.75000  1.0000
  I   I17       1.0  0.75400  0.76000  0.75000  1.0000
  I   I18       1.0  0.24000  0.99400  0.75000  1.0000
  I   I19       1.0  0.33300  0.66700  0.85800  1.0000
  I   I20       1.0  0.66700  0.33300  0.89700  1.0000
  Tl  Tl1       1.0  0.36700  0.00000  0.00000  1.0000
  Tl  Tl2       1.0  0.00000  0.36700  0.00000  1.0000
  Tl  Tl3       1.0  0.63300  0.63300  0.00000  1.0000
  Tl  Tl4       1.0  0.35600  0.38800  0.25000  1.0000
  Tl  Tl5       1.0  0.03200  0.64400  0.25000  1.0000
  Tl  Tl6       1.0  0.61200  0.96800  0.25000  1.0000
  Tl  Tl7       1.0  0.36700  0.00000  0.50000  1.0000
  Tl  Tl8       1.0  0.00000  0.36700  0.50000  1.0000
  Tl  Tl9       1.0  0.63300  0.63300  0.50000  1.0000
  Tl  Tl10      1.0  0.64400  0.03200  0.75000  1.0000
  Tl  Tl11      1.0  0.38800  0.35600  0.75000  1.0000
  Tl  Tl12      1.0  0.96800  0.61200  0.75000  1.0000
