data_image0
_chemical_formula_structural       Cs2Nd2O24P8
_chemical_formula_sum              "Cs2 Nd2 O24 P8"
_cell_length_a       7.08653
_cell_length_b       9.10651
_cell_length_c       8.68465
_cell_angle_alpha    90
_cell_angle_beta     99.5512
_cell_angle_gamma    90

_space_group_name_H-M_alt    "P 1"
_space_group_IT_number       1

loop_
  _space_group_symop_operation_xyz
  'x, y, z'

loop_
  _atom_site_type_symbol
  _atom_site_label
  _atom_site_symmetry_multiplicity
  _atom_site_fract_x
  _atom_site_fract_y
  _atom_site_fract_z
  _atom_site_occupancy
  Cs  Cs1       1.0  0.16400  0.16800  0.16900  1.0000
  Cs  Cs2       1.0  0.83600  0.66800  0.83100  1.0000
  Nd  Nd1       1.0  0.69900  0.50900  0.30700  1.0000
  Nd  Nd2       1.0  0.30100  0.00886  0.69300  1.0000
  O   O1        1.0  0.58000  0.66800  0.08770  1.0000
  O   O2        1.0  0.63600  0.34100  0.09610  1.0000
  O   O3        1.0  0.22100  0.70400  0.10100  1.0000
  O   O4        1.0  0.98200  0.53300  0.17600  1.0000
  O   O5        1.0  0.45400  0.90700  0.18500  1.0000
  O   O6        1.0  0.34200  0.46400  0.23500  1.0000
  O   O7        1.0  0.70200  0.04200  0.34800  1.0000
  O   O8        1.0  0.86400  0.28200  0.37200  1.0000
  O   O9        1.0  0.21800  0.67000  0.38500  1.0000
  O   O10       1.0  0.66800  0.76500  0.40300  1.0000
  O   O11       1.0  0.41900  0.95700  0.46200  1.0000
  O   O12       1.0  0.04140  0.05190  0.48400  1.0000
  O   O13       1.0  0.95900  0.55200  0.51600  1.0000
  O   O14       1.0  0.58100  0.45700  0.53800  1.0000
  O   O15       1.0  0.33200  0.26500  0.59700  1.0000
  O   O16       1.0  0.78200  0.17000  0.61500  1.0000
  O   O17       1.0  0.13600  0.78200  0.62800  1.0000
  O   O18       1.0  0.29800  0.54200  0.65200  1.0000
  O   O19       1.0  0.65800  0.96400  0.76500  1.0000
  O   O20       1.0  0.54600  0.40700  0.81500  1.0000
  O   O21       1.0  0.01800  0.03300  0.82400  1.0000
  O   O22       1.0  0.77900  0.20400  0.89900  1.0000
  O   O23       1.0  0.36400  0.84100  0.90400  1.0000
  O   O24       1.0  0.42000  0.16800  0.91200  1.0000
  P   P1        1.0  0.41800  0.77500  0.06030  1.0000
  P   P2        1.0  0.18700  0.57700  0.22300  1.0000
  P   P3        1.0  0.56200  0.90600  0.36500  1.0000
  P   P4        1.0  0.86100  0.14000  0.45500  1.0000
  P   P5        1.0  0.13900  0.64000  0.54500  1.0000
  P   P6        1.0  0.43800  0.40600  0.63500  1.0000
  P   P7        1.0  0.81300  0.07740  0.77700  1.0000
  P   P8        1.0  0.58200  0.27500  0.94000  1.0000
