data_image0
_chemical_formula_structural       BiLiMnO6
_chemical_formula_sum              "Bi1 Li1 Mn1 O6"
_cell_length_a       5.39263
_cell_length_b       5.39263
_cell_length_c       5.28592
_cell_angle_alpha    104.178
_cell_angle_beta     104.178
_cell_angle_gamma    120.106

_space_group_name_H-M_alt    "P 1"
_space_group_IT_number       1

loop_
  _space_group_symop_operation_xyz
  'x, y, z'

loop_
  _atom_site_type_symbol
  _atom_site_label
  _atom_site_symmetry_multiplicity
  _atom_site_fract_x
  _atom_site_fract_y
  _atom_site_fract_z
  _atom_site_occupancy
  Bi  Bi1       1.0  0.16800  0.83200  0.00000  1.0000
  Li  Li1       1.0  0.98600  0.01350  0.50000  1.0000
  Mn  Mn1       1.0  0.83500  0.16500  0.00000  1.0000
  O   O1        1.0  0.63500  0.96500  0.22100  1.0000
  O   O2        1.0  0.94000  0.57400  0.23400  1.0000
  O   O3        1.0  0.19900  0.23000  0.26500  1.0000
  O   O4        1.0  0.77000  0.80100  0.73500  1.0000
  O   O5        1.0  0.42600  0.05990  0.76600  1.0000
  O   O6        1.0  0.03460  0.36500  0.77900  1.0000
