data_image0
_chemical_formula_structural       Al4B8Li4O20
_chemical_formula_sum              "Al4 B8 Li4 O20"
_cell_length_a       6.99259
_cell_length_b       6.99259
_cell_length_c       9.3059
_cell_angle_alpha    110.239
_cell_angle_beta     110.239
_cell_angle_gamma    91.1749

_space_group_name_H-M_alt    "P 1"
_space_group_IT_number       1

loop_
  _space_group_symop_operation_xyz
  'x, y, z'

loop_
  _atom_site_type_symbol
  _atom_site_label
  _atom_site_symmetry_multiplicity
  _atom_site_fract_x
  _atom_site_fract_y
  _atom_site_fract_z
  _atom_site_occupancy
  Al  Al1       1.0  0.04450  0.35100  0.15300  1.0000
  Al  Al2       1.0  0.64900  0.95600  0.34700  1.0000
  Al  Al3       1.0  0.35100  0.04450  0.65300  1.0000
  Al  Al4       1.0  0.95600  0.64900  0.84700  1.0000
  B   B1        1.0  0.39700  0.73700  0.02510  1.0000
  B   B2        1.0  0.77900  0.76000  0.09550  1.0000
  B   B3        1.0  0.24000  0.22100  0.40400  1.0000
  B   B4        1.0  0.26300  0.60300  0.47500  1.0000
  B   B5        1.0  0.73700  0.39700  0.52500  1.0000
  B   B6        1.0  0.76000  0.77900  0.59600  1.0000
  B   B7        1.0  0.22100  0.24000  0.90400  1.0000
  B   B8        1.0  0.60300  0.26300  0.97500  1.0000
  Li  Li1       1.0  0.61400  0.38600  0.25000  1.0000
  Li  Li2       1.0  0.16300  0.83700  0.25000  1.0000
  Li  Li3       1.0  0.83700  0.16300  0.75000  1.0000
  Li  Li4       1.0  0.38600  0.61400  0.75000  1.0000
  O   O1        1.0  0.42700  0.28400  0.01780  1.0000
  O   O2        1.0  0.92800  0.70000  0.03430  1.0000
  O   O3        1.0  0.78000  0.33700  0.11300  1.0000
  O   O4        1.0  0.41100  0.82000  0.18400  1.0000
  O   O5        1.0  0.14300  0.17000  0.24000  1.0000
  O   O6        1.0  0.83000  0.85700  0.26000  1.0000
  O   O7        1.0  0.18000  0.58900  0.31600  1.0000
  O   O8        1.0  0.66300  0.22000  0.38700  1.0000
  O   O9        1.0  0.30000  0.07230  0.46600  1.0000
  O   O10       1.0  0.71600  0.57300  0.48200  1.0000
  O   O11       1.0  0.28400  0.42700  0.51800  1.0000
  O   O12       1.0  0.70000  0.92800  0.53400  1.0000
  O   O13       1.0  0.33700  0.78000  0.61300  1.0000
  O   O14       1.0  0.82000  0.41100  0.68400  1.0000
  O   O15       1.0  0.17000  0.14300  0.74000  1.0000
  O   O16       1.0  0.85700  0.83000  0.76000  1.0000
  O   O17       1.0  0.58900  0.18000  0.81600  1.0000
  O   O18       1.0  0.22000  0.66300  0.88700  1.0000
  O   O19       1.0  0.07230  0.30000  0.96600  1.0000
  O   O20       1.0  0.57300  0.71600  0.98200  1.0000
