data_image0
_chemical_formula_structural       F4H6K6O16S4
_chemical_formula_sum              "F4 H6 K6 O16 S4"
_cell_length_a       6.10737
_cell_length_b       8.02069
_cell_length_c       10.7226
_cell_angle_alpha    104.647
_cell_angle_beta     106.546
_cell_angle_gamma    90

_space_group_name_H-M_alt    "P 1"
_space_group_IT_number       1

loop_
  _space_group_symop_operation_xyz
  'x, y, z'

loop_
  _atom_site_type_symbol
  _atom_site_label
  _atom_site_symmetry_multiplicity
  _atom_site_fract_x
  _atom_site_fract_y
  _atom_site_fract_z
  _atom_site_occupancy
  F   F1        1.0  0.35900  0.28600  0.07150  1.0000
  F   F2        1.0  0.78000  0.19100  0.07580  1.0000
  F   F3        1.0  0.70400  0.80900  0.92400  1.0000
  F   F4        1.0  0.28700  0.71400  0.92800  1.0000
  H   H1        1.0  0.67500  0.75700  0.00229  1.0000
  H   H2        1.0  0.68900  0.08720  0.14500  1.0000
  H   H3        1.0  0.24400  0.07230  0.31600  1.0000
  H   H4        1.0  0.92800  0.92800  0.68400  1.0000
  H   H5        1.0  0.54400  0.91300  0.85500  1.0000
  H   H6        1.0  0.67300  0.24300  0.99800  1.0000
  K   K1        1.0  0.15200  0.00000  0.00000  1.0000
  K   K2        1.0  0.08820  0.50000  0.00000  1.0000
  K   K3        1.0  0.64400  0.49800  0.25200  1.0000
  K   K4        1.0  0.76400  0.18100  0.49500  1.0000
  K   K5        1.0  0.26900  0.81900  0.50500  1.0000
  K   K6        1.0  0.39100  0.50200  0.74800  1.0000
  O   O1        1.0  0.71500  0.71000  0.11400  1.0000
  O   O2        1.0  0.64700  0.01200  0.20100  1.0000
  O   O3        1.0  0.04000  0.92200  0.21800  1.0000
  O   O4        1.0  0.21800  0.59700  0.28400  1.0000
  O   O5        1.0  0.81400  0.84400  0.35500  1.0000
  O   O6        1.0  0.33300  0.18700  0.36200  1.0000
  O   O7        1.0  0.98100  0.33500  0.36900  1.0000
  O   O8        1.0  0.34000  0.48500  0.37200  1.0000
  O   O9        1.0  0.96800  0.51500  0.62800  1.0000
  O   O10       1.0  0.61200  0.66500  0.63100  1.0000
  O   O11       1.0  0.97100  0.81300  0.63800  1.0000
  O   O12       1.0  0.45900  0.15600  0.64500  1.0000
  O   O13       1.0  0.93500  0.40300  0.71600  1.0000
  O   O14       1.0  0.82200  0.07750  0.78200  1.0000
  O   O15       1.0  0.44600  0.98800  0.79900  1.0000
  O   O16       1.0  0.60100  0.29000  0.88600  1.0000
  S   S1        1.0  0.81600  0.86900  0.22500  1.0000
  S   S2        1.0  0.15500  0.32000  0.29600  1.0000
  S   S3        1.0  0.85900  0.68000  0.70400  1.0000
  S   S4        1.0  0.59100  0.13100  0.77500  1.0000
