data_image0
_chemical_formula_structural       Li2MnNpO6
_chemical_formula_sum              "Li2 Mn1 Np1 O6"
_cell_length_a       5.32542
_cell_length_b       5.32542
_cell_length_c       5.07133
_cell_angle_alpha    98.907
_cell_angle_beta     98.907
_cell_angle_gamma    120.966

_space_group_name_H-M_alt    "P 1"
_space_group_IT_number       1

loop_
  _space_group_symop_operation_xyz
  'x, y, z'

loop_
  _atom_site_type_symbol
  _atom_site_label
  _atom_site_symmetry_multiplicity
  _atom_site_fract_x
  _atom_site_fract_y
  _atom_site_fract_z
  _atom_site_occupancy
  Li  Li1       1.0  0.50100  0.49900  0.00000  1.0000
  Li  Li2       1.0  0.95700  0.04320  0.50000  1.0000
  Mn  Mn1       1.0  0.83900  0.16100  0.00000  1.0000
  Np  Np1       1.0  0.17300  0.82700  0.00000  1.0000
  O   O1        1.0  0.91200  0.55400  0.20800  1.0000
  O   O2        1.0  0.59800  0.92000  0.21400  1.0000
  O   O3        1.0  0.19200  0.21400  0.22400  1.0000
  O   O4        1.0  0.78600  0.80800  0.77600  1.0000
  O   O5        1.0  0.07980  0.40200  0.78600  1.0000
  O   O6        1.0  0.44600  0.08830  0.79200  1.0000
