data_image0
_chemical_formula_structural       H12Li4N4O12P4
_chemical_formula_sum              "H12 Li4 N4 O12 P4"
_cell_length_a       4.77067
_cell_length_b       8.35969
_cell_length_c       8.59909
_cell_angle_alpha    102.067
_cell_angle_beta     102.684
_cell_angle_gamma    93.9232

_space_group_name_H-M_alt    "P 1"
_space_group_IT_number       1

loop_
  _space_group_symop_operation_xyz
  'x, y, z'

loop_
  _atom_site_type_symbol
  _atom_site_label
  _atom_site_symmetry_multiplicity
  _atom_site_fract_x
  _atom_site_fract_y
  _atom_site_fract_z
  _atom_site_occupancy
  H   H1        1.0  0.15800  0.61100  0.15400  1.0000
  H   H2        1.0  0.97200  0.44400  0.16000  1.0000
  H   H3        1.0  0.47100  0.40300  0.16100  1.0000
  H   H4        1.0  0.68500  0.31300  0.27400  1.0000
  H   H5        1.0  0.57700  0.82600  0.28600  1.0000
  H   H6        1.0  0.41000  0.10100  0.35300  1.0000
  H   H7        1.0  0.59000  0.89900  0.64700  1.0000
  H   H8        1.0  0.42300  0.17400  0.71400  1.0000
  H   H9        1.0  0.31500  0.68700  0.72600  1.0000
  H   H10       1.0  0.52900  0.59700  0.83900  1.0000
  H   H11       1.0  0.02830  0.55600  0.84000  1.0000
  H   H12       1.0  0.84200  0.38900  0.84600  1.0000
  Li  Li1       1.0  0.63100  0.14300  0.00639  1.0000
  Li  Li2       1.0  0.30800  0.56800  0.41800  1.0000
  Li  Li3       1.0  0.69200  0.43200  0.58200  1.0000
  Li  Li4       1.0  0.36900  0.85700  0.99400  1.0000
  N   N1        1.0  0.79900  0.83400  0.33200  1.0000
  N   N2        1.0  0.19100  0.09040  0.34600  1.0000
  N   N3        1.0  0.80900  0.91000  0.65400  1.0000
  N   N4        1.0  0.20100  0.16600  0.66800  1.0000
  O   O1        1.0  0.75600  0.96300  0.09260  1.0000
  O   O2        1.0  0.20300  0.81200  0.16500  1.0000
  O   O3        1.0  0.64600  0.34300  0.16600  1.0000
  O   O4        1.0  0.17200  0.50100  0.18200  1.0000
  O   O5        1.0  0.77600  0.22800  0.45100  1.0000
  O   O6        1.0  0.71700  0.61200  0.48500  1.0000
  O   O7        1.0  0.28300  0.38800  0.51500  1.0000
  O   O8        1.0  0.22400  0.77200  0.54900  1.0000
  O   O9        1.0  0.82800  0.49900  0.81800  1.0000
  O   O10       1.0  0.35400  0.65700  0.83400  1.0000
  O   O11       1.0  0.79700  0.18800  0.83500  1.0000
  O   O12       1.0  0.24400  0.03670  0.90700  1.0000
  P   P1        1.0  0.98700  0.92200  0.22400  1.0000
  P   P2        1.0  0.10200  0.22700  0.49300  1.0000
  P   P3        1.0  0.89800  0.77300  0.50700  1.0000
  P   P4        1.0  0.01340  0.07810  0.77600  1.0000
