data_image0
_chemical_formula_structural       Li2MnO6Te
_chemical_formula_sum              "Li2 Mn1 O6 Te1"
_cell_length_a       5.09536
_cell_length_b       5.09536
_cell_length_c       5.02988
_cell_angle_alpha    99.3313
_cell_angle_beta     99.3313
_cell_angle_gamma    120.636

_space_group_name_H-M_alt    "P 1"
_space_group_IT_number       1

loop_
  _space_group_symop_operation_xyz
  'x, y, z'

loop_
  _atom_site_type_symbol
  _atom_site_label
  _atom_site_symmetry_multiplicity
  _atom_site_fract_x
  _atom_site_fract_y
  _atom_site_fract_z
  _atom_site_occupancy
  Li  Li1       1.0  0.49900  0.50100  0.00000  1.0000
  Li  Li2       1.0  0.36100  0.63900  0.50000  1.0000
  Mn  Mn1       1.0  0.83000  0.17000  0.00000  1.0000
  O   O1        1.0  0.21300  0.22700  0.21300  1.0000
  O   O2        1.0  0.56500  0.93100  0.22100  1.0000
  O   O3        1.0  0.93400  0.57300  0.22600  1.0000
  O   O4        1.0  0.42700  0.06610  0.77400  1.0000
  O   O5        1.0  0.06940  0.43500  0.77900  1.0000
  O   O6        1.0  0.77300  0.78700  0.78700  1.0000
  Te  Te1       1.0  0.16200  0.83800  0.00000  1.0000
