data_image0
_chemical_formula_structural       Ce5Cu19P12
_chemical_formula_sum              "Ce5 Cu19 P12"
_cell_length_a       12.6497
_cell_length_b       12.6497
_cell_length_c       3.96131
_cell_angle_alpha    90
_cell_angle_beta     90
_cell_angle_gamma    120

_space_group_name_H-M_alt    "P 1"
_space_group_IT_number       1

loop_
  _space_group_symop_operation_xyz
  'x, y, z'

loop_
  _atom_site_type_symbol
  _atom_site_label
  _atom_site_symmetry_multiplicity
  _atom_site_fract_x
  _atom_site_fract_y
  _atom_site_fract_z
  _atom_site_occupancy
  Ce  Ce1       1.0  0.66700  0.33300  0.00000  1.0000
  Ce  Ce2       1.0  0.33300  0.66700  0.00000  1.0000
  Ce  Ce3       1.0  0.81100  0.00000  0.50000  1.0000
  Ce  Ce4       1.0  0.18900  0.18900  0.50000  1.0000
  Ce  Ce5       1.0  0.00000  0.81100  0.50000  1.0000
  Cu  Cu1       1.0  0.00000  0.00000  0.00000  1.0000
  Cu  Cu2       1.0  0.45100  0.00000  0.00000  1.0000
  Cu  Cu3       1.0  0.38000  0.17500  0.00000  1.0000
  Cu  Cu4       1.0  0.82500  0.20500  0.00000  1.0000
  Cu  Cu5       1.0  0.17500  0.38000  0.00000  1.0000
  Cu  Cu6       1.0  0.00000  0.45100  0.00000  1.0000
  Cu  Cu7       1.0  0.54900  0.54900  0.00000  1.0000
  Cu  Cu8       1.0  0.79500  0.62000  0.00000  1.0000
  Cu  Cu9       1.0  0.62000  0.79500  0.00000  1.0000
  Cu  Cu10      1.0  0.20500  0.82500  0.00000  1.0000
  Cu  Cu11      1.0  0.28800  0.00000  0.50000  1.0000
  Cu  Cu12      1.0  0.63900  0.11900  0.50000  1.0000
  Cu  Cu13      1.0  0.00000  0.28800  0.50000  1.0000
  Cu  Cu14      1.0  0.48000  0.36100  0.50000  1.0000
  Cu  Cu15      1.0  0.36100  0.48000  0.50000  1.0000
  Cu  Cu16      1.0  0.88100  0.52000  0.50000  1.0000
  Cu  Cu17      1.0  0.11900  0.63900  0.50000  1.0000
  Cu  Cu18      1.0  0.71200  0.71200  0.50000  1.0000
  Cu  Cu19      1.0  0.52000  0.88100  0.50000  1.0000
  P   P1        1.0  0.17800  0.00000  0.00000  1.0000
  P   P2        1.0  0.63200  0.00000  0.00000  1.0000
  P   P3        1.0  0.00000  0.17800  0.00000  1.0000
  P   P4        1.0  0.36800  0.36800  0.00000  1.0000
  P   P5        1.0  0.00000  0.63200  0.00000  1.0000
  P   P6        1.0  0.82200  0.82200  0.00000  1.0000
  P   P7        1.0  0.48100  0.17000  0.50000  1.0000
  P   P8        1.0  0.83000  0.31100  0.50000  1.0000
  P   P9        1.0  0.17000  0.48100  0.50000  1.0000
  P   P10       1.0  0.68900  0.51900  0.50000  1.0000
  P   P11       1.0  0.51900  0.68900  0.50000  1.0000
  P   P12       1.0  0.31100  0.83000  0.50000  1.0000
