data_image0
_chemical_formula_structural       HfLiMnO6
_chemical_formula_sum              "Hf1 Li1 Mn1 O6"
_cell_length_a       5.5816
_cell_length_b       5.5816
_cell_length_c       4.20834
_cell_angle_alpha    106.144
_cell_angle_beta     106.143
_cell_angle_gamma    123.178

_space_group_name_H-M_alt    "P 1"
_space_group_IT_number       1

loop_
  _space_group_symop_operation_xyz
  'x, y, z'

loop_
  _atom_site_type_symbol
  _atom_site_label
  _atom_site_symmetry_multiplicity
  _atom_site_fract_x
  _atom_site_fract_y
  _atom_site_fract_z
  _atom_site_occupancy
  Hf  Hf1       1.0  0.83800  0.16200  0.00000  1.0000
  Li  Li1       1.0  0.50200  0.49800  0.00000  1.0000
  Mn  Mn1       1.0  0.16200  0.83800  0.00000  1.0000
  O   O1        1.0  0.97300  0.63600  0.25400  1.0000
  O   O2        1.0  0.26900  0.25100  0.26400  1.0000
  O   O3        1.0  0.57600  0.93800  0.27200  1.0000
  O   O4        1.0  0.06250  0.42400  0.72800  1.0000
  O   O5        1.0  0.74900  0.73100  0.73600  1.0000
  O   O6        1.0  0.36400  0.02740  0.74600  1.0000
