data_image0
_chemical_formula_structural       B6Cl2O18Sr10
_chemical_formula_sum              "B6 Cl2 O18 Sr10"
_cell_length_a       7.38953
_cell_length_b       8.67232
_cell_length_c       8.67232
_cell_angle_alpha    109.617
_cell_angle_beta     90
_cell_angle_gamma    90

_space_group_name_H-M_alt    "P 1"
_space_group_IT_number       1

loop_
  _space_group_symop_operation_xyz
  'x, y, z'

loop_
  _atom_site_type_symbol
  _atom_site_label
  _atom_site_symmetry_multiplicity
  _atom_site_fract_x
  _atom_site_fract_y
  _atom_site_fract_z
  _atom_site_occupancy
  B   B1        1.0  0.52900  0.59100  0.01490  1.0000
  B   B2        1.0  0.50000  0.37000  0.37000  1.0000
  B   B3        1.0  0.97100  0.98500  0.40900  1.0000
  B   B4        1.0  0.47100  0.01490  0.59100  1.0000
  B   B5        1.0  0.00000  0.63000  0.63000  1.0000
  B   B6        1.0  0.02930  0.40900  0.98500  1.0000
  Cl  Cl1       1.0  0.25000  0.94600  0.05360  1.0000
  Cl  Cl2       1.0  0.75000  0.05360  0.94600  1.0000
  O   O1        1.0  0.61500  0.73700  0.02930  1.0000
  O   O2        1.0  0.99000  0.52200  0.14000  1.0000
  O   O3        1.0  0.48700  0.55400  0.15400  1.0000
  O   O4        1.0  0.88500  0.97100  0.26300  1.0000
  O   O5        1.0  0.66400  0.30400  0.30300  1.0000
  O   O6        1.0  0.33600  0.30300  0.30400  1.0000
  O   O7        1.0  0.01320  0.84600  0.44600  1.0000
  O   O8        1.0  0.51000  0.86000  0.47800  1.0000
  O   O9        1.0  0.00000  0.49000  0.49000  1.0000
  O   O10       1.0  0.50000  0.51000  0.51000  1.0000
  O   O11       1.0  0.00974  0.14000  0.52200  1.0000
  O   O12       1.0  0.51300  0.15400  0.55400  1.0000
  O   O13       1.0  0.83600  0.69700  0.69600  1.0000
  O   O14       1.0  0.16400  0.69600  0.69700  1.0000
  O   O15       1.0  0.38500  0.02930  0.73700  1.0000
  O   O16       1.0  0.98700  0.44600  0.84600  1.0000
  O   O17       1.0  0.49000  0.47800  0.86000  1.0000
  O   O18       1.0  0.11500  0.26300  0.97100  1.0000
  Sr  Sr1       1.0  0.43900  0.26100  0.00440  1.0000
  Sr  Sr2       1.0  0.00000  0.23800  0.23800  1.0000
  Sr  Sr3       1.0  0.56100  0.00440  0.26100  1.0000
  Sr  Sr4       1.0  0.75000  0.63900  0.36100  1.0000
  Sr  Sr5       1.0  0.25000  0.63600  0.36400  1.0000
  Sr  Sr6       1.0  0.75000  0.36400  0.63600  1.0000
  Sr  Sr7       1.0  0.25000  0.36100  0.63900  1.0000
  Sr  Sr8       1.0  0.06140  0.99600  0.73900  1.0000
  Sr  Sr9       1.0  0.50000  0.76200  0.76200  1.0000
  Sr  Sr10      1.0  0.93900  0.73900  0.99600  1.0000
