data_image0
_chemical_formula_structural       LiMnO6Sb
_chemical_formula_sum              "Li1 Mn1 O6 Sb1"
_cell_length_a       5.15813
_cell_length_b       5.15813
_cell_length_c       5.11606
_cell_angle_alpha    104.502
_cell_angle_beta     104.502
_cell_angle_gamma    120.231

_space_group_name_H-M_alt    "P 1"
_space_group_IT_number       1

loop_
  _space_group_symop_operation_xyz
  'x, y, z'

loop_
  _atom_site_type_symbol
  _atom_site_label
  _atom_site_symmetry_multiplicity
  _atom_site_fract_x
  _atom_site_fract_y
  _atom_site_fract_z
  _atom_site_occupancy
  Li  Li1       1.0  0.99500  0.00533  0.50000  1.0000
  Mn  Mn1       1.0  0.83400  0.16600  0.00000  1.0000
  O   O1        1.0  0.62400  0.97000  0.22400  1.0000
  O   O2        1.0  0.96300  0.60200  0.23800  1.0000
  O   O3        1.0  0.22300  0.23600  0.25800  1.0000
  O   O4        1.0  0.76400  0.77700  0.74200  1.0000
  O   O5        1.0  0.39800  0.03670  0.76200  1.0000
  O   O6        1.0  0.03020  0.37600  0.77600  1.0000
  Sb  Sb1       1.0  0.16700  0.83300  0.00000  1.0000
