data_image0
_chemical_formula_structural       Cl6Re12Se16Tl2
_chemical_formula_sum              "Cl6 Re12 Se16 Tl2"
_cell_length_a       9.17201
_cell_length_b       9.16159
_cell_length_c       11.1775
_cell_angle_alpha    110.062
_cell_angle_beta     90.6029
_cell_angle_gamma    94.2761

_space_group_name_H-M_alt    "P 1"
_space_group_IT_number       1

loop_
  _space_group_symop_operation_xyz
  'x, y, z'

loop_
  _atom_site_type_symbol
  _atom_site_label
  _atom_site_symmetry_multiplicity
  _atom_site_fract_x
  _atom_site_fract_y
  _atom_site_fract_z
  _atom_site_occupancy
  Cl  Cl1       1.0  0.56600  0.76500  0.04930  1.0000
  Cl  Cl2       1.0  0.70100  0.17200  0.15700  1.0000
  Cl  Cl3       1.0  0.44100  0.24500  0.41700  1.0000
  Cl  Cl4       1.0  0.55900  0.75500  0.58300  1.0000
  Cl  Cl5       1.0  0.29900  0.82800  0.84300  1.0000
  Cl  Cl6       1.0  0.43400  0.23500  0.95100  1.0000
  Re  Re1       1.0  0.00614  0.60800  0.16200  1.0000
  Re  Re2       1.0  0.74000  0.70100  0.18600  1.0000
  Re  Re3       1.0  0.79900  0.44300  0.23200  1.0000
  Re  Re4       1.0  0.94800  0.86000  0.35200  1.0000
  Re  Re5       1.0  0.00699  0.60700  0.39800  1.0000
  Re  Re6       1.0  0.73700  0.69900  0.42100  1.0000
  Re  Re7       1.0  0.26300  0.30100  0.57900  1.0000
  Re  Re8       1.0  0.99300  0.39300  0.60200  1.0000
  Re  Re9       1.0  0.05190  0.14000  0.64800  1.0000
  Re  Re10      1.0  0.20100  0.55700  0.76800  1.0000
  Re  Re11      1.0  0.26000  0.29900  0.81400  1.0000
  Re  Re12      1.0  0.99400  0.39200  0.83800  1.0000
  Se  Se1       1.0  0.78500  0.44900  0.00618  1.0000
  Se  Se2       1.0  0.95100  0.85500  0.12300  1.0000
  Se  Se3       1.0  0.06050  0.36700  0.21200  1.0000
  Se  Se4       1.0  0.54400  0.54000  0.25500  1.0000
  Se  Se5       1.0  0.20300  0.76600  0.32600  1.0000
  Se  Se6       1.0  0.68800  0.93900  0.37000  1.0000
  Se  Se7       1.0  0.05620  0.15500  0.41700  1.0000
  Se  Se8       1.0  0.78500  0.44700  0.46000  1.0000
  Se  Se9       1.0  0.21500  0.55300  0.54000  1.0000
  Se  Se10      1.0  0.94400  0.84500  0.58300  1.0000
  Se  Se11      1.0  0.31200  0.06060  0.63000  1.0000
  Se  Se12      1.0  0.79700  0.23400  0.67400  1.0000
  Se  Se13      1.0  0.45600  0.46000  0.74500  1.0000
  Se  Se14      1.0  0.94000  0.63300  0.78800  1.0000
  Se  Se15      1.0  0.04930  0.14500  0.87700  1.0000
  Se  Se16      1.0  0.21500  0.55100  0.99400  1.0000
  Tl  Tl1       1.0  0.34200  0.04360  0.13900  1.0000
  Tl  Tl2       1.0  0.65800  0.95600  0.86100  1.0000
