data_image0
_chemical_formula_structural       F16H8Li4Mn4O4
_chemical_formula_sum              "F16 H8 Li4 Mn4 O4"
_cell_length_a       5.14039
_cell_length_b       12.1779
_cell_length_c       5.18664
_cell_angle_alpha    90
_cell_angle_beta     90
_cell_angle_gamma    90

_space_group_name_H-M_alt    "P 1"
_space_group_IT_number       1

loop_
  _space_group_symop_operation_xyz
  'x, y, z'

loop_
  _atom_site_type_symbol
  _atom_site_label
  _atom_site_symmetry_multiplicity
  _atom_site_fract_x
  _atom_site_fract_y
  _atom_site_fract_z
  _atom_site_occupancy
  F   F1        1.0  0.45400  0.14200  0.11200  1.0000
  F   F2        1.0  0.45400  0.35800  0.11200  1.0000
  F   F3        1.0  0.18900  0.54500  0.16100  1.0000
  F   F4        1.0  0.18900  0.95500  0.16100  1.0000
  F   F5        1.0  0.68900  0.54500  0.33900  1.0000
  F   F6        1.0  0.68900  0.95500  0.33900  1.0000
  F   F7        1.0  0.95400  0.14200  0.38800  1.0000
  F   F8        1.0  0.95400  0.35800  0.38800  1.0000
  F   F9        1.0  0.04590  0.64200  0.61200  1.0000
  F   F10       1.0  0.04590  0.85800  0.61200  1.0000
  F   F11       1.0  0.31100  0.04550  0.66100  1.0000
  F   F12       1.0  0.31100  0.45500  0.66100  1.0000
  F   F13       1.0  0.81100  0.04550  0.83900  1.0000
  F   F14       1.0  0.81100  0.45500  0.83900  1.0000
  F   F15       1.0  0.54600  0.64200  0.88800  1.0000
  F   F16       1.0  0.54600  0.85800  0.88800  1.0000
  H   H1        1.0  0.10000  0.68500  0.15300  1.0000
  H   H2        1.0  0.10000  0.81500  0.15300  1.0000
  H   H3        1.0  0.60000  0.68500  0.34700  1.0000
  H   H4        1.0  0.60000  0.81500  0.34700  1.0000
  H   H5        1.0  0.40000  0.18500  0.65300  1.0000
  H   H6        1.0  0.40000  0.31500  0.65300  1.0000
  H   H7        1.0  0.90000  0.18500  0.84700  1.0000
  H   H8        1.0  0.90000  0.31500  0.84700  1.0000
  Li  Li1       1.0  0.20400  0.25000  0.23800  1.0000
  Li  Li2       1.0  0.70400  0.25000  0.26200  1.0000
  Li  Li3       1.0  0.29600  0.75000  0.73800  1.0000
  Li  Li4       1.0  0.79600  0.75000  0.76200  1.0000
  Mn  Mn1       1.0  0.50000  0.00000  0.00000  1.0000
  Mn  Mn2       1.0  0.50000  0.50000  0.00000  1.0000
  Mn  Mn3       1.0  0.00000  0.00000  0.50000  1.0000
  Mn  Mn4       1.0  0.00000  0.50000  0.50000  1.0000
  O   O1        1.0  0.04040  0.75000  0.05930  1.0000
  O   O2        1.0  0.54000  0.75000  0.44100  1.0000
  O   O3        1.0  0.46000  0.25000  0.55900  1.0000
  O   O4        1.0  0.96000  0.25000  0.94100  1.0000
