data_image0
_chemical_formula_structural       S20Sb8Sn8
_chemical_formula_sum              "S20 Sb8 Sn8"
_cell_length_a       20.1874
_cell_length_b       3.96007
_cell_length_c       11.4796
_cell_angle_alpha    90
_cell_angle_beta     90
_cell_angle_gamma    90

_space_group_name_H-M_alt    "P 1"
_space_group_IT_number       1

loop_
  _space_group_symop_operation_xyz
  'x, y, z'

loop_
  _atom_site_type_symbol
  _atom_site_label
  _atom_site_symmetry_multiplicity
  _atom_site_fract_x
  _atom_site_fract_y
  _atom_site_fract_z
  _atom_site_occupancy
  S   S1        1.0  0.77000  0.25000  0.00010  1.0000
  S   S2        1.0  0.07770  0.25000  0.07350  1.0000
  S   S3        1.0  0.47900  0.25000  0.13200  1.0000
  S   S4        1.0  0.63100  0.75000  0.17700  1.0000
  S   S5        1.0  0.82800  0.75000  0.24800  1.0000
  S   S6        1.0  0.32800  0.75000  0.25200  1.0000
  S   S7        1.0  0.13100  0.75000  0.32300  1.0000
  S   S8        1.0  0.97900  0.25000  0.36800  1.0000
  S   S9        1.0  0.57800  0.25000  0.42600  1.0000
  S   S10       1.0  0.27000  0.25000  0.50000  1.0000
  S   S11       1.0  0.73000  0.75000  0.50000  1.0000
  S   S12       1.0  0.42200  0.75000  0.57400  1.0000
  S   S13       1.0  0.02060  0.75000  0.63200  1.0000
  S   S14       1.0  0.86900  0.25000  0.67700  1.0000
  S   S15       1.0  0.67200  0.25000  0.74800  1.0000
  S   S16       1.0  0.17200  0.25000  0.75200  1.0000
  S   S17       1.0  0.36900  0.25000  0.82300  1.0000
  S   S18       1.0  0.52100  0.75000  0.86800  1.0000
  S   S19       1.0  0.92200  0.75000  0.92600  1.0000
  S   S20       1.0  0.23000  0.75000  0.00000  1.0000
  Sb  Sb1       1.0  0.86900  0.25000  0.12500  1.0000
  Sb  Sb2       1.0  0.02880  0.75000  0.20900  1.0000
  Sb  Sb3       1.0  0.52900  0.75000  0.29100  1.0000
  Sb  Sb4       1.0  0.36900  0.25000  0.37500  1.0000
  Sb  Sb5       1.0  0.63100  0.75000  0.62500  1.0000
  Sb  Sb6       1.0  0.47100  0.25000  0.70900  1.0000
  Sb  Sb7       1.0  0.97100  0.25000  0.79100  1.0000
  Sb  Sb8       1.0  0.13100  0.75000  0.87500  1.0000
  Sn  Sn1       1.0  0.59100  0.25000  0.00555  1.0000
  Sn  Sn2       1.0  0.20300  0.25000  0.16100  1.0000
  Sn  Sn3       1.0  0.70300  0.25000  0.33900  1.0000
  Sn  Sn4       1.0  0.09100  0.25000  0.49400  1.0000
  Sn  Sn5       1.0  0.90900  0.75000  0.50600  1.0000
  Sn  Sn6       1.0  0.29700  0.75000  0.66100  1.0000
  Sn  Sn7       1.0  0.79700  0.75000  0.83900  1.0000
  Sn  Sn8       1.0  0.40900  0.75000  0.99400  1.0000
