data_image0
_chemical_formula_structural       KSmTe2
_chemical_formula_sum              "K1 Sm1 Te2"
_cell_length_a       4.57323
_cell_length_b       4.57323
_cell_length_c       8.63058
_cell_angle_alpha    74.6364
_cell_angle_beta     105.364
_cell_angle_gamma    120

_space_group_name_H-M_alt    "P 1"
_space_group_IT_number       1

loop_
  _space_group_symop_operation_xyz
  'x, y, z'

loop_
  _atom_site_type_symbol
  _atom_site_label
  _atom_site_symmetry_multiplicity
  _atom_site_fract_x
  _atom_site_fract_y
  _atom_site_fract_z
  _atom_site_occupancy
  K   K1        1.0  0.00000  0.00000  0.00000  1.0000
  Sm  Sm1       1.0  0.50000  0.50000  0.50000  1.0000
  Te  Te1       1.0  0.76200  0.23800  0.28600  1.0000
  Te  Te2       1.0  0.23800  0.76200  0.71400  1.0000
