data_image0
_chemical_formula_structural       HfLi2MnO6
_chemical_formula_sum              "Hf1 Li2 Mn1 O6"
_cell_length_a       5.23359
_cell_length_b       5.23274
_cell_length_c       4.8674
_cell_angle_alpha    97.7587
_cell_angle_beta     97.7343
_cell_angle_gamma    122.941

_space_group_name_H-M_alt    "P 1"
_space_group_IT_number       1

loop_
  _space_group_symop_operation_xyz
  'x, y, z'

loop_
  _atom_site_type_symbol
  _atom_site_label
  _atom_site_symmetry_multiplicity
  _atom_site_fract_x
  _atom_site_fract_y
  _atom_site_fract_z
  _atom_site_occupancy
  Hf  Hf1       1.0  0.84500  0.15500  0.00000  1.0000
  Li  Li1       1.0  0.35400  0.64600  0.50000  1.0000
  Li  Li2       1.0  0.63700  0.36300  0.50000  1.0000
  Mn  Mn1       1.0  0.15900  0.84100  0.00000  1.0000
  O   O1        1.0  0.23300  0.21300  0.23300  1.0000
  O   O2        1.0  0.94800  0.58000  0.23700  1.0000
  O   O3        1.0  0.53200  0.93700  0.24200  1.0000
  O   O4        1.0  0.06340  0.46800  0.75800  1.0000
  O   O5        1.0  0.42000  0.05170  0.76300  1.0000
  O   O6        1.0  0.78700  0.76700  0.76700  1.0000
