data_image0
_chemical_formula_structural       Nb8O24Sr4
_chemical_formula_sum              "Nb8 O24 Sr4"
_cell_length_a       7.71566
_cell_length_b       5.59253
_cell_length_c       11.0688
_cell_angle_alpha    90
_cell_angle_beta     90.3585
_cell_angle_gamma    90

_space_group_name_H-M_alt    "P 1"
_space_group_IT_number       1

loop_
  _space_group_symop_operation_xyz
  'x, y, z'

loop_
  _atom_site_type_symbol
  _atom_site_label
  _atom_site_symmetry_multiplicity
  _atom_site_fract_x
  _atom_site_fract_y
  _atom_site_fract_z
  _atom_site_occupancy
  Nb  Nb1       1.0  0.52300  0.03510  0.14300  1.0000
  Nb  Nb2       1.0  0.01080  0.02810  0.14400  1.0000
  Nb  Nb3       1.0  0.98900  0.52800  0.35600  1.0000
  Nb  Nb4       1.0  0.47700  0.53500  0.35700  1.0000
  Nb  Nb5       1.0  0.52300  0.46500  0.64300  1.0000
  Nb  Nb6       1.0  0.01080  0.47200  0.64400  1.0000
  Nb  Nb7       1.0  0.98900  0.97200  0.85600  1.0000
  Nb  Nb8       1.0  0.47700  0.96500  0.85700  1.0000
  O   O1        1.0  0.53600  0.77700  0.02660  1.0000
  O   O2        1.0  0.96300  0.77800  0.02670  1.0000
  O   O3        1.0  0.75300  0.15100  0.12800  1.0000
  O   O4        1.0  0.25200  0.96300  0.14800  1.0000
  O   O5        1.0  0.05280  0.36900  0.21000  1.0000
  O   O6        1.0  0.44400  0.36300  0.21000  1.0000
  O   O7        1.0  0.55600  0.86300  0.29000  1.0000
  O   O8        1.0  0.94700  0.86900  0.29000  1.0000
  O   O9        1.0  0.74800  0.46300  0.35200  1.0000
  O   O10       1.0  0.24700  0.65100  0.37200  1.0000
  O   O11       1.0  0.03670  0.27800  0.47300  1.0000
  O   O12       1.0  0.46400  0.27700  0.47300  1.0000
  O   O13       1.0  0.53600  0.72300  0.52700  1.0000
  O   O14       1.0  0.96300  0.72200  0.52700  1.0000
  O   O15       1.0  0.75300  0.34900  0.62800  1.0000
  O   O16       1.0  0.25200  0.53700  0.64800  1.0000
  O   O17       1.0  0.05280  0.13100  0.71000  1.0000
  O   O18       1.0  0.44400  0.13700  0.71000  1.0000
  O   O19       1.0  0.55600  0.63700  0.79000  1.0000
  O   O20       1.0  0.94700  0.63100  0.79000  1.0000
  O   O21       1.0  0.74800  0.03730  0.85200  1.0000
  O   O22       1.0  0.24700  0.84900  0.87200  1.0000
  O   O23       1.0  0.03670  0.22200  0.97300  1.0000
  O   O24       1.0  0.46400  0.22300  0.97300  1.0000
  Sr  Sr1       1.0  0.25000  0.53700  0.03850  1.0000
  Sr  Sr2       1.0  0.75000  0.03670  0.46100  1.0000
  Sr  Sr3       1.0  0.25000  0.96300  0.53900  1.0000
  Sr  Sr4       1.0  0.75000  0.46300  0.96100  1.0000
