data_image0
_chemical_formula_structural       Li2MnO6Tc
_chemical_formula_sum              "Li2 Mn1 O6 Tc1"
_cell_length_a       5.09796
_cell_length_b       5.09796
_cell_length_c       4.90529
_cell_angle_alpha    97.9945
_cell_angle_beta     97.9945
_cell_angle_gamma    122.296

_space_group_name_H-M_alt    "P 1"
_space_group_IT_number       1

loop_
  _space_group_symop_operation_xyz
  'x, y, z'

loop_
  _atom_site_type_symbol
  _atom_site_label
  _atom_site_symmetry_multiplicity
  _atom_site_fract_x
  _atom_site_fract_y
  _atom_site_fract_z
  _atom_site_occupancy
  Li  Li1       1.0  0.65200  0.34800  0.50000  1.0000
  Li  Li2       1.0  0.35600  0.64400  0.50000  1.0000
  Mn  Mn1       1.0  0.83600  0.16400  0.00000  1.0000
  O   O1        1.0  0.21000  0.21100  0.22600  1.0000
  O   O2        1.0  0.95200  0.56200  0.23300  1.0000
  O   O3        1.0  0.56100  0.95000  0.23400  1.0000
  O   O4        1.0  0.04970  0.43900  0.76600  1.0000
  O   O5        1.0  0.43800  0.04830  0.76700  1.0000
  O   O6        1.0  0.78900  0.79000  0.77400  1.0000
  Tc  Tc1       1.0  0.15800  0.84200  0.00000  1.0000
