data_image0
_chemical_formula_structural       Co6H4O20Se6
_chemical_formula_sum              "Co6 H4 O20 Se6"
_cell_length_a       8.04761
_cell_length_b       8.10722
_cell_length_c       8.41849
_cell_angle_alpha    69.5801
_cell_angle_beta     63.0704
_cell_angle_gamma    67.4655

_space_group_name_H-M_alt    "P 1"
_space_group_IT_number       1

loop_
  _space_group_symop_operation_xyz
  'x, y, z'

loop_
  _atom_site_type_symbol
  _atom_site_label
  _atom_site_symmetry_multiplicity
  _atom_site_fract_x
  _atom_site_fract_y
  _atom_site_fract_z
  _atom_site_occupancy
  Co  Co1       1.0  0.00000  0.00000  0.00000  1.0000
  Co  Co2       1.0  0.34600  0.96200  0.20200  1.0000
  Co  Co3       1.0  0.71500  0.85800  0.39200  1.0000
  Co  Co4       1.0  0.50000  0.50000  0.50000  1.0000
  Co  Co5       1.0  0.28500  0.14200  0.60800  1.0000
  Co  Co6       1.0  0.65400  0.03830  0.79800  1.0000
  H   H1        1.0  0.95700  0.13000  0.30700  1.0000
  H   H2        1.0  0.05430  0.19700  0.39800  1.0000
  H   H3        1.0  0.94600  0.80300  0.60200  1.0000
  H   H4        1.0  0.04250  0.87000  0.69300  1.0000
  O   O1        1.0  0.59500  0.82000  0.02250  1.0000
  O   O2        1.0  0.19600  0.85400  0.12000  1.0000
  O   O3        1.0  0.87000  0.78000  0.14400  1.0000
  O   O4        1.0  0.71200  0.50300  0.24200  1.0000
  O   O5        1.0  0.79400  0.10400  0.24300  1.0000
  O   O6        1.0  0.08110  0.13200  0.30400  1.0000
  O   O7        1.0  0.46600  0.05380  0.32500  1.0000
  O   O8        1.0  0.30500  0.71200  0.38800  1.0000
  O   O9        1.0  0.44600  0.31300  0.43700  1.0000
  O   O10       1.0  0.94700  0.71900  0.45900  1.0000
  O   O11       1.0  0.05330  0.28100  0.54100  1.0000
  O   O12       1.0  0.55400  0.68700  0.56300  1.0000
  O   O13       1.0  0.69500  0.28800  0.61200  1.0000
  O   O14       1.0  0.53400  0.94600  0.67500  1.0000
  O   O15       1.0  0.91900  0.86800  0.69600  1.0000
  O   O16       1.0  0.20600  0.89600  0.75700  1.0000
  O   O17       1.0  0.28800  0.49700  0.75800  1.0000
  O   O18       1.0  0.13000  0.22000  0.85600  1.0000
  O   O19       1.0  0.80400  0.14600  0.88000  1.0000
  O   O20       1.0  0.40500  0.18000  0.97800  1.0000
  Se  Se1       1.0  0.80200  0.66000  0.05640  1.0000
  Se  Se2       1.0  0.57000  0.24000  0.23100  1.0000
  Se  Se3       1.0  0.17800  0.66100  0.29900  1.0000
  Se  Se4       1.0  0.82200  0.33900  0.70100  1.0000
  Se  Se5       1.0  0.43000  0.76000  0.76900  1.0000
  Se  Se6       1.0  0.19800  0.34000  0.94400  1.0000
