data_image0
_chemical_formula_structural       Hg12Na8S16
_chemical_formula_sum              "Hg12 Na8 S16"
_cell_length_a       7.52827
_cell_length_b       14.1585
_cell_length_c       8.37613
_cell_angle_alpha    90
_cell_angle_beta     90
_cell_angle_gamma    90

_space_group_name_H-M_alt    "P 1"
_space_group_IT_number       1

loop_
  _space_group_symop_operation_xyz
  'x, y, z'

loop_
  _atom_site_type_symbol
  _atom_site_label
  _atom_site_symmetry_multiplicity
  _atom_site_fract_x
  _atom_site_fract_y
  _atom_site_fract_z
  _atom_site_occupancy
  Hg  Hg1       1.0  0.00000  0.00000  0.00000  1.0000
  Hg  Hg2       1.0  0.50000  0.50000  0.00000  1.0000
  Hg  Hg3       1.0  0.73000  0.30600  0.22300  1.0000
  Hg  Hg4       1.0  0.77000  0.80600  0.22300  1.0000
  Hg  Hg5       1.0  0.23000  0.30600  0.27700  1.0000
  Hg  Hg6       1.0  0.27000  0.80600  0.27700  1.0000
  Hg  Hg7       1.0  0.50000  0.00000  0.50000  1.0000
  Hg  Hg8       1.0  0.00000  0.50000  0.50000  1.0000
  Hg  Hg9       1.0  0.73000  0.19400  0.72300  1.0000
  Hg  Hg10      1.0  0.77000  0.69400  0.72300  1.0000
  Hg  Hg11      1.0  0.23000  0.19400  0.77700  1.0000
  Hg  Hg12      1.0  0.27000  0.69400  0.77700  1.0000
  Na  Na1       1.0  0.43500  0.10700  0.11800  1.0000
  Na  Na2       1.0  0.06530  0.60700  0.11800  1.0000
  Na  Na3       1.0  0.93500  0.10700  0.38200  1.0000
  Na  Na4       1.0  0.56500  0.60700  0.38200  1.0000
  Na  Na5       1.0  0.43500  0.39300  0.61800  1.0000
  Na  Na6       1.0  0.06530  0.89300  0.61800  1.0000
  Na  Na7       1.0  0.93500  0.39300  0.88200  1.0000
  Na  Na8       1.0  0.56500  0.89300  0.88200  1.0000
  S   S1        1.0  0.01030  0.23000  0.10300  1.0000
  S   S2        1.0  0.49000  0.73000  0.10300  1.0000
  S   S3        1.0  0.76200  0.48300  0.15600  1.0000
  S   S4        1.0  0.73800  0.98300  0.15600  1.0000
  S   S5        1.0  0.26200  0.48300  0.34400  1.0000
  S   S6        1.0  0.23800  0.98300  0.34400  1.0000
  S   S7        1.0  0.51000  0.23000  0.39700  1.0000
  S   S8        1.0  0.99000  0.73000  0.39700  1.0000
  S   S9        1.0  0.01030  0.27000  0.60300  1.0000
  S   S10       1.0  0.49000  0.77000  0.60300  1.0000
  S   S11       1.0  0.76200  0.01690  0.65600  1.0000
  S   S12       1.0  0.73800  0.51700  0.65600  1.0000
  S   S13       1.0  0.26200  0.01690  0.84400  1.0000
  S   S14       1.0  0.23800  0.51700  0.84400  1.0000
  S   S15       1.0  0.51000  0.27000  0.89700  1.0000
  S   S16       1.0  0.99000  0.77000  0.89700  1.0000
