data_image0
_chemical_formula_structural       Co16P12Zr8
_chemical_formula_sum              "Co16 P12 Zr8"
_cell_length_a       12.1168
_cell_length_b       12.1168
_cell_length_c       3.67466
_cell_angle_alpha    90
_cell_angle_beta     90
_cell_angle_gamma    120

_space_group_name_H-M_alt    "P 1"
_space_group_IT_number       1

loop_
  _space_group_symop_operation_xyz
  'x, y, z'

loop_
  _atom_site_type_symbol
  _atom_site_label
  _atom_site_symmetry_multiplicity
  _atom_site_fract_x
  _atom_site_fract_y
  _atom_site_fract_z
  _atom_site_occupancy
  Co  Co1       1.0  0.00000  0.00000  0.00000  1.0000
  Co  Co2       1.0  0.80700  0.18000  0.00000  1.0000
  Co  Co3       1.0  0.37400  0.19300  0.00000  1.0000
  Co  Co4       1.0  0.19300  0.37400  0.00000  1.0000
  Co  Co5       1.0  0.82000  0.62600  0.00000  1.0000
  Co  Co6       1.0  0.18000  0.80700  0.00000  1.0000
  Co  Co7       1.0  0.62600  0.82000  0.00000  1.0000
  Co  Co8       1.0  0.72100  0.00000  0.50000  1.0000
  Co  Co9       1.0  0.48100  0.12600  0.50000  1.0000
  Co  Co10      1.0  0.27900  0.27900  0.50000  1.0000
  Co  Co11      1.0  0.87400  0.35400  0.50000  1.0000
  Co  Co12      1.0  0.12600  0.48100  0.50000  1.0000
  Co  Co13      1.0  0.64600  0.52000  0.50000  1.0000
  Co  Co14      1.0  0.52000  0.64600  0.50000  1.0000
  Co  Co15      1.0  0.00000  0.72100  0.50000  1.0000
  Co  Co16      1.0  0.35400  0.87400  0.50000  1.0000
  P   P1        1.0  0.34500  0.00000  0.00000  1.0000
  P   P2        1.0  0.82400  0.00000  0.00000  1.0000
  P   P3        1.0  0.17600  0.17600  0.00000  1.0000
  P   P4        1.0  0.00000  0.34500  0.00000  1.0000
  P   P5        1.0  0.65500  0.65500  0.00000  1.0000
  P   P6        1.0  0.00000  0.82400  0.00000  1.0000
  P   P7        1.0  0.69200  0.17300  0.50000  1.0000
  P   P8        1.0  0.48200  0.30800  0.50000  1.0000
  P   P9        1.0  0.30800  0.48200  0.50000  1.0000
  P   P10       1.0  0.82700  0.51800  0.50000  1.0000
  P   P11       1.0  0.17300  0.69200  0.50000  1.0000
  P   P12       1.0  0.51800  0.82700  0.50000  1.0000
  Zr  Zr1       1.0  0.55600  0.00000  0.00000  1.0000
  Zr  Zr2       1.0  0.66700  0.33300  0.00000  1.0000
  Zr  Zr3       1.0  0.44400  0.44400  0.00000  1.0000
  Zr  Zr4       1.0  0.00000  0.55600  0.00000  1.0000
  Zr  Zr5       1.0  0.33300  0.66700  0.00000  1.0000
  Zr  Zr6       1.0  0.17600  0.00000  0.50000  1.0000
  Zr  Zr7       1.0  0.00000  0.17600  0.50000  1.0000
  Zr  Zr8       1.0  0.82400  0.82400  0.50000  1.0000
