data_image0
_chemical_formula_structural       Ag6C12K6N12
_chemical_formula_sum              "Ag6 C12 K6 N12"
_cell_length_a       7.23836
_cell_length_b       7.23836
_cell_length_c       17.7011
_cell_angle_alpha    89.9997
_cell_angle_beta     90.0001
_cell_angle_gamma    120

_space_group_name_H-M_alt    "P 1"
_space_group_IT_number       1

loop_
  _space_group_symop_operation_xyz
  'x, y, z'

loop_
  _atom_site_type_symbol
  _atom_site_label
  _atom_site_symmetry_multiplicity
  _atom_site_fract_x
  _atom_site_fract_y
  _atom_site_fract_z
  _atom_site_occupancy
  Ag  Ag1       1.0  0.16700  0.33500  0.25000  1.0000
  Ag  Ag2       1.0  0.66500  0.83300  0.25000  1.0000
  Ag  Ag3       1.0  0.16700  0.83300  0.25000  1.0000
  Ag  Ag4       1.0  0.83300  0.16700  0.75000  1.0000
  Ag  Ag5       1.0  0.33500  0.16700  0.75000  1.0000
  Ag  Ag6       1.0  0.83300  0.66500  0.75000  1.0000
  C   C1        1.0  0.28800  0.95600  0.14600  1.0000
  C   C2        1.0  0.66700  0.71200  0.14600  1.0000
  C   C3        1.0  0.04430  0.33300  0.14600  1.0000
  C   C4        1.0  0.04430  0.71200  0.35400  1.0000
  C   C5        1.0  0.66700  0.95600  0.35400  1.0000
  C   C6        1.0  0.28800  0.33300  0.35400  1.0000
  C   C7        1.0  0.71200  0.66700  0.64600  1.0000
  C   C8        1.0  0.33300  0.04430  0.64600  1.0000
  C   C9        1.0  0.95600  0.28800  0.64600  1.0000
  C   C10       1.0  0.95600  0.66700  0.85400  1.0000
  C   C11       1.0  0.33300  0.28800  0.85400  1.0000
  C   C12       1.0  0.71200  0.04430  0.85400  1.0000
  K   K1        1.0  0.00000  0.00000  0.00000  1.0000
  K   K2        1.0  0.33300  0.66700  0.00272  1.0000
  K   K3        1.0  0.33300  0.66700  0.49700  1.0000
  K   K4        1.0  0.00000  0.00000  0.50000  1.0000
  K   K5        1.0  0.66700  0.33300  0.50300  1.0000
  K   K6        1.0  0.66700  0.33300  0.99700  1.0000
  N   N1        1.0  0.98400  0.33000  0.08370  1.0000
  N   N2        1.0  0.67000  0.65400  0.08370  1.0000
  N   N3        1.0  0.34600  0.01570  0.08380  1.0000
  N   N4        1.0  0.34600  0.33000  0.41600  1.0000
  N   N5        1.0  0.67000  0.01570  0.41600  1.0000
  N   N6        1.0  0.98400  0.65400  0.41600  1.0000
  N   N7        1.0  0.01570  0.34600  0.58400  1.0000
  N   N8        1.0  0.33000  0.98400  0.58400  1.0000
  N   N9        1.0  0.65400  0.67000  0.58400  1.0000
  N   N10       1.0  0.65400  0.98400  0.91600  1.0000
  N   N11       1.0  0.33000  0.34600  0.91600  1.0000
  N   N12       1.0  0.01570  0.67000  0.91600  1.0000
