data_image0
_chemical_formula_structural       O22Sr6Te8
_chemical_formula_sum              "O22 Sr6 Te8"
_cell_length_a       7.46624
_cell_length_b       9.16934
_cell_length_c       9.49958
_cell_angle_alpha    98.217
_cell_angle_beta     109.236
_cell_angle_gamma    102.229

_space_group_name_H-M_alt    "P 1"
_space_group_IT_number       1

loop_
  _space_group_symop_operation_xyz
  'x, y, z'

loop_
  _atom_site_type_symbol
  _atom_site_label
  _atom_site_symmetry_multiplicity
  _atom_site_fract_x
  _atom_site_fract_y
  _atom_site_fract_z
  _atom_site_occupancy
  O   O1        1.0  0.83700  0.22400  0.09360  1.0000
  O   O2        1.0  0.95400  0.90100  0.11700  1.0000
  O   O3        1.0  0.55900  0.90100  0.12700  1.0000
  O   O4        1.0  0.47900  0.31100  0.12900  1.0000
  O   O5        1.0  0.69000  0.62500  0.15600  1.0000
  O   O6        1.0  0.20400  0.23500  0.30900  1.0000
  O   O7        1.0  0.30100  0.86700  0.31400  1.0000
  O   O8        1.0  0.01360  0.46000  0.35500  1.0000
  O   O9        1.0  0.42500  0.59700  0.38400  1.0000
  O   O10       1.0  0.60600  0.18500  0.38800  1.0000
  O   O11       1.0  0.96200  0.84100  0.40100  1.0000
  O   O12       1.0  0.03790  0.15900  0.59900  1.0000
  O   O13       1.0  0.39400  0.81500  0.61200  1.0000
  O   O14       1.0  0.57500  0.40300  0.61600  1.0000
  O   O15       1.0  0.98600  0.54000  0.64500  1.0000
  O   O16       1.0  0.69900  0.13300  0.68600  1.0000
  O   O17       1.0  0.79600  0.76500  0.69100  1.0000
  O   O18       1.0  0.31000  0.37500  0.84400  1.0000
  O   O19       1.0  0.52100  0.68900  0.87100  1.0000
  O   O20       1.0  0.44100  0.09900  0.87300  1.0000
  O   O21       1.0  0.04600  0.09890  0.88300  1.0000
  O   O22       1.0  0.16300  0.77600  0.90600  1.0000
  Sr  Sr1       1.0  0.29600  0.04120  0.11500  1.0000
  Sr  Sr2       1.0  0.86500  0.08050  0.32100  1.0000
  Sr  Sr3       1.0  0.69700  0.47400  0.38400  1.0000
  Sr  Sr4       1.0  0.30300  0.52600  0.61600  1.0000
  Sr  Sr5       1.0  0.13500  0.92000  0.67900  1.0000
  Sr  Sr6       1.0  0.70400  0.95900  0.88500  1.0000
  Te  Te1       1.0  0.45200  0.68800  0.04210  1.0000
  Te  Te2       1.0  0.09100  0.37200  0.20000  1.0000
  Te  Te3       1.0  0.98600  0.74400  0.22300  1.0000
  Te  Te4       1.0  0.50900  0.81200  0.46300  1.0000
  Te  Te5       1.0  0.49100  0.18800  0.53700  1.0000
  Te  Te6       1.0  0.01380  0.25600  0.77700  1.0000
  Te  Te7       1.0  0.90900  0.62800  0.80000  1.0000
  Te  Te8       1.0  0.54800  0.31200  0.95800  1.0000
