data_image0
_chemical_formula_structural       F24Fe4Li4Sr4
_chemical_formula_sum              "F24 Fe4 Li4 Sr4"
_cell_length_a       5.21694
_cell_length_b       8.55381
_cell_length_c       9.85636
_cell_angle_alpha    90
_cell_angle_beta     92.4335
_cell_angle_gamma    90

_space_group_name_H-M_alt    "P 1"
_space_group_IT_number       1

loop_
  _space_group_symop_operation_xyz
  'x, y, z'

loop_
  _atom_site_type_symbol
  _atom_site_label
  _atom_site_symmetry_multiplicity
  _atom_site_fract_x
  _atom_site_fract_y
  _atom_site_fract_z
  _atom_site_occupancy
  F   F1        1.0  0.62000  0.26500  0.13100  1.0000
  F   F2        1.0  0.46900  0.96200  0.13600  1.0000
  F   F3        1.0  0.11200  0.40900  0.13700  1.0000
  F   F4        1.0  0.97600  0.03770  0.13700  1.0000
  F   F5        1.0  0.62700  0.58800  0.14100  1.0000
  F   F6        1.0  0.11800  0.74000  0.14500  1.0000
  F   F7        1.0  0.88200  0.24000  0.35500  1.0000
  F   F8        1.0  0.37300  0.08760  0.35900  1.0000
  F   F9        1.0  0.02390  0.53800  0.36300  1.0000
  F   F10       1.0  0.88800  0.90900  0.36300  1.0000
  F   F11       1.0  0.53100  0.46200  0.36400  1.0000
  F   F12       1.0  0.38000  0.76500  0.36900  1.0000
  F   F13       1.0  0.62000  0.23500  0.63100  1.0000
  F   F14       1.0  0.46900  0.53800  0.63600  1.0000
  F   F15       1.0  0.11200  0.09080  0.63700  1.0000
  F   F16       1.0  0.97600  0.46200  0.63700  1.0000
  F   F17       1.0  0.62700  0.91200  0.64100  1.0000
  F   F18       1.0  0.11800  0.76000  0.64500  1.0000
  F   F19       1.0  0.88200  0.26000  0.85500  1.0000
  F   F20       1.0  0.37300  0.41200  0.85900  1.0000
  F   F21       1.0  0.02390  0.96200  0.86300  1.0000
  F   F22       1.0  0.88800  0.59100  0.86300  1.0000
  F   F23       1.0  0.53100  0.03760  0.86400  1.0000
  F   F24       1.0  0.38000  0.73500  0.86900  1.0000
  Fe  Fe1       1.0  0.80100  0.41700  0.23400  1.0000
  Fe  Fe2       1.0  0.19900  0.91700  0.26600  1.0000
  Fe  Fe3       1.0  0.80100  0.08280  0.73400  1.0000
  Fe  Fe4       1.0  0.19900  0.58300  0.76600  1.0000
  Li  Li1       1.0  0.30200  0.58000  0.23600  1.0000
  Li  Li2       1.0  0.69800  0.07990  0.26400  1.0000
  Li  Li3       1.0  0.30200  0.92000  0.73600  1.0000
  Li  Li4       1.0  0.69800  0.42000  0.76400  1.0000
  Sr  Sr1       1.0  0.75100  0.80700  0.00334  1.0000
  Sr  Sr2       1.0  0.24900  0.30700  0.49700  1.0000
  Sr  Sr3       1.0  0.75100  0.69300  0.50300  1.0000
  Sr  Sr4       1.0  0.24900  0.19300  0.99700  1.0000
