data_image0
_chemical_formula_structural       Li2MnO6Sb
_chemical_formula_sum              "Li2 Mn1 O6 Sb1"
_cell_length_a       5.1063
_cell_length_b       5.10626
_cell_length_c       5.13757
_cell_angle_alpha    100.755
_cell_angle_beta     100.755
_cell_angle_gamma    119.817

_space_group_name_H-M_alt    "P 1"
_space_group_IT_number       1

loop_
  _space_group_symop_operation_xyz
  'x, y, z'

loop_
  _atom_site_type_symbol
  _atom_site_label
  _atom_site_symmetry_multiplicity
  _atom_site_fract_x
  _atom_site_fract_y
  _atom_site_fract_z
  _atom_site_occupancy
  Li  Li1       1.0  0.36300  0.63700  0.50000  1.0000
  Li  Li2       1.0  0.99200  0.00766  0.50000  1.0000
  Mn  Mn1       1.0  0.82700  0.17300  0.00000  1.0000
  O   O1        1.0  0.59400  0.95100  0.22400  1.0000
  O   O2        1.0  0.95800  0.58100  0.23400  1.0000
  O   O3        1.0  0.19100  0.21400  0.24000  1.0000
  O   O4        1.0  0.78600  0.80900  0.76000  1.0000
  O   O5        1.0  0.41900  0.04230  0.76600  1.0000
  O   O6        1.0  0.04920  0.40600  0.77600  1.0000
  Sb  Sb1       1.0  0.16100  0.83900  0.00000  1.0000
