data_image0
_chemical_formula_structural       Li2MnMoO6
_chemical_formula_sum              "Li2 Mn1 Mo1 O6"
_cell_length_a       5.09764
_cell_length_b       5.09764
_cell_length_c       4.94165
_cell_angle_alpha    98.0677
_cell_angle_beta     98.0677
_cell_angle_gamma    122.055

_space_group_name_H-M_alt    "P 1"
_space_group_IT_number       1

loop_
  _space_group_symop_operation_xyz
  'x, y, z'

loop_
  _atom_site_type_symbol
  _atom_site_label
  _atom_site_symmetry_multiplicity
  _atom_site_fract_x
  _atom_site_fract_y
  _atom_site_fract_z
  _atom_site_occupancy
  Li  Li1       1.0  0.65400  0.34600  0.50000  1.0000
  Li  Li2       1.0  0.35700  0.64300  0.50000  1.0000
  Mn  Mn1       1.0  0.83500  0.16500  0.00000  1.0000
  Mo  Mo1       1.0  0.15900  0.84100  0.00000  1.0000
  O   O1        1.0  0.20600  0.20900  0.22700  1.0000
  O   O2        1.0  0.56100  0.95000  0.23200  1.0000
  O   O3        1.0  0.94700  0.55800  0.23300  1.0000
  O   O4        1.0  0.44200  0.05290  0.76700  1.0000
  O   O5        1.0  0.05030  0.43900  0.76800  1.0000
  O   O6        1.0  0.79100  0.79400  0.77300  1.0000
