data_image0
_chemical_formula_structural       Ge16Tb8Ti12
_chemical_formula_sum              "Ge16 Tb8 Ti12"
_cell_length_a       7.03731
_cell_length_b       13.4568
_cell_length_c       7.16949
_cell_angle_alpha    90
_cell_angle_beta     90
_cell_angle_gamma    90

_space_group_name_H-M_alt    "P 1"
_space_group_IT_number       1

loop_
  _space_group_symop_operation_xyz
  'x, y, z'

loop_
  _atom_site_type_symbol
  _atom_site_label
  _atom_site_symmetry_multiplicity
  _atom_site_fract_x
  _atom_site_fract_y
  _atom_site_fract_z
  _atom_site_occupancy
  Ge  Ge1       1.0  0.32800  0.04450  0.04480  1.0000
  Ge  Ge2       1.0  0.32800  0.45600  0.04480  1.0000
  Ge  Ge3       1.0  0.96100  0.25000  0.13300  1.0000
  Ge  Ge4       1.0  0.30800  0.75000  0.13400  1.0000
  Ge  Ge5       1.0  0.80800  0.75000  0.36600  1.0000
  Ge  Ge6       1.0  0.46100  0.25000  0.36700  1.0000
  Ge  Ge7       1.0  0.82800  0.04450  0.45500  1.0000
  Ge  Ge8       1.0  0.82800  0.45600  0.45500  1.0000
  Ge  Ge9       1.0  0.17200  0.54400  0.54500  1.0000
  Ge  Ge10      1.0  0.17200  0.95600  0.54500  1.0000
  Ge  Ge11      1.0  0.53900  0.75000  0.63300  1.0000
  Ge  Ge12      1.0  0.19200  0.25000  0.63400  1.0000
  Ge  Ge13      1.0  0.69200  0.25000  0.86600  1.0000
  Ge  Ge14      1.0  0.03930  0.75000  0.86700  1.0000
  Ge  Ge15      1.0  0.67200  0.54400  0.95500  1.0000
  Ge  Ge16      1.0  0.67200  0.95600  0.95500  1.0000
  Tb  Tb1       1.0  0.00278  0.59500  0.17300  1.0000
  Tb  Tb2       1.0  0.00278  0.90500  0.17300  1.0000
  Tb  Tb3       1.0  0.50300  0.59500  0.32700  1.0000
  Tb  Tb4       1.0  0.50300  0.90500  0.32700  1.0000
  Tb  Tb5       1.0  0.49700  0.09510  0.67300  1.0000
  Tb  Tb6       1.0  0.49700  0.40500  0.67300  1.0000
  Tb  Tb7       1.0  0.99700  0.09510  0.82700  1.0000
  Tb  Tb8       1.0  0.99700  0.40500  0.82700  1.0000
  Ti  Ti1       1.0  0.33400  0.25000  0.00927  1.0000
  Ti  Ti2       1.0  0.65900  0.12800  0.16800  1.0000
  Ti  Ti3       1.0  0.65900  0.37200  0.16800  1.0000
  Ti  Ti4       1.0  0.15900  0.12800  0.33200  1.0000
  Ti  Ti5       1.0  0.15900  0.37200  0.33200  1.0000
  Ti  Ti6       1.0  0.83400  0.25000  0.49100  1.0000
  Ti  Ti7       1.0  0.16600  0.75000  0.50900  1.0000
  Ti  Ti8       1.0  0.84100  0.62800  0.66800  1.0000
  Ti  Ti9       1.0  0.84100  0.87200  0.66800  1.0000
  Ti  Ti10      1.0  0.34100  0.62800  0.83200  1.0000
  Ti  Ti11      1.0  0.34100  0.87200  0.83200  1.0000
  Ti  Ti12      1.0  0.66600  0.75000  0.99100  1.0000
