data_image0
_chemical_formula_structural       Cs12I20Zn4
_chemical_formula_sum              "Cs12 I20 Zn4"
_cell_length_a       10.2419
_cell_length_b       15.087
_cell_length_c       11.8178
_cell_angle_alpha    90
_cell_angle_beta     90
_cell_angle_gamma    90

_space_group_name_H-M_alt    "P 1"
_space_group_IT_number       1

loop_
  _space_group_symop_operation_xyz
  'x, y, z'

loop_
  _atom_site_type_symbol
  _atom_site_label
  _atom_site_symmetry_multiplicity
  _atom_site_fract_x
  _atom_site_fract_y
  _atom_site_fract_z
  _atom_site_occupancy
  Cs  Cs1       1.0  0.41700  0.67300  0.01570  1.0000
  Cs  Cs2       1.0  0.91700  0.82700  0.01570  1.0000
  Cs  Cs3       1.0  0.91500  0.54800  0.25000  1.0000
  Cs  Cs4       1.0  0.41500  0.95200  0.25000  1.0000
  Cs  Cs5       1.0  0.41700  0.67300  0.48400  1.0000
  Cs  Cs6       1.0  0.91700  0.82700  0.48400  1.0000
  Cs  Cs7       1.0  0.08320  0.17300  0.51600  1.0000
  Cs  Cs8       1.0  0.58300  0.32700  0.51600  1.0000
  Cs  Cs9       1.0  0.58500  0.04830  0.75000  1.0000
  Cs  Cs10      1.0  0.08500  0.45200  0.75000  1.0000
  Cs  Cs11      1.0  0.08320  0.17300  0.98400  1.0000
  Cs  Cs12      1.0  0.58300  0.32700  0.98400  1.0000
  I   I1        1.0  0.68900  0.06270  0.06260  1.0000
  I   I2        1.0  0.18900  0.43700  0.06260  1.0000
  I   I3        1.0  0.03270  0.01130  0.25000  1.0000
  I   I4        1.0  0.36300  0.22300  0.25000  1.0000
  I   I5        1.0  0.86300  0.27700  0.25000  1.0000
  I   I6        1.0  0.53300  0.48900  0.25000  1.0000
  I   I7        1.0  0.16700  0.73900  0.25000  1.0000
  I   I8        1.0  0.66700  0.76100  0.25000  1.0000
  I   I9        1.0  0.68900  0.06270  0.43700  1.0000
  I   I10       1.0  0.18900  0.43700  0.43700  1.0000
  I   I11       1.0  0.81100  0.56300  0.56300  1.0000
  I   I12       1.0  0.31100  0.93700  0.56300  1.0000
  I   I13       1.0  0.33300  0.23900  0.75000  1.0000
  I   I14       1.0  0.83300  0.26100  0.75000  1.0000
  I   I15       1.0  0.46700  0.51100  0.75000  1.0000
  I   I16       1.0  0.13700  0.72300  0.75000  1.0000
  I   I17       1.0  0.63700  0.77700  0.75000  1.0000
  I   I18       1.0  0.96700  0.98900  0.75000  1.0000
  I   I19       1.0  0.81100  0.56300  0.93700  1.0000
  I   I20       1.0  0.31100  0.93700  0.93700  1.0000
  Zn  Zn1       1.0  0.81300  0.10600  0.25000  1.0000
  Zn  Zn2       1.0  0.31300  0.39400  0.25000  1.0000
  Zn  Zn3       1.0  0.68700  0.60600  0.75000  1.0000
  Zn  Zn4       1.0  0.18700  0.89400  0.75000  1.0000
