data_image0
_chemical_formula_structural       Ce8Co28
_chemical_formula_sum              "Ce8 Co28"
_cell_length_a       5.02882
_cell_length_b       5.02917
_cell_length_c       24.4697
_cell_angle_alpha    90
_cell_angle_beta     90
_cell_angle_gamma    119.998

_space_group_name_H-M_alt    "P 1"
_space_group_IT_number       1

loop_
  _space_group_symop_operation_xyz
  'x, y, z'

loop_
  _atom_site_type_symbol
  _atom_site_label
  _atom_site_symmetry_multiplicity
  _atom_site_fract_x
  _atom_site_fract_y
  _atom_site_fract_z
  _atom_site_occupancy
  Ce  Ce1       1.0  0.33300  0.66700  0.02800  1.0000
  Ce  Ce2       1.0  0.33300  0.66700  0.17300  1.0000
  Ce  Ce3       1.0  0.33300  0.66700  0.32700  1.0000
  Ce  Ce4       1.0  0.33300  0.66700  0.47200  1.0000
  Ce  Ce5       1.0  0.66700  0.33300  0.52800  1.0000
  Ce  Ce6       1.0  0.66700  0.33300  0.67300  1.0000
  Ce  Ce7       1.0  0.66700  0.33300  0.82700  1.0000
  Ce  Ce8       1.0  0.66700  0.33300  0.97200  1.0000
  Co  Co1       1.0  0.00000  0.00000  0.00000  1.0000
  Co  Co2       1.0  0.83600  0.67100  0.08950  1.0000
  Co  Co3       1.0  0.32900  0.16400  0.08950  1.0000
  Co  Co4       1.0  0.83600  0.16400  0.08950  1.0000
  Co  Co5       1.0  0.66700  0.33300  0.16900  1.0000
  Co  Co6       1.0  0.00000  0.00000  0.17000  1.0000
  Co  Co7       1.0  0.33300  0.16700  0.25000  1.0000
  Co  Co8       1.0  0.83300  0.16700  0.25000  1.0000
  Co  Co9       1.0  0.83300  0.66700  0.25000  1.0000
  Co  Co10      1.0  0.00000  0.00000  0.33000  1.0000
  Co  Co11      1.0  0.66700  0.33300  0.33100  1.0000
  Co  Co12      1.0  0.32900  0.16400  0.41000  1.0000
  Co  Co13      1.0  0.83600  0.16400  0.41000  1.0000
  Co  Co14      1.0  0.83600  0.67100  0.41000  1.0000
  Co  Co15      1.0  0.00000  0.00000  0.50000  1.0000
  Co  Co16      1.0  0.16400  0.32900  0.59000  1.0000
  Co  Co17      1.0  0.16400  0.83600  0.59000  1.0000
  Co  Co18      1.0  0.67100  0.83600  0.59000  1.0000
  Co  Co19      1.0  0.33300  0.66700  0.66900  1.0000
  Co  Co20      1.0  0.00000  0.00000  0.67000  1.0000
  Co  Co21      1.0  0.16700  0.33300  0.75000  1.0000
  Co  Co22      1.0  0.16700  0.83300  0.75000  1.0000
  Co  Co23      1.0  0.66700  0.83300  0.75000  1.0000
  Co  Co24      1.0  0.00000  0.00000  0.83000  1.0000
  Co  Co25      1.0  0.33300  0.66700  0.83100  1.0000
  Co  Co26      1.0  0.16400  0.83600  0.91000  1.0000
  Co  Co27      1.0  0.67100  0.83600  0.91000  1.0000
  Co  Co28      1.0  0.16400  0.32900  0.91000  1.0000
