data_image0
_chemical_formula_structural       Li2MnO6Si
_chemical_formula_sum              "Li2 Mn1 O6 Si1"
_cell_length_a       4.83565
_cell_length_b       4.83565
_cell_length_c       4.80746
_cell_angle_alpha    97.5673
_cell_angle_beta     97.5673
_cell_angle_gamma    122.098

_space_group_name_H-M_alt    "P 1"
_space_group_IT_number       1

loop_
  _space_group_symop_operation_xyz
  'x, y, z'

loop_
  _atom_site_type_symbol
  _atom_site_label
  _atom_site_symmetry_multiplicity
  _atom_site_fract_x
  _atom_site_fract_y
  _atom_site_fract_z
  _atom_site_occupancy
  Li  Li1       1.0  0.64900  0.35100  0.50000  1.0000
  Li  Li2       1.0  0.36000  0.64000  0.50000  1.0000
  Mn  Mn1       1.0  0.83900  0.16100  0.00000  1.0000
  O   O1        1.0  0.21500  0.19900  0.21400  1.0000
  O   O2        1.0  0.93700  0.57200  0.22100  1.0000
  O   O3        1.0  0.53800  0.92800  0.22300  1.0000
  O   O4        1.0  0.07150  0.46200  0.77700  1.0000
  O   O5        1.0  0.42800  0.06290  0.77900  1.0000
  O   O6        1.0  0.80100  0.78500  0.78600  1.0000
  Si  Si1       1.0  0.16300  0.83700  0.00000  1.0000
