data_image0
_chemical_formula_structural       Cu19La5P12
_chemical_formula_sum              "Cu19 La5 P12"
_cell_length_a       12.7076
_cell_length_b       12.7076
_cell_length_c       3.97009
_cell_angle_alpha    90
_cell_angle_beta     90
_cell_angle_gamma    119.999

_space_group_name_H-M_alt    "P 1"
_space_group_IT_number       1

loop_
  _space_group_symop_operation_xyz
  'x, y, z'

loop_
  _atom_site_type_symbol
  _atom_site_label
  _atom_site_symmetry_multiplicity
  _atom_site_fract_x
  _atom_site_fract_y
  _atom_site_fract_z
  _atom_site_occupancy
  Cu  Cu1       1.0  0.00000  0.00000  0.00000  1.0000
  Cu  Cu2       1.0  0.45000  0.00000  0.00000  1.0000
  Cu  Cu3       1.0  0.37900  0.17300  0.00000  1.0000
  Cu  Cu4       1.0  0.82700  0.20600  0.00000  1.0000
  Cu  Cu5       1.0  0.17300  0.37900  0.00000  1.0000
  Cu  Cu6       1.0  0.00000  0.45000  0.00000  1.0000
  Cu  Cu7       1.0  0.55000  0.55000  0.00000  1.0000
  Cu  Cu8       1.0  0.79400  0.62100  0.00000  1.0000
  Cu  Cu9       1.0  0.62100  0.79400  0.00000  1.0000
  Cu  Cu10      1.0  0.20600  0.82700  0.00000  1.0000
  Cu  Cu11      1.0  0.28800  0.00000  0.50000  1.0000
  Cu  Cu12      1.0  0.63500  0.11800  0.50000  1.0000
  Cu  Cu13      1.0  0.00000  0.28800  0.50000  1.0000
  Cu  Cu14      1.0  0.48300  0.36500  0.50000  1.0000
  Cu  Cu15      1.0  0.36500  0.48300  0.50000  1.0000
  Cu  Cu16      1.0  0.88200  0.51700  0.50000  1.0000
  Cu  Cu17      1.0  0.11800  0.63500  0.50000  1.0000
  Cu  Cu18      1.0  0.71200  0.71200  0.50000  1.0000
  Cu  Cu19      1.0  0.51700  0.88200  0.50000  1.0000
  La  La1       1.0  0.66700  0.33300  0.00000  1.0000
  La  La2       1.0  0.33300  0.66700  0.00000  1.0000
  La  La3       1.0  0.80800  0.00000  0.50000  1.0000
  La  La4       1.0  0.19200  0.19200  0.50000  1.0000
  La  La5       1.0  0.00000  0.80800  0.50000  1.0000
  P   P1        1.0  0.17700  0.00000  0.00000  1.0000
  P   P2        1.0  0.63100  0.00000  0.00000  1.0000
  P   P3        1.0  0.00000  0.17700  0.00000  1.0000
  P   P4        1.0  0.36900  0.36900  0.00000  1.0000
  P   P5        1.0  0.00000  0.63100  0.00000  1.0000
  P   P6        1.0  0.82300  0.82300  0.00000  1.0000
  P   P7        1.0  0.48000  0.17200  0.50000  1.0000
  P   P8        1.0  0.82800  0.30800  0.50000  1.0000
  P   P9        1.0  0.17200  0.48000  0.50000  1.0000
  P   P10       1.0  0.69200  0.52000  0.50000  1.0000
  P   P11       1.0  0.52000  0.69200  0.50000  1.0000
  P   P12       1.0  0.30800  0.82800  0.50000  1.0000
