data_image0
_chemical_formula_structural       Bi4O12W2
_chemical_formula_sum              "Bi4 O12 W2"
_cell_length_a       5.48788
_cell_length_b       5.47205
_cell_length_c       8.63269
_cell_angle_alpha    71.5222
_cell_angle_beta     90
_cell_angle_gamma    90

_space_group_name_H-M_alt    "P 1"
_space_group_IT_number       1

loop_
  _space_group_symop_operation_xyz
  'x, y, z'

loop_
  _atom_site_type_symbol
  _atom_site_label
  _atom_site_symmetry_multiplicity
  _atom_site_fract_x
  _atom_site_fract_y
  _atom_site_fract_z
  _atom_site_occupancy
  Bi  Bi1       1.0  0.01990  0.35400  0.34400  1.0000
  Bi  Bi2       1.0  0.48000  0.85400  0.34400  1.0000
  Bi  Bi3       1.0  0.52000  0.19900  0.65600  1.0000
  Bi  Bi4       1.0  0.98000  0.69900  0.65600  1.0000
  O   O1        1.0  0.75600  0.20500  0.04480  1.0000
  O   O2        1.0  0.74400  0.70500  0.04480  1.0000
  O   O3        1.0  0.42100  0.33200  0.21800  1.0000
  O   O4        1.0  0.07940  0.83200  0.21800  1.0000
  O   O5        1.0  0.74300  0.00506  0.49600  1.0000
  O   O6        1.0  0.75700  0.50500  0.49600  1.0000
  O   O7        1.0  0.24300  0.00139  0.50400  1.0000
  O   O8        1.0  0.25700  0.50100  0.50400  1.0000
  O   O9        1.0  0.92100  0.05040  0.78200  1.0000
  O   O10       1.0  0.57900  0.55000  0.78200  1.0000
  O   O11       1.0  0.24400  0.25000  0.95500  1.0000
  O   O12       1.0  0.25600  0.75000  0.95500  1.0000
  W   W1        1.0  0.00000  0.01290  0.00000  1.0000
  W   W2        1.0  0.50000  0.51300  0.00000  1.0000
