data_image0
_chemical_formula_structural       Li2MnO6U
_chemical_formula_sum              "Li2 Mn1 O6 U1"
_cell_length_a       5.33793
_cell_length_b       5.33793
_cell_length_c       5.16256
_cell_angle_alpha    100.044
_cell_angle_beta     100.044
_cell_angle_gamma    120.893

_space_group_name_H-M_alt    "P 1"
_space_group_IT_number       1

loop_
  _space_group_symop_operation_xyz
  'x, y, z'

loop_
  _atom_site_type_symbol
  _atom_site_label
  _atom_site_symmetry_multiplicity
  _atom_site_fract_x
  _atom_site_fract_y
  _atom_site_fract_z
  _atom_site_occupancy
  Li  Li1       1.0  0.96200  0.03800  0.50000  1.0000
  Li  Li2       1.0  0.37200  0.62800  0.50000  1.0000
  Mn  Mn1       1.0  0.83400  0.16600  0.00000  1.0000
  O   O1        1.0  0.60200  0.94900  0.22400  1.0000
  O   O2        1.0  0.95200  0.56700  0.23200  1.0000
  O   O3        1.0  0.18400  0.21800  0.23800  1.0000
  O   O4        1.0  0.78200  0.81600  0.76200  1.0000
  O   O5        1.0  0.43300  0.04750  0.76800  1.0000
  O   O6        1.0  0.05110  0.39800  0.77600  1.0000
  U   U1        1.0  0.16800  0.83200  0.00000  1.0000
