data_image0
_chemical_formula_structural       Cs2I22Nb12
_chemical_formula_sum              "Cs2 I22 Nb12"
_cell_length_a       11.3388
_cell_length_b       11.3388
_cell_length_c       12.1803
_cell_angle_alpha    90.0001
_cell_angle_beta     89.9999
_cell_angle_gamma    120.009

_space_group_name_H-M_alt    "P 1"
_space_group_IT_number       1

loop_
  _space_group_symop_operation_xyz
  'x, y, z'

loop_
  _atom_site_type_symbol
  _atom_site_label
  _atom_site_symmetry_multiplicity
  _atom_site_fract_x
  _atom_site_fract_y
  _atom_site_fract_z
  _atom_site_occupancy
  Cs  Cs1       1.0  0.00000  0.00000  0.25000  1.0000
  Cs  Cs2       1.0  0.00000  0.00000  0.75000  1.0000
  I   I1        1.0  0.70400  0.00000  0.00000  1.0000
  I   I2        1.0  0.29600  0.29600  0.00000  1.0000
  I   I3        1.0  0.00000  0.70400  0.00000  1.0000
  I   I4        1.0  0.66700  0.33300  0.04380  1.0000
  I   I5        1.0  0.62800  0.65900  0.15800  1.0000
  I   I6        1.0  0.03040  0.37200  0.15800  1.0000
  I   I7        1.0  0.34200  0.97000  0.15800  1.0000
  I   I8        1.0  0.03040  0.65800  0.34200  1.0000
  I   I9        1.0  0.62800  0.97000  0.34200  1.0000
  I   I10       1.0  0.34100  0.37200  0.34200  1.0000
  I   I11       1.0  0.66700  0.33300  0.45600  1.0000
  I   I12       1.0  0.00000  0.29600  0.50000  1.0000
  I   I13       1.0  0.70400  0.70400  0.50000  1.0000
  I   I14       1.0  0.29600  0.00000  0.50000  1.0000
  I   I15       1.0  0.33300  0.66700  0.54400  1.0000
  I   I16       1.0  0.37200  0.34100  0.65800  1.0000
  I   I17       1.0  0.97000  0.62800  0.65800  1.0000
  I   I18       1.0  0.65800  0.03040  0.65800  1.0000
  I   I19       1.0  0.97000  0.34200  0.84200  1.0000
  I   I20       1.0  0.37200  0.03040  0.84200  1.0000
  I   I21       1.0  0.65900  0.62800  0.84200  1.0000
  I   I22       1.0  0.33300  0.66700  0.95600  1.0000
  Nb  Nb1       1.0  0.32800  0.52200  0.15300  1.0000
  Nb  Nb2       1.0  0.19300  0.67200  0.15300  1.0000
  Nb  Nb3       1.0  0.47800  0.80700  0.15300  1.0000
  Nb  Nb4       1.0  0.19300  0.52200  0.34700  1.0000
  Nb  Nb5       1.0  0.32800  0.80700  0.34700  1.0000
  Nb  Nb6       1.0  0.47800  0.67200  0.34700  1.0000
  Nb  Nb7       1.0  0.67200  0.47800  0.65300  1.0000
  Nb  Nb8       1.0  0.80700  0.32800  0.65300  1.0000
  Nb  Nb9       1.0  0.52200  0.19300  0.65300  1.0000
  Nb  Nb10      1.0  0.80700  0.47800  0.84700  1.0000
  Nb  Nb11      1.0  0.67200  0.19300  0.84700  1.0000
  Nb  Nb12      1.0  0.52200  0.32800  0.84700  1.0000
