data_image0
_chemical_formula_structural       I8P16S12
_chemical_formula_sum              "I8 P16 S12"
_cell_length_a       9.81289
_cell_length_b       16.6329
_cell_length_c       6.88913
_cell_angle_alpha    90
_cell_angle_beta     90
_cell_angle_gamma    90

_space_group_name_H-M_alt    "P 1"
_space_group_IT_number       1

loop_
  _space_group_symop_operation_xyz
  'x, y, z'

loop_
  _atom_site_type_symbol
  _atom_site_label
  _atom_site_symmetry_multiplicity
  _atom_site_fract_x
  _atom_site_fract_y
  _atom_site_fract_z
  _atom_site_occupancy
  I   I1        1.0  0.64600  0.04080  0.22100  1.0000
  I   I2        1.0  0.64600  0.45900  0.22100  1.0000
  I   I3        1.0  0.14600  0.04080  0.27900  1.0000
  I   I4        1.0  0.14600  0.45900  0.27900  1.0000
  I   I5        1.0  0.85400  0.54100  0.72100  1.0000
  I   I6        1.0  0.85400  0.95900  0.72100  1.0000
  I   I7        1.0  0.35400  0.54100  0.77900  1.0000
  I   I8        1.0  0.35400  0.95900  0.77900  1.0000
  P   P1        1.0  0.52000  0.14900  0.04450  1.0000
  P   P2        1.0  0.52000  0.35100  0.04450  1.0000
  P   P3        1.0  0.63200  0.25000  0.19100  1.0000
  P   P4        1.0  0.25400  0.75000  0.24500  1.0000
  P   P5        1.0  0.75400  0.75000  0.25500  1.0000
  P   P6        1.0  0.13200  0.25000  0.30900  1.0000
  P   P7        1.0  0.02030  0.14900  0.45600  1.0000
  P   P8        1.0  0.02030  0.35100  0.45600  1.0000
  P   P9        1.0  0.98000  0.64900  0.54400  1.0000
  P   P10       1.0  0.98000  0.85100  0.54400  1.0000
  P   P11       1.0  0.86800  0.75000  0.69100  1.0000
  P   P12       1.0  0.24600  0.25000  0.74500  1.0000
  P   P13       1.0  0.74600  0.25000  0.75500  1.0000
  P   P14       1.0  0.36800  0.75000  0.80900  1.0000
  P   P15       1.0  0.48000  0.64900  0.95600  1.0000
  P   P16       1.0  0.48000  0.85100  0.95600  1.0000
  S   S1        1.0  0.82000  0.25000  0.04230  1.0000
  S   S2        1.0  0.38800  0.64900  0.23700  1.0000
  S   S3        1.0  0.38800  0.85100  0.23700  1.0000
  S   S4        1.0  0.88800  0.64900  0.26300  1.0000
  S   S5        1.0  0.88800  0.85100  0.26300  1.0000
  S   S6        1.0  0.32000  0.25000  0.45800  1.0000
  S   S7        1.0  0.68000  0.75000  0.54200  1.0000
  S   S8        1.0  0.11200  0.14900  0.73700  1.0000
  S   S9        1.0  0.11200  0.35100  0.73700  1.0000
  S   S10       1.0  0.61200  0.14900  0.76300  1.0000
  S   S11       1.0  0.61200  0.35100  0.76300  1.0000
  S   S12       1.0  0.18000  0.75000  0.95800  1.0000
