data_image0
_chemical_formula_structural       Ba6O22Te8
_chemical_formula_sum              "Ba6 O22 Te8"
_cell_length_a       9.37035
_cell_length_b       9.93225
_cell_length_c       7.88329
_cell_angle_alpha    110.459
_cell_angle_beta     103.457
_cell_angle_gamma    97.6698

_space_group_name_H-M_alt    "P 1"
_space_group_IT_number       1

loop_
  _space_group_symop_operation_xyz
  'x, y, z'

loop_
  _atom_site_type_symbol
  _atom_site_label
  _atom_site_symmetry_multiplicity
  _atom_site_fract_x
  _atom_site_fract_y
  _atom_site_fract_z
  _atom_site_occupancy
  Ba  Ba1       1.0  0.40400  0.17800  0.14200  1.0000
  Ba  Ba2       1.0  0.54400  0.62700  0.28300  1.0000
  Ba  Ba3       1.0  0.01130  0.11000  0.30700  1.0000
  Ba  Ba4       1.0  0.98900  0.89000  0.69300  1.0000
  Ba  Ba5       1.0  0.45600  0.37300  0.71700  1.0000
  Ba  Ba6       1.0  0.59600  0.82200  0.85800  1.0000
  O   O1        1.0  0.96000  0.84200  0.00046  1.0000
  O   O2        1.0  0.59700  0.37100  0.06930  1.0000
  O   O3        1.0  0.68700  0.10800  0.07350  1.0000
  O   O4        1.0  0.26700  0.42100  0.14500  1.0000
  O   O5        1.0  0.76600  0.80600  0.21000  1.0000
  O   O6        1.0  0.36200  0.81800  0.26100  1.0000
  O   O7        1.0  0.87900  0.37100  0.33700  1.0000
  O   O8        1.0  0.10200  0.86600  0.40300  1.0000
  O   O9        1.0  0.31400  0.10200  0.40500  1.0000
  O   O10       1.0  0.61500  0.34900  0.46600  1.0000
  O   O11       1.0  0.21000  0.36900  0.47000  1.0000
  O   O12       1.0  0.79000  0.63100  0.53000  1.0000
  O   O13       1.0  0.38500  0.65100  0.53400  1.0000
  O   O14       1.0  0.68600  0.89800  0.59500  1.0000
  O   O15       1.0  0.89800  0.13400  0.59700  1.0000
  O   O16       1.0  0.12100  0.62900  0.66300  1.0000
  O   O17       1.0  0.63800  0.18200  0.73900  1.0000
  O   O18       1.0  0.23400  0.19400  0.79000  1.0000
  O   O19       1.0  0.73300  0.57900  0.85500  1.0000
  O   O20       1.0  0.31300  0.89200  0.92600  1.0000
  O   O21       1.0  0.40300  0.62900  0.93100  1.0000
  O   O22       1.0  0.03980  0.15800  0.00000  1.0000
  Te  Te1       1.0  0.76300  0.28400  0.05270  1.0000
  Te  Te2       1.0  0.89100  0.69900  0.08840  1.0000
  Te  Te3       1.0  0.18300  0.53700  0.42700  1.0000
  Te  Te4       1.0  0.31400  0.94000  0.47600  1.0000
  Te  Te5       1.0  0.68600  0.06010  0.52400  1.0000
  Te  Te6       1.0  0.81700  0.46300  0.57300  1.0000
  Te  Te7       1.0  0.10900  0.30100  0.91200  1.0000
  Te  Te8       1.0  0.23700  0.71600  0.94700  1.0000
