data_image0
_chemical_formula_structural       Li2MnO6V
_chemical_formula_sum              "Li2 Mn1 O6 V1"
_cell_length_a       4.96276
_cell_length_b       4.96276
_cell_length_c       4.8815
_cell_angle_alpha    98.0458
_cell_angle_beta     98.0458
_cell_angle_gamma    121.892

_space_group_name_H-M_alt    "P 1"
_space_group_IT_number       1

loop_
  _space_group_symop_operation_xyz
  'x, y, z'

loop_
  _atom_site_type_symbol
  _atom_site_label
  _atom_site_symmetry_multiplicity
  _atom_site_fract_x
  _atom_site_fract_y
  _atom_site_fract_z
  _atom_site_occupancy
  Li  Li1       1.0  0.64900  0.35100  0.50000  1.0000
  Li  Li2       1.0  0.35600  0.64400  0.50000  1.0000
  Mn  Mn1       1.0  0.83700  0.16300  0.00000  1.0000
  O   O1        1.0  0.20900  0.20700  0.22600  1.0000
  O   O2        1.0  0.55700  0.94300  0.22900  1.0000
  O   O3        1.0  0.94500  0.56200  0.23000  1.0000
  O   O4        1.0  0.43800  0.05540  0.77000  1.0000
  O   O5        1.0  0.05720  0.44300  0.77100  1.0000
  O   O6        1.0  0.79300  0.79100  0.77400  1.0000
  V   V1        1.0  0.16000  0.84000  0.00000  1.0000
