data_image0
_chemical_formula_structural       Ho5Ni19P12
_chemical_formula_sum              "Ho5 Ni19 P12"
_cell_length_a       12.05
_cell_length_b       12.05
_cell_length_c       3.72478
_cell_angle_alpha    90
_cell_angle_beta     90
_cell_angle_gamma    120.003

_space_group_name_H-M_alt    "P 1"
_space_group_IT_number       1

loop_
  _space_group_symop_operation_xyz
  'x, y, z'

loop_
  _atom_site_type_symbol
  _atom_site_label
  _atom_site_symmetry_multiplicity
  _atom_site_fract_x
  _atom_site_fract_y
  _atom_site_fract_z
  _atom_site_occupancy
  Ho  Ho1       1.0  0.66700  0.33300  0.00000  1.0000
  Ho  Ho2       1.0  0.33300  0.66700  0.00000  1.0000
  Ho  Ho3       1.0  0.81200  0.00000  0.50000  1.0000
  Ho  Ho4       1.0  0.18800  0.18800  0.50000  1.0000
  Ho  Ho5       1.0  0.00000  0.81200  0.50000  1.0000
  Ni  Ni1       1.0  0.00000  0.00000  0.00000  1.0000
  Ni  Ni2       1.0  0.44700  0.00000  0.00000  1.0000
  Ni  Ni3       1.0  0.38000  0.18200  0.00000  1.0000
  Ni  Ni4       1.0  0.81800  0.19800  0.00000  1.0000
  Ni  Ni5       1.0  0.18200  0.38000  0.00000  1.0000
  Ni  Ni6       1.0  0.00000  0.44700  0.00000  1.0000
  Ni  Ni7       1.0  0.55300  0.55300  0.00000  1.0000
  Ni  Ni8       1.0  0.80200  0.62000  0.00000  1.0000
  Ni  Ni9       1.0  0.62000  0.80200  0.00000  1.0000
  Ni  Ni10      1.0  0.19800  0.81800  0.00000  1.0000
  Ni  Ni11      1.0  0.28400  0.00000  0.50000  1.0000
  Ni  Ni12      1.0  0.64000  0.12500  0.50000  1.0000
  Ni  Ni13      1.0  0.00000  0.28400  0.50000  1.0000
  Ni  Ni14      1.0  0.48500  0.36000  0.50000  1.0000
  Ni  Ni15      1.0  0.36000  0.48500  0.50000  1.0000
  Ni  Ni16      1.0  0.87500  0.51500  0.50000  1.0000
  Ni  Ni17      1.0  0.12500  0.64000  0.50000  1.0000
  Ni  Ni18      1.0  0.71600  0.71600  0.50000  1.0000
  Ni  Ni19      1.0  0.51500  0.87500  0.50000  1.0000
  P   P1        1.0  0.17800  0.00000  0.00000  1.0000
  P   P2        1.0  0.63300  0.00000  0.00000  1.0000
  P   P3        1.0  0.00000  0.17800  0.00000  1.0000
  P   P4        1.0  0.36700  0.36700  0.00000  1.0000
  P   P5        1.0  0.00000  0.63300  0.00000  1.0000
  P   P6        1.0  0.82200  0.82200  0.00000  1.0000
  P   P7        1.0  0.47900  0.16700  0.50000  1.0000
  P   P8        1.0  0.83300  0.31300  0.50000  1.0000
  P   P9        1.0  0.16700  0.47900  0.50000  1.0000
  P   P10       1.0  0.68700  0.52100  0.50000  1.0000
  P   P11       1.0  0.52100  0.68700  0.50000  1.0000
  P   P12       1.0  0.31300  0.83300  0.50000  1.0000
