data_image0
_chemical_formula_structural       B12O20Rb4
_chemical_formula_sum              "B12 O20 Rb4"
_cell_length_a       8.37294
_cell_length_b       8.70755
_cell_length_c       6.03469
_cell_angle_alpha    90
_cell_angle_beta     90
_cell_angle_gamma    90

_space_group_name_H-M_alt    "P 1"
_space_group_IT_number       1

loop_
  _space_group_symop_operation_xyz
  'x, y, z'

loop_
  _atom_site_type_symbol
  _atom_site_label
  _atom_site_symmetry_multiplicity
  _atom_site_fract_x
  _atom_site_fract_y
  _atom_site_fract_z
  _atom_site_occupancy
  B   B1        1.0  0.29500  0.20500  0.13600  1.0000
  B   B2        1.0  0.00212  0.24100  0.13700  1.0000
  B   B3        1.0  0.12500  0.98900  0.21900  1.0000
  B   B4        1.0  0.87500  0.48900  0.28100  1.0000
  B   B5        1.0  0.99800  0.74100  0.36300  1.0000
  B   B6        1.0  0.70500  0.70500  0.36400  1.0000
  B   B7        1.0  0.20500  0.79500  0.63600  1.0000
  B   B8        1.0  0.49800  0.75900  0.63700  1.0000
  B   B9        1.0  0.37500  0.01100  0.71900  1.0000
  B   B10       1.0  0.62500  0.51100  0.78100  1.0000
  B   B11       1.0  0.50200  0.25900  0.86300  1.0000
  B   B12       1.0  0.79500  0.29500  0.86400  1.0000
  O   O1        1.0  0.44600  0.26200  0.09700  1.0000
  O   O2        1.0  0.16700  0.30200  0.14100  1.0000
  O   O3        1.0  0.27800  0.04830  0.17900  1.0000
  O   O4        1.0  0.99600  0.08390  0.22700  1.0000
  O   O5        1.0  0.11100  0.83300  0.23300  1.0000
  O   O6        1.0  0.88900  0.33300  0.26700  1.0000
  O   O7        1.0  0.00420  0.58400  0.27300  1.0000
  O   O8        1.0  0.72200  0.54800  0.32100  1.0000
  O   O9        1.0  0.83300  0.80200  0.35900  1.0000
  O   O10       1.0  0.55400  0.76200  0.40300  1.0000
  O   O11       1.0  0.05440  0.73800  0.59700  1.0000
  O   O12       1.0  0.33300  0.69800  0.64100  1.0000
  O   O13       1.0  0.22200  0.95200  0.67900  1.0000
  O   O14       1.0  0.50400  0.91600  0.72700  1.0000
  O   O15       1.0  0.38900  0.16700  0.73300  1.0000
  O   O16       1.0  0.61100  0.66700  0.76700  1.0000
  O   O17       1.0  0.49600  0.41600  0.77300  1.0000
  O   O18       1.0  0.77800  0.45200  0.82100  1.0000
  O   O19       1.0  0.66700  0.19800  0.85900  1.0000
  O   O20       1.0  0.94600  0.23800  0.90300  1.0000
  Rb  Rb1       1.0  0.34400  0.60000  0.13300  1.0000
  Rb  Rb2       1.0  0.65600  0.09950  0.36700  1.0000
  Rb  Rb3       1.0  0.15600  0.40000  0.63300  1.0000
  Rb  Rb4       1.0  0.84400  0.90000  0.86700  1.0000
