data_image0
_chemical_formula_structural       Fe2O24P6Sn2Sr2
_chemical_formula_sum              "Fe2 O24 P6 Sn2 Sr2"
_cell_length_a       8.28613
_cell_length_b       8.28613
_cell_length_c       9.02529
_cell_angle_alpha    62.6741
_cell_angle_beta     117.326
_cell_angle_gamma    120

_space_group_name_H-M_alt    "P 1"
_space_group_IT_number       1

loop_
  _space_group_symop_operation_xyz
  'x, y, z'

loop_
  _atom_site_type_symbol
  _atom_site_label
  _atom_site_symmetry_multiplicity
  _atom_site_fract_x
  _atom_site_fract_y
  _atom_site_fract_z
  _atom_site_occupancy
  Fe  Fe1       1.0  0.15200  0.84800  0.45500  1.0000
  Fe  Fe2       1.0  0.84800  0.15200  0.54500  1.0000
  O   O1        1.0  0.47800  0.10300  0.07340  1.0000
  O   O2        1.0  0.89700  0.30200  0.07340  1.0000
  O   O3        1.0  0.69800  0.52200  0.07340  1.0000
  O   O4        1.0  0.25100  0.38200  0.23900  1.0000
  O   O5        1.0  0.61800  0.62900  0.23900  1.0000
  O   O6        1.0  0.37100  0.74900  0.23900  1.0000
  O   O7        1.0  0.01200  0.03600  0.28200  1.0000
  O   O8        1.0  0.96400  0.69400  0.28200  1.0000
  O   O9        1.0  0.30600  0.98800  0.28200  1.0000
  O   O10       1.0  0.02630  0.27400  0.40300  1.0000
  O   O11       1.0  0.72600  0.34900  0.40300  1.0000
  O   O12       1.0  0.65100  0.97400  0.40300  1.0000
  O   O13       1.0  0.34900  0.02630  0.59700  1.0000
  O   O14       1.0  0.27400  0.65100  0.59700  1.0000
  O   O15       1.0  0.97400  0.72600  0.59700  1.0000
  O   O16       1.0  0.69400  0.01200  0.71800  1.0000
  O   O17       1.0  0.03600  0.30600  0.71800  1.0000
  O   O18       1.0  0.98800  0.96400  0.71800  1.0000
  O   O19       1.0  0.62900  0.25100  0.76100  1.0000
  O   O20       1.0  0.38200  0.37100  0.76100  1.0000
  O   O21       1.0  0.74900  0.61800  0.76100  1.0000
  O   O22       1.0  0.30200  0.47800  0.92700  1.0000
  O   O23       1.0  0.10300  0.69800  0.92700  1.0000
  O   O24       1.0  0.52200  0.89700  0.92700  1.0000
  P   P1        1.0  0.04060  0.24400  0.25500  1.0000
  P   P2        1.0  0.75600  0.54100  0.25500  1.0000
  P   P3        1.0  0.45900  0.95900  0.25500  1.0000
  P   P4        1.0  0.54100  0.04060  0.74500  1.0000
  P   P5        1.0  0.24400  0.45900  0.74500  1.0000
  P   P6        1.0  0.95900  0.75600  0.74500  1.0000
  Sn  Sn1       1.0  0.35300  0.64700  0.05830  1.0000
  Sn  Sn2       1.0  0.64700  0.35300  0.94200  1.0000
  Sr  Sr1       1.0  0.00000  0.00000  0.00000  1.0000
  Sr  Sr2       1.0  0.50000  0.50000  0.50000  1.0000
