data_image0
_chemical_formula_structural       Na4O20Rb4Si8
_chemical_formula_sum              "Na4 O20 Rb4 Si8"
_cell_length_a       4.85146
_cell_length_b       13.5272
_cell_length_c       7.63966
_cell_angle_alpha    89.9987
_cell_angle_beta     90.9323
_cell_angle_gamma    89.9991

_space_group_name_H-M_alt    "P 1"
_space_group_IT_number       1

loop_
  _space_group_symop_operation_xyz
  'x, y, z'

loop_
  _atom_site_type_symbol
  _atom_site_label
  _atom_site_symmetry_multiplicity
  _atom_site_fract_x
  _atom_site_fract_y
  _atom_site_fract_z
  _atom_site_occupancy
  Na  Na1       1.0  0.23000  0.90900  0.03300  1.0000
  Na  Na2       1.0  0.77000  0.40900  0.46700  1.0000
  Na  Na3       1.0  0.23000  0.59100  0.53300  1.0000
  Na  Na4       1.0  0.77000  0.09120  0.96700  1.0000
  O   O1        1.0  0.72600  0.25500  0.00058  1.0000
  O   O2        1.0  0.12600  0.38700  0.07000  1.0000
  O   O3        1.0  0.75700  0.93000  0.08610  1.0000
  O   O4        1.0  0.62800  0.43100  0.17000  1.0000
  O   O5        1.0  0.25100  0.57300  0.17300  1.0000
  O   O6        1.0  0.74900  0.07300  0.32700  1.0000
  O   O7        1.0  0.37200  0.93100  0.33000  1.0000
  O   O8        1.0  0.24300  0.43000  0.41400  1.0000
  O   O9        1.0  0.87400  0.88700  0.43000  1.0000
  O   O10       1.0  0.27400  0.75500  0.49900  1.0000
  O   O11       1.0  0.72600  0.24500  0.50100  1.0000
  O   O12       1.0  0.12600  0.11300  0.57000  1.0000
  O   O13       1.0  0.75700  0.57000  0.58600  1.0000
  O   O14       1.0  0.62800  0.06920  0.67000  1.0000
  O   O15       1.0  0.25100  0.92700  0.67300  1.0000
  O   O16       1.0  0.74900  0.42700  0.82700  1.0000
  O   O17       1.0  0.37200  0.56900  0.83000  1.0000
  O   O18       1.0  0.24300  0.06990  0.91400  1.0000
  O   O19       1.0  0.87400  0.61300  0.93000  1.0000
  O   O20       1.0  0.27400  0.74500  0.99900  1.0000
  Rb  Rb1       1.0  0.27500  0.19700  0.21600  1.0000
  Rb  Rb2       1.0  0.72500  0.69700  0.28400  1.0000
  Rb  Rb3       1.0  0.27500  0.30300  0.71600  1.0000
  Rb  Rb4       1.0  0.72500  0.80300  0.78400  1.0000
  Si  Si1       1.0  0.79600  0.36800  0.01830  1.0000
  Si  Si2       1.0  0.30100  0.45400  0.21500  1.0000
  Si  Si3       1.0  0.69900  0.95400  0.28500  1.0000
  Si  Si4       1.0  0.20400  0.86800  0.48200  1.0000
  Si  Si5       1.0  0.79600  0.13200  0.51800  1.0000
  Si  Si6       1.0  0.30100  0.04620  0.71500  1.0000
  Si  Si7       1.0  0.69900  0.54600  0.78500  1.0000
  Si  Si8       1.0  0.20400  0.63200  0.98200  1.0000
