data_image0
_chemical_formula_structural       Li2MnO6Sn
_chemical_formula_sum              "Li2 Mn1 O6 Sn1"
_cell_length_a       5.24041
_cell_length_b       5.24019
_cell_length_c       4.83698
_cell_angle_alpha    97.683
_cell_angle_beta     97.6827
_cell_angle_gamma    123.102

_space_group_name_H-M_alt    "P 1"
_space_group_IT_number       1

loop_
  _space_group_symop_operation_xyz
  'x, y, z'

loop_
  _atom_site_type_symbol
  _atom_site_label
  _atom_site_symmetry_multiplicity
  _atom_site_fract_x
  _atom_site_fract_y
  _atom_site_fract_z
  _atom_site_occupancy
  Li  Li1       1.0  0.64000  0.36000  0.50000  1.0000
  Li  Li2       1.0  0.36200  0.63800  0.50000  1.0000
  Mn  Mn1       1.0  0.84200  0.15800  0.00000  1.0000
  O   O1        1.0  0.21200  0.23300  0.23200  1.0000
  O   O2        1.0  0.57900  0.94300  0.23900  1.0000
  O   O3        1.0  0.93100  0.53000  0.24500  1.0000
  O   O4        1.0  0.47000  0.06900  0.75500  1.0000
  O   O5        1.0  0.05720  0.42100  0.76100  1.0000
  O   O6        1.0  0.76700  0.78800  0.76800  1.0000
  Sn  Sn1       1.0  0.15800  0.84200  0.00000  1.0000
