data_image0
_chemical_formula_structural       F24K4Na4Si4
_chemical_formula_sum              "F24 K4 Na4 Si4"
_cell_length_a       8.90694
_cell_length_b       5.21996
_cell_length_c       9.29119
_cell_angle_alpha    90
_cell_angle_beta     90
_cell_angle_gamma    90

_space_group_name_H-M_alt    "P 1"
_space_group_IT_number       1

loop_
  _space_group_symop_operation_xyz
  'x, y, z'

loop_
  _atom_site_type_symbol
  _atom_site_label
  _atom_site_symmetry_multiplicity
  _atom_site_fract_x
  _atom_site_fract_y
  _atom_site_fract_z
  _atom_site_occupancy
  F   F1        1.0  0.33100  0.01930  0.02360  1.0000
  F   F2        1.0  0.33100  0.48100  0.02360  1.0000
  F   F3        1.0  0.09940  0.25000  0.05170  1.0000
  F   F4        1.0  0.85000  0.51700  0.16500  1.0000
  F   F5        1.0  0.85000  0.98300  0.16500  1.0000
  F   F6        1.0  0.61700  0.75000  0.19900  1.0000
  F   F7        1.0  0.11700  0.75000  0.30100  1.0000
  F   F8        1.0  0.35000  0.51700  0.33500  1.0000
  F   F9        1.0  0.35000  0.98300  0.33500  1.0000
  F   F10       1.0  0.59900  0.25000  0.44800  1.0000
  F   F11       1.0  0.83100  0.01930  0.47600  1.0000
  F   F12       1.0  0.83100  0.48100  0.47600  1.0000
  F   F13       1.0  0.16900  0.51900  0.52400  1.0000
  F   F14       1.0  0.16900  0.98100  0.52400  1.0000
  F   F15       1.0  0.40100  0.75000  0.55200  1.0000
  F   F16       1.0  0.65000  0.01690  0.66500  1.0000
  F   F17       1.0  0.65000  0.48300  0.66500  1.0000
  F   F18       1.0  0.88300  0.25000  0.69900  1.0000
  F   F19       1.0  0.38300  0.25000  0.80100  1.0000
  F   F20       1.0  0.15000  0.01690  0.83500  1.0000
  F   F21       1.0  0.15000  0.48300  0.83500  1.0000
  F   F22       1.0  0.90100  0.75000  0.94800  1.0000
  F   F23       1.0  0.66900  0.51900  0.97600  1.0000
  F   F24       1.0  0.66900  0.98100  0.97600  1.0000
  K   K1        1.0  0.53600  0.25000  0.17900  1.0000
  K   K2        1.0  0.03570  0.25000  0.32100  1.0000
  K   K3        1.0  0.96400  0.75000  0.67900  1.0000
  K   K4        1.0  0.46400  0.75000  0.82100  1.0000
  Na  Na1       1.0  0.12700  0.75000  0.06040  1.0000
  Na  Na2       1.0  0.62700  0.75000  0.44000  1.0000
  Na  Na3       1.0  0.37300  0.25000  0.56000  1.0000
  Na  Na4       1.0  0.87300  0.25000  0.94000  1.0000
  Si  Si1       1.0  0.75700  0.75000  0.07490  1.0000
  Si  Si2       1.0  0.25700  0.75000  0.42500  1.0000
  Si  Si3       1.0  0.74300  0.25000  0.57500  1.0000
  Si  Si4       1.0  0.24300  0.25000  0.92500  1.0000
