data_image0
_chemical_formula_structural       I4Nb8Te24
_chemical_formula_sum              "I4 Nb8 Te24"
_cell_length_a       9.36247
_cell_length_b       13.9815
_cell_length_c       9.81869
_cell_angle_alpha    90
_cell_angle_beta     112.751
_cell_angle_gamma    90

_space_group_name_H-M_alt    "P 1"
_space_group_IT_number       1

loop_
  _space_group_symop_operation_xyz
  'x, y, z'

loop_
  _atom_site_type_symbol
  _atom_site_label
  _atom_site_symmetry_multiplicity
  _atom_site_fract_x
  _atom_site_fract_y
  _atom_site_fract_z
  _atom_site_occupancy
  I   I1        1.0  0.18700  0.08150  0.15200  1.0000
  I   I2        1.0  0.81300  0.58100  0.34800  1.0000
  I   I3        1.0  0.18700  0.41900  0.65200  1.0000
  I   I4        1.0  0.81300  0.91900  0.84800  1.0000
  Nb  Nb1       1.0  0.17600  0.50800  0.13000  1.0000
  Nb  Nb2       1.0  0.47500  0.02490  0.13100  1.0000
  Nb  Nb3       1.0  0.52500  0.52500  0.36900  1.0000
  Nb  Nb4       1.0  0.82400  0.00775  0.37000  1.0000
  Nb  Nb5       1.0  0.17600  0.99200  0.63000  1.0000
  Nb  Nb6       1.0  0.47500  0.47500  0.63100  1.0000
  Nb  Nb7       1.0  0.52500  0.97500  0.86900  1.0000
  Nb  Nb8       1.0  0.82400  0.49200  0.87000  1.0000
  Te  Te1       1.0  0.95600  0.66200  0.02830  1.0000
  Te  Te2       1.0  0.75800  0.09850  0.08960  1.0000
  Te  Te3       1.0  0.45400  0.43500  0.09050  1.0000
  Te  Te4       1.0  0.65000  0.86200  0.14300  1.0000
  Te  Te5       1.0  0.91600  0.41500  0.16100  1.0000
  Te  Te6       1.0  0.37500  0.68800  0.22900  1.0000
  Te  Te7       1.0  0.62500  0.18800  0.27100  1.0000
  Te  Te8       1.0  0.08430  0.91500  0.33900  1.0000
  Te  Te9       1.0  0.35000  0.36200  0.35700  1.0000
  Te  Te10      1.0  0.54600  0.93500  0.41000  1.0000
  Te  Te11      1.0  0.24200  0.59800  0.41000  1.0000
  Te  Te12      1.0  0.04390  0.16200  0.47200  1.0000
  Te  Te13      1.0  0.95600  0.83800  0.52800  1.0000
  Te  Te14      1.0  0.75800  0.40200  0.59000  1.0000
  Te  Te15      1.0  0.45400  0.06490  0.59000  1.0000
  Te  Te16      1.0  0.65000  0.63800  0.64300  1.0000
  Te  Te17      1.0  0.91600  0.08500  0.66100  1.0000
  Te  Te18      1.0  0.37500  0.81200  0.72900  1.0000
  Te  Te19      1.0  0.62500  0.31200  0.77100  1.0000
  Te  Te20      1.0  0.08430  0.58500  0.83900  1.0000
  Te  Te21      1.0  0.35000  0.13800  0.85700  1.0000
  Te  Te22      1.0  0.54600  0.56500  0.91000  1.0000
  Te  Te23      1.0  0.24200  0.90200  0.91000  1.0000
  Te  Te24      1.0  0.04390  0.33800  0.97200  1.0000
