data_image0
_chemical_formula_structural       C4Cl4F12O12S4
_chemical_formula_sum              "C4 Cl4 F12 O12 S4"
_cell_length_a       4.61625
_cell_length_b       20.9677
_cell_length_c       4.71647
_cell_angle_alpha    89.999
_cell_angle_beta     112.471
_cell_angle_gamma    90.0008

_space_group_name_H-M_alt    "P 1"
_space_group_IT_number       1

loop_
  _space_group_symop_operation_xyz
  'x, y, z'

loop_
  _atom_site_type_symbol
  _atom_site_label
  _atom_site_symmetry_multiplicity
  _atom_site_fract_x
  _atom_site_fract_y
  _atom_site_fract_z
  _atom_site_occupancy
  C   C1        1.0  0.27600  0.56700  0.19200  1.0000
  C   C2        1.0  0.72300  0.06700  0.30700  1.0000
  C   C3        1.0  0.27600  0.93300  0.69200  1.0000
  C   C4        1.0  0.72300  0.43300  0.80800  1.0000
  Cl  Cl1       1.0  0.08830  0.80800  0.15900  1.0000
  Cl  Cl2       1.0  0.91300  0.30900  0.34200  1.0000
  Cl  Cl3       1.0  0.08830  0.69200  0.65900  1.0000
  Cl  Cl4       1.0  0.91300  0.19100  0.84200  1.0000
  F   F1        1.0  0.89500  0.44800  0.10000  1.0000
  F   F2        1.0  0.88400  0.05570  0.13100  1.0000
  F   F3        1.0  0.46100  0.03180  0.21500  1.0000
  F   F4        1.0  0.53700  0.53200  0.28400  1.0000
  F   F5        1.0  0.11500  0.55600  0.36800  1.0000
  F   F6        1.0  0.10400  0.94800  0.39900  1.0000
  F   F7        1.0  0.89500  0.05180  0.60000  1.0000
  F   F8        1.0  0.88400  0.44400  0.63100  1.0000
  F   F9        1.0  0.46100  0.46800  0.71500  1.0000
  F   F10       1.0  0.53700  0.96800  0.78400  1.0000
  F   F11       1.0  0.11500  0.94400  0.86800  1.0000
  F   F12       1.0  0.10400  0.55200  0.89900  1.0000
  O   O1        1.0  0.36500  0.38100  0.12300  1.0000
  O   O2        1.0  0.63000  0.72100  0.15200  1.0000
  O   O3        1.0  0.34900  0.63200  0.22600  1.0000
  O   O4        1.0  0.65100  0.13200  0.27400  1.0000
  O   O5        1.0  0.37100  0.22100  0.34900  1.0000
  O   O6        1.0  0.63600  0.88100  0.37800  1.0000
  O   O7        1.0  0.36500  0.11900  0.62300  1.0000
  O   O8        1.0  0.63000  0.77900  0.65200  1.0000
  O   O9        1.0  0.35000  0.86800  0.72600  1.0000
  O   O10       1.0  0.65000  0.36800  0.77400  1.0000
  O   O11       1.0  0.37100  0.27900  0.85000  1.0000
  O   O12       1.0  0.63600  0.61900  0.87800  1.0000
  S   S1        1.0  0.52100  0.33500  0.01220  1.0000
  S   S2        1.0  0.47900  0.83500  0.48900  1.0000
  S   S3        1.0  0.52100  0.16500  0.51200  1.0000
  S   S4        1.0  0.47900  0.66500  0.98900  1.0000
