data_image0
_chemical_formula_structural       LiMnO6Zr
_chemical_formula_sum              "Li1 Mn1 O6 Zr1"
_cell_length_a       5.5248
_cell_length_b       5.5248
_cell_length_c       3.96056
_cell_angle_alpha    104.659
_cell_angle_beta     104.659
_cell_angle_gamma    119.432

_space_group_name_H-M_alt    "P 1"
_space_group_IT_number       1

loop_
  _space_group_symop_operation_xyz
  'x, y, z'

loop_
  _atom_site_type_symbol
  _atom_site_label
  _atom_site_symmetry_multiplicity
  _atom_site_fract_x
  _atom_site_fract_y
  _atom_site_fract_z
  _atom_site_occupancy
  Li  Li1       1.0  0.50600  0.49400  0.00000  1.0000
  Mn  Mn1       1.0  0.82700  0.17300  0.00000  1.0000
  O   O1        1.0  0.61500  0.92900  0.22000  1.0000
  O   O2        1.0  0.23100  0.26500  0.24800  1.0000
  O   O3        1.0  0.92800  0.57400  0.29700  1.0000
  O   O4        1.0  0.42600  0.07210  0.70300  1.0000
  O   O5        1.0  0.73500  0.76900  0.75200  1.0000
  O   O6        1.0  0.07080  0.38500  0.78000  1.0000
  Zr  Zr1       1.0  0.16700  0.83300  0.00000  1.0000
