data_image0
_chemical_formula_structural       Na4O24W6Zr2
_chemical_formula_sum              "Na4 O24 W6 Zr2"
_cell_length_a       5.02523
_cell_length_b       5.02523
_cell_length_c       18.6096
_cell_angle_alpha    97.7596
_cell_angle_beta     97.7596
_cell_angle_gamma    90

_space_group_name_H-M_alt    "P 1"
_space_group_IT_number       1

loop_
  _space_group_symop_operation_xyz
  'x, y, z'

loop_
  _atom_site_type_symbol
  _atom_site_label
  _atom_site_symmetry_multiplicity
  _atom_site_fract_x
  _atom_site_fract_y
  _atom_site_fract_z
  _atom_site_occupancy
  Na  Na1       1.0  0.51000  0.51000  0.02020  1.0000
  Na  Na2       1.0  0.57500  0.07460  0.14900  1.0000
  Na  Na3       1.0  0.76000  0.26000  0.52000  1.0000
  Na  Na4       1.0  0.32500  0.32500  0.64900  1.0000
  O   O1        1.0  0.77600  0.16600  0.04890  1.0000
  O   O2        1.0  0.27300  0.88300  0.04890  1.0000
  O   O3        1.0  0.30000  0.42500  0.12600  1.0000
  O   O4        1.0  0.82600  0.70100  0.12600  1.0000
  O   O5        1.0  0.92600  0.31100  0.22300  1.0000
  O   O6        1.0  0.29700  0.91200  0.22300  1.0000
  O   O7        1.0  0.38800  0.43400  0.28700  1.0000
  O   O8        1.0  0.89900  0.85200  0.28700  1.0000
  O   O9        1.0  0.40900  0.00924  0.36900  1.0000
  O   O10       1.0  0.95900  0.36000  0.36900  1.0000
  O   O11       1.0  0.49600  0.56300  0.44300  1.0000
  O   O12       1.0  0.94700  0.87900  0.44300  1.0000
  O   O13       1.0  0.41600  0.02270  0.54900  1.0000
  O   O14       1.0  0.13300  0.52600  0.54900  1.0000
  O   O15       1.0  0.95100  0.05010  0.62600  1.0000
  O   O16       1.0  0.67500  0.57600  0.62600  1.0000
  O   O17       1.0  0.56100  0.04710  0.72300  1.0000
  O   O18       1.0  0.16200  0.67600  0.72300  1.0000
  O   O19       1.0  0.10200  0.13800  0.78700  1.0000
  O   O20       1.0  0.68400  0.64900  0.78700  1.0000
  O   O21       1.0  0.61000  0.15900  0.86900  1.0000
  O   O22       1.0  0.25900  0.70900  0.86900  1.0000
  O   O23       1.0  0.12900  0.24600  0.94300  1.0000
  O   O24       1.0  0.81300  0.69700  0.94300  1.0000
  W   W1        1.0  0.09260  0.59300  0.18500  1.0000
  W   W2        1.0  0.15300  0.15300  0.30600  1.0000
  W   W3        1.0  0.24700  0.74700  0.49400  1.0000
  W   W4        1.0  0.84300  0.84300  0.68500  1.0000
  W   W5        1.0  0.40300  0.90300  0.80600  1.0000
  W   W6        1.0  0.99700  0.99700  0.99400  1.0000
  Zr  Zr1       1.0  0.67700  0.67700  0.35500  1.0000
  Zr  Zr2       1.0  0.92700  0.42700  0.85500  1.0000
