data_image0
_chemical_formula_structural       LiMnO6Si
_chemical_formula_sum              "Li1 Mn1 O6 Si1"
_cell_length_a       4.93177
_cell_length_b       4.93177
_cell_length_c       4.46761
_cell_angle_alpha    100.916
_cell_angle_beta     100.916
_cell_angle_gamma    119.976

_space_group_name_H-M_alt    "P 1"
_space_group_IT_number       1

loop_
  _space_group_symop_operation_xyz
  'x, y, z'

loop_
  _atom_site_type_symbol
  _atom_site_label
  _atom_site_symmetry_multiplicity
  _atom_site_fract_x
  _atom_site_fract_y
  _atom_site_fract_z
  _atom_site_occupancy
  Li  Li1       1.0  0.50000  0.50000  0.00000  1.0000
  Mn  Mn1       1.0  0.83300  0.16700  0.00000  1.0000
  O   O1        1.0  0.23500  0.21200  0.22000  1.0000
  O   O2        1.0  0.93900  0.59900  0.22100  1.0000
  O   O3        1.0  0.55400  0.91800  0.22200  1.0000
  O   O4        1.0  0.08220  0.44600  0.77800  1.0000
  O   O5        1.0  0.40100  0.06080  0.77900  1.0000
  O   O6        1.0  0.78800  0.76500  0.78000  1.0000
  Si  Si1       1.0  0.16700  0.83300  0.00000  1.0000
