data_image0
_chemical_formula_structural       Li2MnO6Os
_chemical_formula_sum              "Li2 Mn1 O6 Os1"
_cell_length_a       5.15468
_cell_length_b       5.15468
_cell_length_c       4.87539
_cell_angle_alpha    97.511
_cell_angle_beta     97.511
_cell_angle_gamma    123.067

_space_group_name_H-M_alt    "P 1"
_space_group_IT_number       1

loop_
  _space_group_symop_operation_xyz
  'x, y, z'

loop_
  _atom_site_type_symbol
  _atom_site_label
  _atom_site_symmetry_multiplicity
  _atom_site_fract_x
  _atom_site_fract_y
  _atom_site_fract_z
  _atom_site_occupancy
  Li  Li1       1.0  0.65400  0.34600  0.50000  1.0000
  Li  Li2       1.0  0.36200  0.63800  0.50000  1.0000
  Mn  Mn1       1.0  0.83300  0.16700  0.00000  1.0000
  O   O1        1.0  0.22400  0.21700  0.22400  1.0000
  O   O2        1.0  0.55700  0.94600  0.23600  1.0000
  O   O3        1.0  0.95400  0.57700  0.23700  1.0000
  O   O4        1.0  0.42300  0.04620  0.76300  1.0000
  O   O5        1.0  0.05430  0.44300  0.76400  1.0000
  O   O6        1.0  0.78300  0.77600  0.77600  1.0000
  Os  Os1       1.0  0.15500  0.84500  0.00000  1.0000
