data_image0
_chemical_formula_structural       O24Rb2Se4V6
_chemical_formula_sum              "O24 Rb2 Se4 V6"
_cell_length_a       7.05584
_cell_length_b       7.05597
_cell_length_c       11.2858
_cell_angle_alpha    90
_cell_angle_beta     90
_cell_angle_gamma    120

_space_group_name_H-M_alt    "P 1"
_space_group_IT_number       1

loop_
  _space_group_symop_operation_xyz
  'x, y, z'

loop_
  _atom_site_type_symbol
  _atom_site_label
  _atom_site_symmetry_multiplicity
  _atom_site_fract_x
  _atom_site_fract_y
  _atom_site_fract_z
  _atom_site_occupancy
  O   O1        1.0  0.19900  0.78700  0.04090  1.0000
  O   O2        1.0  0.21300  0.41200  0.04090  1.0000
  O   O3        1.0  0.58800  0.80100  0.04090  1.0000
  O   O4        1.0  0.87400  0.74700  0.17600  1.0000
  O   O5        1.0  0.87300  0.12600  0.17600  1.0000
  O   O6        1.0  0.25300  0.12700  0.17600  1.0000
  O   O7        1.0  0.45800  0.53800  0.23700  1.0000
  O   O8        1.0  0.46200  0.92000  0.23700  1.0000
  O   O9        1.0  0.08030  0.54200  0.23700  1.0000
  O   O10       1.0  0.74400  0.87800  0.37200  1.0000
  O   O11       1.0  0.13400  0.25600  0.37200  1.0000
  O   O12       1.0  0.12200  0.86600  0.37200  1.0000
  O   O13       1.0  0.80100  0.21300  0.54100  1.0000
  O   O14       1.0  0.41200  0.19900  0.54100  1.0000
  O   O15       1.0  0.78700  0.58800  0.54100  1.0000
  O   O16       1.0  0.12600  0.25300  0.67600  1.0000
  O   O17       1.0  0.74700  0.87300  0.67600  1.0000
  O   O18       1.0  0.12700  0.87400  0.67600  1.0000
  O   O19       1.0  0.53800  0.08030  0.73700  1.0000
  O   O20       1.0  0.92000  0.45800  0.73700  1.0000
  O   O21       1.0  0.54200  0.46200  0.73700  1.0000
  O   O22       1.0  0.25600  0.12200  0.87200  1.0000
  O   O23       1.0  0.87800  0.13400  0.87200  1.0000
  O   O24       1.0  0.86600  0.74400  0.87200  1.0000
  Rb  Rb1       1.0  0.66700  0.33300  0.02890  1.0000
  Rb  Rb2       1.0  0.33300  0.66700  0.52900  1.0000
  Se  Se1       1.0  0.00000  0.00000  0.43900  1.0000
  Se  Se2       1.0  0.66700  0.33300  0.47400  1.0000
  Se  Se3       1.0  0.00000  0.00000  0.93900  1.0000
  Se  Se4       1.0  0.33300  0.66700  0.97400  1.0000
  V   V1        1.0  0.66600  0.79500  0.20900  1.0000
  V   V2        1.0  0.12800  0.33400  0.20900  1.0000
  V   V3        1.0  0.20500  0.87200  0.20900  1.0000
  V   V4        1.0  0.33400  0.20500  0.70900  1.0000
  V   V5        1.0  0.87200  0.66600  0.70900  1.0000
  V   V6        1.0  0.79500  0.12800  0.70900  1.0000
