data_image0
_chemical_formula_structural       Ga8Sn6Sr22
_chemical_formula_sum              "Ga8 Sn6 Sr22"
_cell_length_a       12.1862
_cell_length_b       12.1862
_cell_length_c       12.1862
_cell_angle_alpha    120
_cell_angle_beta     90
_cell_angle_gamma    120

_space_group_name_H-M_alt    "P 1"
_space_group_IT_number       1

loop_
  _space_group_symop_operation_xyz
  'x, y, z'

loop_
  _atom_site_type_symbol
  _atom_site_label
  _atom_site_symmetry_multiplicity
  _atom_site_fract_x
  _atom_site_fract_y
  _atom_site_fract_z
  _atom_site_occupancy
  Ga  Ga1       1.0  0.69400  0.38700  0.08070  1.0000
  Ga  Ga2       1.0  0.69400  0.38700  0.30600  1.0000
  Ga  Ga3       1.0  0.69400  0.61300  0.30600  1.0000
  Ga  Ga4       1.0  0.91900  0.61300  0.30600  1.0000
  Ga  Ga5       1.0  0.08070  0.38700  0.69400  1.0000
  Ga  Ga6       1.0  0.30600  0.38700  0.69400  1.0000
  Ga  Ga7       1.0  0.30600  0.61300  0.69400  1.0000
  Ga  Ga8       1.0  0.30600  0.61300  0.91900  1.0000
  Sn  Sn1       1.0  0.21700  0.00000  0.21700  1.0000
  Sn  Sn2       1.0  0.78300  0.00000  0.21700  1.0000
  Sn  Sn3       1.0  0.21700  0.43400  0.21700  1.0000
  Sn  Sn4       1.0  0.21700  0.00000  0.78300  1.0000
  Sn  Sn5       1.0  0.78300  0.56600  0.78300  1.0000
  Sn  Sn6       1.0  0.78300  0.00000  0.78300  1.0000
  Sr  Sr1       1.0  0.00000  0.00000  0.00000  1.0000
  Sr  Sr2       1.0  0.39300  0.26200  0.13100  1.0000
  Sr  Sr3       1.0  0.86900  0.26200  0.13100  1.0000
  Sr  Sr4       1.0  0.86900  0.73800  0.13100  1.0000
  Sr  Sr5       1.0  0.50000  0.00000  0.16500  1.0000
  Sr  Sr6       1.0  0.16500  0.66500  0.16500  1.0000
  Sr  Sr7       1.0  0.50000  0.66500  0.16500  1.0000
  Sr  Sr8       1.0  0.13100  0.26200  0.39300  1.0000
  Sr  Sr9       1.0  0.50000  0.00000  0.50000  1.0000
  Sr  Sr10      1.0  0.83500  0.33500  0.50000  1.0000
  Sr  Sr11      1.0  0.83500  0.00000  0.50000  1.0000
  Sr  Sr12      1.0  0.16500  0.00000  0.50000  1.0000
  Sr  Sr13      1.0  0.50000  0.33500  0.50000  1.0000
  Sr  Sr14      1.0  0.16500  0.66500  0.50000  1.0000
  Sr  Sr15      1.0  0.50000  0.66500  0.50000  1.0000
  Sr  Sr16      1.0  0.86900  0.73800  0.60700  1.0000
  Sr  Sr17      1.0  0.50000  0.33500  0.83500  1.0000
  Sr  Sr18      1.0  0.50000  1.00000  0.83500  1.0000
  Sr  Sr19      1.0  0.83500  0.33500  0.83500  1.0000
  Sr  Sr20      1.0  0.13100  0.26200  0.86900  1.0000
  Sr  Sr21      1.0  0.13100  0.73800  0.86900  1.0000
  Sr  Sr22      1.0  0.60700  0.73800  0.86900  1.0000
