data_image0
_chemical_formula_structural       As4Cu4H4O20Zn4
_chemical_formula_sum              "As4 Cu4 H4 O20 Zn4"
_cell_length_a       8.53354
_cell_length_b       8.51861
_cell_length_c       5.98694
_cell_angle_alpha    90
_cell_angle_beta     90
_cell_angle_gamma    90

_space_group_name_H-M_alt    "P 1"
_space_group_IT_number       1

loop_
  _space_group_symop_operation_xyz
  'x, y, z'

loop_
  _atom_site_type_symbol
  _atom_site_label
  _atom_site_symmetry_multiplicity
  _atom_site_fract_x
  _atom_site_fract_y
  _atom_site_fract_z
  _atom_site_occupancy
  As  As1       1.0  0.74400  0.26200  0.00000  1.0000
  As  As2       1.0  0.25600  0.73800  0.00000  1.0000
  As  As3       1.0  0.24400  0.23800  0.50000  1.0000
  As  As4       1.0  0.75600  0.76200  0.50000  1.0000
  Cu  Cu1       1.0  0.00000  0.00000  0.24200  1.0000
  Cu  Cu2       1.0  0.50000  0.50000  0.25800  1.0000
  Cu  Cu3       1.0  0.50000  0.50000  0.74200  1.0000
  Cu  Cu4       1.0  0.00000  0.00000  0.75800  1.0000
  H   H1        1.0  0.20700  0.07040  0.00000  1.0000
  H   H2        1.0  0.79300  0.93000  0.00000  1.0000
  H   H3        1.0  0.70700  0.43000  0.50000  1.0000
  H   H4        1.0  0.29300  0.57000  0.50000  1.0000
  O   O1        1.0  0.10300  0.11900  0.00000  1.0000
  O   O2        1.0  0.57400  0.37700  0.00000  1.0000
  O   O3        1.0  0.89600  0.39400  0.00000  1.0000
  O   O4        1.0  0.10400  0.60600  0.00000  1.0000
  O   O5        1.0  0.42600  0.62300  0.00000  1.0000
  O   O6        1.0  0.89700  0.88100  0.00000  1.0000
  O   O7        1.0  0.75700  0.14000  0.22600  1.0000
  O   O8        1.0  0.24300  0.86000  0.22600  1.0000
  O   O9        1.0  0.25700  0.36000  0.27400  1.0000
  O   O10       1.0  0.74300  0.64000  0.27400  1.0000
  O   O11       1.0  0.39600  0.10600  0.50000  1.0000
  O   O12       1.0  0.07410  0.12300  0.50000  1.0000
  O   O13       1.0  0.60300  0.38100  0.50000  1.0000
  O   O14       1.0  0.39700  0.61900  0.50000  1.0000
  O   O15       1.0  0.92600  0.87700  0.50000  1.0000
  O   O16       1.0  0.60400  0.89400  0.50000  1.0000
  O   O17       1.0  0.25700  0.36000  0.72600  1.0000
  O   O18       1.0  0.74300  0.64000  0.72600  1.0000
  O   O19       1.0  0.75700  0.14000  0.77400  1.0000
  O   O20       1.0  0.24300  0.86000  0.77400  1.0000
  Zn  Zn1       1.0  0.12800  0.36300  0.00000  1.0000
  Zn  Zn2       1.0  0.87200  0.63700  0.00000  1.0000
  Zn  Zn3       1.0  0.62800  0.13700  0.50000  1.0000
  Zn  Zn4       1.0  0.37200  0.86300  0.50000  1.0000
