data_image0
_chemical_formula_structural       O24Pu4Te8
_chemical_formula_sum              "O24 Pu4 Te8"
_cell_length_a       6.96652
_cell_length_b       11.0145
_cell_length_c       7.24066
_cell_angle_alpha    90
_cell_angle_beta     108.147
_cell_angle_gamma    90

_space_group_name_H-M_alt    "P 1"
_space_group_IT_number       1

loop_
  _space_group_symop_operation_xyz
  'x, y, z'

loop_
  _atom_site_type_symbol
  _atom_site_label
  _atom_site_symmetry_multiplicity
  _atom_site_fract_x
  _atom_site_fract_y
  _atom_site_fract_z
  _atom_site_occupancy
  O   O1        1.0  0.42800  0.90400  0.02850  1.0000
  O   O2        1.0  0.09320  0.90400  0.08520  1.0000
  O   O3        1.0  0.66700  0.72100  0.11200  1.0000
  O   O4        1.0  0.13400  0.25100  0.16900  1.0000
  O   O5        1.0  0.03940  0.59600  0.17300  1.0000
  O   O6        1.0  0.66600  0.47000  0.19200  1.0000
  O   O7        1.0  0.83400  0.97000  0.30800  1.0000
  O   O8        1.0  0.46100  0.09590  0.32700  1.0000
  O   O9        1.0  0.36600  0.75100  0.33100  1.0000
  O   O10       1.0  0.83300  0.22100  0.38800  1.0000
  O   O11       1.0  0.40700  0.40400  0.41500  1.0000
  O   O12       1.0  0.07210  0.40400  0.47100  1.0000
  O   O13       1.0  0.92800  0.59600  0.52900  1.0000
  O   O14       1.0  0.59300  0.59600  0.58500  1.0000
  O   O15       1.0  0.16700  0.77900  0.61200  1.0000
  O   O16       1.0  0.63400  0.24900  0.66900  1.0000
  O   O17       1.0  0.53900  0.90400  0.67300  1.0000
  O   O18       1.0  0.16600  0.02990  0.69200  1.0000
  O   O19       1.0  0.33400  0.53000  0.80800  1.0000
  O   O20       1.0  0.96100  0.40400  0.82700  1.0000
  O   O21       1.0  0.86600  0.74900  0.83100  1.0000
  O   O22       1.0  0.33300  0.27900  0.88800  1.0000
  O   O23       1.0  0.90700  0.09610  0.91500  1.0000
  O   O24       1.0  0.57200  0.09640  0.97100  1.0000
  Pu  Pu1       1.0  0.25600  0.09120  0.00348  1.0000
  Pu  Pu2       1.0  0.24400  0.59100  0.49700  1.0000
  Pu  Pu3       1.0  0.75600  0.40900  0.50300  1.0000
  Pu  Pu4       1.0  0.74400  0.90900  0.99700  1.0000
  Te  Te1       1.0  0.75900  0.57500  0.02360  1.0000
  Te  Te2       1.0  0.26200  0.77000  0.05530  1.0000
  Te  Te3       1.0  0.23800  0.27000  0.44500  1.0000
  Te  Te4       1.0  0.74100  0.07480  0.47600  1.0000
  Te  Te5       1.0  0.25900  0.92500  0.52400  1.0000
  Te  Te6       1.0  0.76200  0.73000  0.55500  1.0000
  Te  Te7       1.0  0.73800  0.23000  0.94500  1.0000
  Te  Te8       1.0  0.24100  0.42500  0.97600  1.0000
