data_image0
_chemical_formula_structural       Cs4H4O20Si8
_chemical_formula_sum              "Cs4 H4 O20 Si8"
_cell_length_a       13.728
_cell_length_b       8.65699
_cell_length_c       4.94855
_cell_angle_alpha    90
_cell_angle_beta     111.091
_cell_angle_gamma    90

_space_group_name_H-M_alt    "P 1"
_space_group_IT_number       1

loop_
  _space_group_symop_operation_xyz
  'x, y, z'

loop_
  _atom_site_type_symbol
  _atom_site_label
  _atom_site_symmetry_multiplicity
  _atom_site_fract_x
  _atom_site_fract_y
  _atom_site_fract_z
  _atom_site_occupancy
  Cs  Cs1       1.0  0.94500  0.25000  0.36800  1.0000
  Cs  Cs2       1.0  0.55500  0.25000  0.47800  1.0000
  Cs  Cs3       1.0  0.44500  0.75000  0.52200  1.0000
  Cs  Cs4       1.0  0.05540  0.75000  0.63200  1.0000
  H   H1        1.0  0.00000  0.00000  0.00000  1.0000
  H   H2        1.0  0.50000  0.00000  0.00000  1.0000
  H   H3        1.0  0.00000  0.50000  0.00000  1.0000
  H   H4        1.0  0.50000  0.50000  0.00000  1.0000
  O   O1        1.0  0.41900  0.53300  0.03050  1.0000
  O   O2        1.0  0.41900  0.96700  0.03050  1.0000
  O   O3        1.0  0.78400  0.52700  0.06840  1.0000
  O   O4        1.0  0.78400  0.97300  0.06840  1.0000
  O   O5        1.0  0.65500  0.75000  0.10300  1.0000
  O   O6        1.0  0.08080  0.53400  0.19100  1.0000
  O   O7        1.0  0.08080  0.96600  0.19100  1.0000
  O   O8        1.0  0.15500  0.25000  0.21200  1.0000
  O   O9        1.0  0.28400  0.02490  0.50000  1.0000
  O   O10       1.0  0.28400  0.47500  0.50000  1.0000
  O   O11       1.0  0.71600  0.52500  0.50000  1.0000
  O   O12       1.0  0.71600  0.97500  0.50000  1.0000
  O   O13       1.0  0.84500  0.75000  0.78800  1.0000
  O   O14       1.0  0.91900  0.03370  0.80900  1.0000
  O   O15       1.0  0.91900  0.46600  0.80900  1.0000
  O   O16       1.0  0.34500  0.25000  0.89700  1.0000
  O   O17       1.0  0.21600  0.02670  0.93200  1.0000
  O   O18       1.0  0.21600  0.47300  0.93200  1.0000
  O   O19       1.0  0.58100  0.03330  0.97000  1.0000
  O   O20       1.0  0.58100  0.46700  0.97000  1.0000
  Si  Si1       1.0  0.68100  0.56500  0.15300  1.0000
  Si  Si2       1.0  0.68100  0.93500  0.15300  1.0000
  Si  Si3       1.0  0.18100  0.06540  0.21000  1.0000
  Si  Si4       1.0  0.18100  0.43500  0.21000  1.0000
  Si  Si5       1.0  0.81900  0.56500  0.79000  1.0000
  Si  Si6       1.0  0.81900  0.93500  0.79000  1.0000
  Si  Si7       1.0  0.31900  0.06530  0.84700  1.0000
  Si  Si8       1.0  0.31900  0.43500  0.84700  1.0000
