data_image0
_chemical_formula_structural       Ba8Sb4Se22Si2
_chemical_formula_sum              "Ba8 Sb4 Se22 Si2"
_cell_length_a       13.8066
_cell_length_b       9.52008
_cell_length_c       8.9483
_cell_angle_alpha    90
_cell_angle_beta     90
_cell_angle_gamma    110.167

_space_group_name_H-M_alt    "P 1"
_space_group_IT_number       1

loop_
  _space_group_symop_operation_xyz
  'x, y, z'

loop_
  _atom_site_type_symbol
  _atom_site_label
  _atom_site_symmetry_multiplicity
  _atom_site_fract_x
  _atom_site_fract_y
  _atom_site_fract_z
  _atom_site_occupancy
  Ba  Ba1       1.0  0.42100  0.45800  0.00225  1.0000
  Ba  Ba2       1.0  0.42100  0.96300  0.00225  1.0000
  Ba  Ba3       1.0  0.92100  0.21400  0.26000  1.0000
  Ba  Ba4       1.0  0.92100  0.70700  0.26000  1.0000
  Ba  Ba5       1.0  0.57900  0.03710  0.50200  1.0000
  Ba  Ba6       1.0  0.57900  0.54200  0.50200  1.0000
  Ba  Ba7       1.0  0.07870  0.29300  0.76000  1.0000
  Ba  Ba8       1.0  0.07870  0.78600  0.76000  1.0000
  Sb  Sb1       1.0  0.29000  0.14500  0.43000  1.0000
  Sb  Sb2       1.0  0.29500  0.64800  0.43300  1.0000
  Sb  Sb3       1.0  0.71000  0.85500  0.93000  1.0000
  Sb  Sb4       1.0  0.70500  0.35200  0.93300  1.0000
  Se  Se1       1.0  0.99000  0.99500  0.01780  1.0000
  Se  Se2       1.0  0.67400  0.11700  0.10400  1.0000
  Se  Se3       1.0  0.67400  0.55600  0.10400  1.0000
  Se  Se4       1.0  0.10900  0.55500  0.10700  1.0000
  Se  Se5       1.0  0.19900  0.29100  0.23900  1.0000
  Se  Se6       1.0  0.19900  0.90800  0.23900  1.0000
  Se  Se7       1.0  0.46500  0.73300  0.27600  1.0000
  Se  Se8       1.0  0.46600  0.23300  0.29100  1.0000
  Se  Se9       1.0  0.74900  0.87500  0.37500  1.0000
  Se  Se10      1.0  0.76700  0.38300  0.40600  1.0000
  Se  Se11      1.0  0.05770  0.52900  0.47800  1.0000
  Se  Se12      1.0  0.01030  0.00515  0.51800  1.0000
  Se  Se13      1.0  0.32600  0.44400  0.60400  1.0000
  Se  Se14      1.0  0.32600  0.88300  0.60400  1.0000
  Se  Se15      1.0  0.89100  0.44500  0.60700  1.0000
  Se  Se16      1.0  0.80100  0.09170  0.73900  1.0000
  Se  Se17      1.0  0.80100  0.70900  0.73900  1.0000
  Se  Se18      1.0  0.53500  0.26700  0.77600  1.0000
  Se  Se19      1.0  0.53400  0.76700  0.79100  1.0000
  Se  Se20      1.0  0.25100  0.12500  0.87500  1.0000
  Se  Se21      1.0  0.23300  0.61700  0.90600  1.0000
  Se  Se22      1.0  0.94200  0.47100  0.97800  1.0000
  Si  Si1       1.0  0.15900  0.07960  0.09210  1.0000
  Si  Si2       1.0  0.84100  0.92000  0.59200  1.0000
