data_image0
_chemical_formula_structural       Br12C4Eu8Li4N8
_chemical_formula_sum              "Br12 C4 Eu8 Li4 N8"
_cell_length_a       10.1072
_cell_length_b       10.1072
_cell_length_c       10.1072
_cell_angle_alpha    120
_cell_angle_beta     90
_cell_angle_gamma    120

_space_group_name_H-M_alt    "P 1"
_space_group_IT_number       1

loop_
  _space_group_symop_operation_xyz
  'x, y, z'

loop_
  _atom_site_type_symbol
  _atom_site_label
  _atom_site_symmetry_multiplicity
  _atom_site_fract_x
  _atom_site_fract_y
  _atom_site_fract_z
  _atom_site_occupancy
  Br  Br1       1.0  0.92700  0.35400  0.17700  1.0000
  Br  Br2       1.0  0.92700  0.75000  0.17700  1.0000
  Br  Br3       1.0  0.32300  0.75000  0.17700  1.0000
  Br  Br4       1.0  0.07310  0.25000  0.42700  1.0000
  Br  Br5       1.0  0.67700  0.85400  0.42700  1.0000
  Br  Br6       1.0  0.67700  0.25000  0.42700  1.0000
  Br  Br7       1.0  0.32300  0.14600  0.57300  1.0000
  Br  Br8       1.0  0.32300  0.75000  0.57300  1.0000
  Br  Br9       1.0  0.92700  0.75000  0.57300  1.0000
  Br  Br10      1.0  0.07310  0.25000  0.82300  1.0000
  Br  Br11      1.0  0.67700  0.25000  0.82300  1.0000
  Br  Br12      1.0  0.07310  0.64600  0.82300  1.0000
  C   C1        1.0  0.00000  0.00000  0.00000  1.0000
  C   C2        1.0  0.50000  0.00000  0.00000  1.0000
  C   C3        1.0  0.50000  0.50000  0.00000  1.0000
  C   C4        1.0  0.50000  0.50000  0.50000  1.0000
  Eu  Eu1       1.0  0.72100  0.94300  0.16400  1.0000
  Eu  Eu2       1.0  0.27900  0.05740  0.22100  1.0000
  Eu  Eu3       1.0  0.27900  0.44300  0.22100  1.0000
  Eu  Eu4       1.0  0.66400  0.44300  0.22100  1.0000
  Eu  Eu5       1.0  0.72100  0.55700  0.77900  1.0000
  Eu  Eu6       1.0  0.72100  0.94300  0.77900  1.0000
  Eu  Eu7       1.0  0.33600  0.55700  0.77900  1.0000
  Eu  Eu8       1.0  0.27900  0.05740  0.83600  1.0000
  Li  Li1       1.0  0.00000  0.50000  0.00000  1.0000
  Li  Li2       1.0  0.00000  0.00000  0.50000  1.0000
  Li  Li3       1.0  0.50000  0.00000  0.50000  1.0000
  Li  Li4       1.0  0.00000  0.50000  0.50000  1.0000
  N   N1        1.0  0.15000  0.09970  0.04980  1.0000
  N   N2        1.0  0.45000  0.09970  0.04980  1.0000
  N   N3        1.0  0.45000  0.40000  0.04980  1.0000
  N   N4        1.0  0.45000  0.40000  0.35000  1.0000
  N   N5        1.0  0.55000  0.60000  0.65000  1.0000
  N   N6        1.0  0.55000  0.60000  0.95000  1.0000
  N   N7        1.0  0.55000  0.90000  0.95000  1.0000
  N   N8        1.0  0.85000  0.90000  0.95000  1.0000
