data_image0
_chemical_formula_structural       Gd4Ni14
_chemical_formula_sum              "Gd4 Ni14"
_cell_length_a       4.9392
_cell_length_b       4.9392
_cell_length_c       12.3942
_cell_angle_alpha    90
_cell_angle_beta     78.5066
_cell_angle_gamma    120

_space_group_name_H-M_alt    "P 1"
_space_group_IT_number       1

loop_
  _space_group_symop_operation_xyz
  'x, y, z'

loop_
  _atom_site_type_symbol
  _atom_site_label
  _atom_site_symmetry_multiplicity
  _atom_site_fract_x
  _atom_site_fract_y
  _atom_site_fract_z
  _atom_site_occupancy
  Gd  Gd1       1.0  0.89800  0.94900  0.15300  1.0000
  Gd  Gd2       1.0  0.70600  0.85300  0.44200  1.0000
  Gd  Gd3       1.0  0.29400  0.14700  0.55800  1.0000
  Gd  Gd4       1.0  0.10200  0.05080  0.84700  1.0000
  Ni  Ni1       1.0  0.50000  0.00000  0.00000  1.0000
  Ni  Ni2       1.0  0.50000  0.50000  0.00000  1.0000
  Ni  Ni3       1.0  0.00000  0.50000  0.00000  1.0000
  Ni  Ni4       1.0  0.22400  0.61200  0.16400  1.0000
  Ni  Ni5       1.0  0.55700  0.27800  0.16500  1.0000
  Ni  Ni6       1.0  0.28100  0.39000  0.32900  1.0000
  Ni  Ni7       1.0  0.78000  0.39000  0.32900  1.0000
  Ni  Ni8       1.0  0.28100  0.89100  0.32900  1.0000
  Ni  Ni9       1.0  0.00000  0.50000  0.50000  1.0000
  Ni  Ni10      1.0  0.71900  0.10900  0.67100  1.0000
  Ni  Ni11      1.0  0.22000  0.61000  0.67100  1.0000
  Ni  Ni12      1.0  0.71900  0.61000  0.67100  1.0000
  Ni  Ni13      1.0  0.44300  0.72200  0.83500  1.0000
  Ni  Ni14      1.0  0.77600  0.38800  0.83600  1.0000
