data_image0
_chemical_formula_structural       AsLi2MnO6
_chemical_formula_sum              "As1 Li2 Mn1 O6"
_cell_length_a       4.87165
_cell_length_b       4.87163
_cell_length_c       5.04519
_cell_angle_alpha    99.9971
_cell_angle_beta     99.9963
_cell_angle_gamma    118.85

_space_group_name_H-M_alt    "P 1"
_space_group_IT_number       1

loop_
  _space_group_symop_operation_xyz
  'x, y, z'

loop_
  _atom_site_type_symbol
  _atom_site_label
  _atom_site_symmetry_multiplicity
  _atom_site_fract_x
  _atom_site_fract_y
  _atom_site_fract_z
  _atom_site_occupancy
  As  As1       1.0  0.17500  0.82500  0.00000  1.0000
  Li  Li1       1.0  0.99000  0.00979  0.50000  1.0000
  Li  Li2       1.0  0.63800  0.36200  0.50000  1.0000
  Mn  Mn1       1.0  0.83400  0.16600  0.00000  1.0000
  O   O1        1.0  0.95400  0.58200  0.22300  1.0000
  O   O2        1.0  0.21100  0.19000  0.22400  1.0000
  O   O3        1.0  0.58000  0.94900  0.22600  1.0000
  O   O4        1.0  0.05100  0.42000  0.77400  1.0000
  O   O5        1.0  0.81000  0.78900  0.77600  1.0000
  O   O6        1.0  0.41800  0.04580  0.77700  1.0000
