data_image0
_chemical_formula_structural       Bi4Cl8K4O16S4
_chemical_formula_sum              "Bi4 Cl8 K4 O16 S4"
_cell_length_a       15.1299
_cell_length_b       7.2476
_cell_length_c       6.34693
_cell_angle_alpha    90
_cell_angle_beta     90
_cell_angle_gamma    90

_space_group_name_H-M_alt    "P 1"
_space_group_IT_number       1

loop_
  _space_group_symop_operation_xyz
  'x, y, z'

loop_
  _atom_site_type_symbol
  _atom_site_label
  _atom_site_symmetry_multiplicity
  _atom_site_fract_x
  _atom_site_fract_y
  _atom_site_fract_z
  _atom_site_occupancy
  Bi  Bi1       1.0  0.36800  0.61100  0.23800  1.0000
  Bi  Bi2       1.0  0.63200  0.11100  0.26200  1.0000
  Bi  Bi3       1.0  0.13200  0.38900  0.73800  1.0000
  Bi  Bi4       1.0  0.86800  0.88900  0.76200  1.0000
  Cl  Cl1       1.0  0.52100  0.75800  0.14400  1.0000
  Cl  Cl2       1.0  0.69800  0.42200  0.17500  1.0000
  Cl  Cl3       1.0  0.30200  0.92200  0.32500  1.0000
  Cl  Cl4       1.0  0.47900  0.25800  0.35600  1.0000
  Cl  Cl5       1.0  0.97900  0.24200  0.64400  1.0000
  Cl  Cl6       1.0  0.80200  0.57800  0.67500  1.0000
  Cl  Cl7       1.0  0.19800  0.07790  0.82500  1.0000
  Cl  Cl8       1.0  0.02090  0.74200  0.85600  1.0000
  K   K1        1.0  0.90400  0.45200  0.22900  1.0000
  K   K2        1.0  0.09560  0.95200  0.27100  1.0000
  K   K3        1.0  0.59600  0.54800  0.72900  1.0000
  K   K4        1.0  0.40400  0.04810  0.77100  1.0000
  O   O1        1.0  0.07060  0.34900  0.09600  1.0000
  O   O2        1.0  0.83200  0.78200  0.10800  1.0000
  O   O3        1.0  0.21200  0.49800  0.11200  1.0000
  O   O4        1.0  0.90200  0.07970  0.12700  1.0000
  O   O5        1.0  0.09790  0.58000  0.37300  1.0000
  O   O6        1.0  0.78800  0.99800  0.38800  1.0000
  O   O7        1.0  0.16800  0.28200  0.39200  1.0000
  O   O8        1.0  0.92900  0.84900  0.40400  1.0000
  O   O9        1.0  0.42900  0.65100  0.59600  1.0000
  O   O10       1.0  0.66800  0.21800  0.60800  1.0000
  O   O11       1.0  0.28800  0.50200  0.61200  1.0000
  O   O12       1.0  0.59800  0.92000  0.62700  1.0000
  O   O13       1.0  0.40200  0.42000  0.87300  1.0000
  O   O14       1.0  0.71200  0.00241  0.88800  1.0000
  O   O15       1.0  0.33200  0.71800  0.89200  1.0000
  O   O16       1.0  0.57100  0.15100  0.90400  1.0000
  S   S1        1.0  0.13700  0.43100  0.24400  1.0000
  S   S2        1.0  0.86300  0.93100  0.25600  1.0000
  S   S3        1.0  0.36300  0.56900  0.74400  1.0000
  S   S4        1.0  0.63700  0.06950  0.75600  1.0000
