data_image0
_chemical_formula_structural       K4O24S4V4
_chemical_formula_sum              "K4 O24 S4 V4"
_cell_length_a       11.0603
_cell_length_b       8.12659
_cell_length_c       5.37382
_cell_angle_alpha    90
_cell_angle_beta     90
_cell_angle_gamma    90

_space_group_name_H-M_alt    "P 1"
_space_group_IT_number       1

loop_
  _space_group_symop_operation_xyz
  'x, y, z'

loop_
  _atom_site_type_symbol
  _atom_site_label
  _atom_site_symmetry_multiplicity
  _atom_site_fract_x
  _atom_site_fract_y
  _atom_site_fract_z
  _atom_site_occupancy
  K   K1        1.0  0.38800  0.43900  0.22200  1.0000
  K   K2        1.0  0.61200  0.93900  0.27800  1.0000
  K   K3        1.0  0.11200  0.56100  0.72200  1.0000
  K   K4        1.0  0.88800  0.06150  0.77800  1.0000
  O   O1        1.0  0.95100  0.38000  0.03540  1.0000
  O   O2        1.0  0.02990  0.80000  0.04840  1.0000
  O   O3        1.0  0.73800  0.55000  0.10300  1.0000
  O   O4        1.0  0.06420  0.13200  0.12000  1.0000
  O   O5        1.0  0.74600  0.23400  0.23500  1.0000
  O   O6        1.0  0.15100  0.39900  0.23700  1.0000
  O   O7        1.0  0.84900  0.89900  0.26300  1.0000
  O   O8        1.0  0.25400  0.73400  0.26500  1.0000
  O   O9        1.0  0.93600  0.63200  0.38000  1.0000
  O   O10       1.0  0.26200  0.05040  0.39700  1.0000
  O   O11       1.0  0.97000  0.30000  0.45200  1.0000
  O   O12       1.0  0.04870  0.88000  0.46500  1.0000
  O   O13       1.0  0.54900  0.62000  0.53500  1.0000
  O   O14       1.0  0.47000  0.20000  0.54800  1.0000
  O   O15       1.0  0.76200  0.45000  0.60300  1.0000
  O   O16       1.0  0.43600  0.86800  0.62000  1.0000
  O   O17       1.0  0.75400  0.76600  0.73500  1.0000
  O   O18       1.0  0.34900  0.60100  0.73700  1.0000
  O   O19       1.0  0.65100  0.10100  0.76300  1.0000
  O   O20       1.0  0.24600  0.26600  0.76500  1.0000
  O   O21       1.0  0.56400  0.36800  0.88000  1.0000
  O   O22       1.0  0.23800  0.95000  0.89700  1.0000
  O   O23       1.0  0.53000  0.70000  0.95200  1.0000
  O   O24       1.0  0.45100  0.12000  0.96500  1.0000
  S   S1        1.0  0.04360  0.29900  0.21100  1.0000
  S   S2        1.0  0.95600  0.79900  0.28900  1.0000
  S   S3        1.0  0.45600  0.70100  0.71100  1.0000
  S   S4        1.0  0.54400  0.20100  0.78900  1.0000
  V   V1        1.0  0.18400  0.90500  0.20800  1.0000
  V   V2        1.0  0.81600  0.40500  0.29200  1.0000
  V   V3        1.0  0.31600  0.09490  0.70800  1.0000
  V   V4        1.0  0.68400  0.59500  0.79200  1.0000
