data_image0
_chemical_formula_structural       Al8In6Sr22
_chemical_formula_sum              "Al8 In6 Sr22"
_cell_length_a       12.3694
_cell_length_b       12.3694
_cell_length_c       12.3694
_cell_angle_alpha    120
_cell_angle_beta     90
_cell_angle_gamma    120

_space_group_name_H-M_alt    "P 1"
_space_group_IT_number       1

loop_
  _space_group_symop_operation_xyz
  'x, y, z'

loop_
  _atom_site_type_symbol
  _atom_site_label
  _atom_site_symmetry_multiplicity
  _atom_site_fract_x
  _atom_site_fract_y
  _atom_site_fract_z
  _atom_site_occupancy
  Al  Al1       1.0  0.69500  0.38900  0.08390  1.0000
  Al  Al2       1.0  0.69500  0.38900  0.30500  1.0000
  Al  Al3       1.0  0.69500  0.61100  0.30500  1.0000
  Al  Al4       1.0  0.91600  0.61100  0.30500  1.0000
  Al  Al5       1.0  0.08390  0.38900  0.69500  1.0000
  Al  Al6       1.0  0.30500  0.38900  0.69500  1.0000
  Al  Al7       1.0  0.30500  0.61100  0.69500  1.0000
  Al  Al8       1.0  0.30500  0.61100  0.91600  1.0000
  In  In1       1.0  0.78100  0.00000  0.21900  1.0000
  In  In2       1.0  0.21900  0.00000  0.21900  1.0000
  In  In3       1.0  0.21900  0.43800  0.21900  1.0000
  In  In4       1.0  0.21900  0.00000  0.78100  1.0000
  In  In5       1.0  0.78100  0.00000  0.78100  1.0000
  In  In6       1.0  0.78100  0.56200  0.78100  1.0000
  Sr  Sr1       1.0  0.00000  0.00000  0.00000  1.0000
  Sr  Sr2       1.0  0.39400  0.26300  0.13100  1.0000
  Sr  Sr3       1.0  0.86900  0.26300  0.13100  1.0000
  Sr  Sr4       1.0  0.86900  0.73700  0.13100  1.0000
  Sr  Sr5       1.0  0.50000  0.00000  0.16300  1.0000
  Sr  Sr6       1.0  0.16300  0.66300  0.16300  1.0000
  Sr  Sr7       1.0  0.50000  0.66300  0.16300  1.0000
  Sr  Sr8       1.0  0.13100  0.26300  0.39400  1.0000
  Sr  Sr9       1.0  0.83700  0.33700  0.50000  1.0000
  Sr  Sr10      1.0  0.50000  0.00000  0.50000  1.0000
  Sr  Sr11      1.0  0.16300  0.00000  0.50000  1.0000
  Sr  Sr12      1.0  0.83700  0.00000  0.50000  1.0000
  Sr  Sr13      1.0  0.50000  0.33700  0.50000  1.0000
  Sr  Sr14      1.0  0.16300  0.66300  0.50000  1.0000
  Sr  Sr15      1.0  0.50000  0.66300  0.50000  1.0000
  Sr  Sr16      1.0  0.86900  0.73700  0.60600  1.0000
  Sr  Sr17      1.0  0.50000  0.00000  0.83700  1.0000
  Sr  Sr18      1.0  0.50000  0.33700  0.83700  1.0000
  Sr  Sr19      1.0  0.83700  0.33700  0.83700  1.0000
  Sr  Sr20      1.0  0.13100  0.26300  0.86900  1.0000
  Sr  Sr21      1.0  0.13100  0.73700  0.86900  1.0000
  Sr  Sr22      1.0  0.60600  0.73700  0.86900  1.0000
