data_image0
_chemical_formula_structural       Ag4Te8Y24
_chemical_formula_sum              "Ag4 Te8 Y24"
_cell_length_a       22.1203
_cell_length_b       4.05693
_cell_length_c       11.567
_cell_angle_alpha    90
_cell_angle_beta     90
_cell_angle_gamma    90

_space_group_name_H-M_alt    "P 1"
_space_group_IT_number       1

loop_
  _space_group_symop_operation_xyz
  'x, y, z'

loop_
  _atom_site_type_symbol
  _atom_site_label
  _atom_site_symmetry_multiplicity
  _atom_site_fract_x
  _atom_site_fract_y
  _atom_site_fract_z
  _atom_site_occupancy
  Ag  Ag1       1.0  0.07430  0.75000  0.14900  1.0000
  Ag  Ag2       1.0  0.57400  0.75000  0.35100  1.0000
  Ag  Ag3       1.0  0.42600  0.25000  0.64900  1.0000
  Ag  Ag4       1.0  0.92600  0.25000  0.85100  1.0000
  Te  Te1       1.0  0.73900  0.25000  0.02970  1.0000
  Te  Te2       1.0  0.87300  0.75000  0.22000  1.0000
  Te  Te3       1.0  0.37300  0.75000  0.28000  1.0000
  Te  Te4       1.0  0.23900  0.25000  0.47000  1.0000
  Te  Te5       1.0  0.76100  0.75000  0.53000  1.0000
  Te  Te6       1.0  0.62700  0.25000  0.72000  1.0000
  Te  Te7       1.0  0.12700  0.25000  0.78000  1.0000
  Te  Te8       1.0  0.26100  0.75000  0.97000  1.0000
  Y   Y1        1.0  0.15800  0.25000  0.04080  1.0000
  Y   Y2        1.0  0.35300  0.25000  0.07890  1.0000
  Y   Y3        1.0  0.48400  0.75000  0.11300  1.0000
  Y   Y4        1.0  0.96900  0.25000  0.11900  1.0000
  Y   Y5        1.0  0.60900  0.25000  0.16500  1.0000
  Y   Y6        1.0  0.73400  0.75000  0.24400  1.0000
  Y   Y7        1.0  0.23400  0.75000  0.25600  1.0000
  Y   Y8        1.0  0.10900  0.25000  0.33500  1.0000
  Y   Y9        1.0  0.46900  0.25000  0.38100  1.0000
  Y   Y10       1.0  0.98400  0.75000  0.38700  1.0000
  Y   Y11       1.0  0.85300  0.25000  0.42100  1.0000
  Y   Y12       1.0  0.65800  0.25000  0.45900  1.0000
  Y   Y13       1.0  0.34200  0.75000  0.54100  1.0000
  Y   Y14       1.0  0.14700  0.75000  0.57900  1.0000
  Y   Y15       1.0  0.01580  0.25000  0.61300  1.0000
  Y   Y16       1.0  0.53100  0.75000  0.61900  1.0000
  Y   Y17       1.0  0.89100  0.75000  0.66500  1.0000
  Y   Y18       1.0  0.76600  0.25000  0.74400  1.0000
  Y   Y19       1.0  0.26600  0.25000  0.75600  1.0000
  Y   Y20       1.0  0.39100  0.75000  0.83500  1.0000
  Y   Y21       1.0  0.03050  0.75000  0.88100  1.0000
  Y   Y22       1.0  0.51600  0.25000  0.88700  1.0000
  Y   Y23       1.0  0.64700  0.75000  0.92100  1.0000
  Y   Y24       1.0  0.84200  0.75000  0.95900  1.0000
