data_image0
_chemical_formula_structural       O24Rb4S4V4
_chemical_formula_sum              "O24 Rb4 S4 V4"
_cell_length_a       10.7598
_cell_length_b       8.77258
_cell_length_c       5.49362
_cell_angle_alpha    90
_cell_angle_beta     90
_cell_angle_gamma    90

_space_group_name_H-M_alt    "P 1"
_space_group_IT_number       1

loop_
  _space_group_symop_operation_xyz
  'x, y, z'

loop_
  _atom_site_type_symbol
  _atom_site_label
  _atom_site_symmetry_multiplicity
  _atom_site_fract_x
  _atom_site_fract_y
  _atom_site_fract_z
  _atom_site_occupancy
  O   O1        1.0  0.02840  0.82700  0.03650  1.0000
  O   O2        1.0  0.94000  0.34400  0.04530  1.0000
  O   O3        1.0  0.72700  0.51300  0.09080  1.0000
  O   O4        1.0  0.26800  0.74300  0.19300  1.0000
  O   O5        1.0  0.15300  0.37700  0.20100  1.0000
  O   O6        1.0  0.05310  0.12400  0.20500  1.0000
  O   O7        1.0  0.94700  0.62400  0.29500  1.0000
  O   O8        1.0  0.84700  0.87700  0.29900  1.0000
  O   O9        1.0  0.73200  0.24300  0.30700  1.0000
  O   O10       1.0  0.27300  0.01270  0.40900  1.0000
  O   O11       1.0  0.05960  0.84400  0.45500  1.0000
  O   O12       1.0  0.97200  0.32700  0.46300  1.0000
  O   O13       1.0  0.47200  0.17300  0.53700  1.0000
  O   O14       1.0  0.56000  0.65600  0.54500  1.0000
  O   O15       1.0  0.77300  0.48700  0.59100  1.0000
  O   O16       1.0  0.23200  0.25700  0.69300  1.0000
  O   O17       1.0  0.34700  0.62300  0.70100  1.0000
  O   O18       1.0  0.44700  0.87600  0.70500  1.0000
  O   O19       1.0  0.55300  0.37600  0.79500  1.0000
  O   O20       1.0  0.65300  0.12300  0.79900  1.0000
  O   O21       1.0  0.76800  0.75700  0.80700  1.0000
  O   O22       1.0  0.22700  0.98700  0.90900  1.0000
  O   O23       1.0  0.44000  0.15600  0.95500  1.0000
  O   O24       1.0  0.52800  0.67300  0.96300  1.0000
  Rb  Rb1       1.0  0.59500  0.94200  0.24900  1.0000
  Rb  Rb2       1.0  0.40500  0.44200  0.25100  1.0000
  Rb  Rb3       1.0  0.90500  0.05790  0.74900  1.0000
  Rb  Rb4       1.0  0.09520  0.55800  0.75100  1.0000
  S   S1        1.0  0.04040  0.28900  0.22700  1.0000
  S   S2        1.0  0.96000  0.78900  0.27300  1.0000
  S   S3        1.0  0.46000  0.71100  0.72700  1.0000
  S   S4        1.0  0.54000  0.21100  0.77300  1.0000
  V   V1        1.0  0.18900  0.90100  0.20000  1.0000
  V   V2        1.0  0.81100  0.40100  0.30000  1.0000
  V   V3        1.0  0.31100  0.09950  0.70000  1.0000
  V   V4        1.0  0.68900  0.59900  0.80000  1.0000
