data_image0
_chemical_formula_structural       CoLi2MnO6
_chemical_formula_sum              "Co1 Li2 Mn1 O6"
_cell_length_a       4.83839
_cell_length_b       4.83839
_cell_length_c       4.98923
_cell_angle_alpha    100.209
_cell_angle_beta     100.209
_cell_angle_gamma    118.972

_space_group_name_H-M_alt    "P 1"
_space_group_IT_number       1

loop_
  _space_group_symop_operation_xyz
  'x, y, z'

loop_
  _atom_site_type_symbol
  _atom_site_label
  _atom_site_symmetry_multiplicity
  _atom_site_fract_x
  _atom_site_fract_y
  _atom_site_fract_z
  _atom_site_occupancy
  Co  Co1       1.0  0.16200  0.83800  0.00000  1.0000
  Li  Li1       1.0  0.36000  0.64000  0.50000  1.0000
  Li  Li2       1.0  0.01120  0.98900  0.50000  1.0000
  Mn  Mn1       1.0  0.82500  0.17500  0.00000  1.0000
  O   O1        1.0  0.57000  0.94500  0.22400  1.0000
  O   O2        1.0  0.95900  0.59800  0.22600  1.0000
  O   O3        1.0  0.19900  0.20400  0.22700  1.0000
  O   O4        1.0  0.79600  0.80100  0.77300  1.0000
  O   O5        1.0  0.40200  0.04070  0.77400  1.0000
  O   O6        1.0  0.05500  0.43000  0.77600  1.0000
