data_image0
_chemical_formula_structural       AlLi2MnO6
_chemical_formula_sum              "Al1 Li2 Mn1 O6"
_cell_length_a       4.81654
_cell_length_b       4.81654
_cell_length_c       4.99557
_cell_angle_alpha    100.287
_cell_angle_beta     100.287
_cell_angle_gamma    118.635

_space_group_name_H-M_alt    "P 1"
_space_group_IT_number       1

loop_
  _space_group_symop_operation_xyz
  'x, y, z'

loop_
  _atom_site_type_symbol
  _atom_site_label
  _atom_site_symmetry_multiplicity
  _atom_site_fract_x
  _atom_site_fract_y
  _atom_site_fract_z
  _atom_site_occupancy
  Al  Al1       1.0  0.16100  0.83900  0.00000  1.0000
  Li  Li1       1.0  0.00203  0.99800  0.50000  1.0000
  Li  Li2       1.0  0.36500  0.63500  0.50000  1.0000
  Mn  Mn1       1.0  0.82200  0.17800  0.00000  1.0000
  O   O1        1.0  0.57900  0.93000  0.22200  1.0000
  O   O2        1.0  0.20800  0.21900  0.22600  1.0000
  O   O3        1.0  0.94400  0.59200  0.22800  1.0000
  O   O4        1.0  0.40800  0.05590  0.77200  1.0000
  O   O5        1.0  0.78100  0.79200  0.77400  1.0000
  O   O6        1.0  0.06980  0.42100  0.77800  1.0000
