data_image0
_chemical_formula_structural       Cu2O24P6Th4
_chemical_formula_sum              "Cu2 O24 P6 Th4"
_cell_length_a       6.77304
_cell_length_b       7.00167
_cell_length_c       11.585
_cell_angle_alpha    108.237
_cell_angle_beta     106.997
_cell_angle_gamma    90

_space_group_name_H-M_alt    "P 1"
_space_group_IT_number       1

loop_
  _space_group_symop_operation_xyz
  'x, y, z'

loop_
  _atom_site_type_symbol
  _atom_site_label
  _atom_site_symmetry_multiplicity
  _atom_site_fract_x
  _atom_site_fract_y
  _atom_site_fract_z
  _atom_site_occupancy
  Cu  Cu1       1.0  0.50000  0.00000  0.00000  1.0000
  Cu  Cu2       1.0  0.50000  0.50000  0.00000  1.0000
  O   O1        1.0  0.76300  0.44000  0.05860  1.0000
  O   O2        1.0  0.29600  0.94000  0.05860  1.0000
  O   O3        1.0  0.04670  0.24700  0.11400  1.0000
  O   O4        1.0  0.06710  0.74700  0.11400  1.0000
  O   O5        1.0  0.66100  0.65900  0.28600  1.0000
  O   O6        1.0  0.62500  0.15900  0.28600  1.0000
  O   O7        1.0  0.96400  0.99400  0.30900  1.0000
  O   O8        1.0  0.34600  0.49400  0.30900  1.0000
  O   O9        1.0  0.97700  0.35300  0.34400  1.0000
  O   O10       1.0  0.36700  0.85300  0.34400  1.0000
  O   O11       1.0  0.37800  0.27900  0.49600  1.0000
  O   O12       1.0  0.11800  0.77900  0.49600  1.0000
  O   O13       1.0  0.88200  0.22100  0.50400  1.0000
  O   O14       1.0  0.62200  0.72100  0.50400  1.0000
  O   O15       1.0  0.63300  0.14700  0.65600  1.0000
  O   O16       1.0  0.02330  0.64700  0.65600  1.0000
  O   O17       1.0  0.65400  0.50600  0.69100  1.0000
  O   O18       1.0  0.03650  0.00572  0.69100  1.0000
  O   O19       1.0  0.37500  0.84100  0.71400  1.0000
  O   O20       1.0  0.33900  0.34100  0.71400  1.0000
  O   O21       1.0  0.93300  0.25300  0.88600  1.0000
  O   O22       1.0  0.95300  0.75300  0.88600  1.0000
  O   O23       1.0  0.70400  0.05970  0.94100  1.0000
  O   O24       1.0  0.23700  0.56000  0.94100  1.0000
  P   P1        1.0  0.86400  0.25000  0.00000  1.0000
  P   P2        1.0  0.13600  0.75000  0.00000  1.0000
  P   P3        1.0  0.85400  0.18400  0.36300  1.0000
  P   P4        1.0  0.50900  0.68400  0.36300  1.0000
  P   P5        1.0  0.49100  0.31600  0.63700  1.0000
  P   P6        1.0  0.14600  0.81600  0.63700  1.0000
  Th  Th1       1.0  0.00104  0.63900  0.27800  1.0000
  Th  Th2       1.0  0.27700  0.13900  0.27800  1.0000
  Th  Th3       1.0  0.99900  0.36100  0.72200  1.0000
  Th  Th4       1.0  0.72300  0.86100  0.72200  1.0000
