data_image0
_chemical_formula_structural       Ba4O24Ti4U4
_chemical_formula_sum              "Ba4 O24 Ti4 U4"
_cell_length_a       6.38523
_cell_length_b       8.63401
_cell_length_c       10.2799
_cell_angle_alpha    90
_cell_angle_beta     75.6423
_cell_angle_gamma    90

_space_group_name_H-M_alt    "P 1"
_space_group_IT_number       1

loop_
  _space_group_symop_operation_xyz
  'x, y, z'

loop_
  _atom_site_type_symbol
  _atom_site_label
  _atom_site_symmetry_multiplicity
  _atom_site_fract_x
  _atom_site_fract_y
  _atom_site_fract_z
  _atom_site_occupancy
  Ba  Ba1       1.0  0.54300  0.26400  0.15300  1.0000
  Ba  Ba2       1.0  0.45700  0.76400  0.34700  1.0000
  Ba  Ba3       1.0  0.54300  0.23600  0.65300  1.0000
  Ba  Ba4       1.0  0.45700  0.73600  0.84700  1.0000
  O   O1        1.0  0.99100  0.15300  0.01460  1.0000
  O   O2        1.0  0.60500  0.66100  0.05790  1.0000
  O   O3        1.0  0.92200  0.43700  0.11300  1.0000
  O   O4        1.0  0.32100  0.95500  0.12100  1.0000
  O   O5        1.0  0.91300  0.71500  0.22500  1.0000
  O   O6        1.0  0.72900  0.00797  0.23800  1.0000
  O   O7        1.0  0.27100  0.50800  0.26200  1.0000
  O   O8        1.0  0.08690  0.21500  0.27500  1.0000
  O   O9        1.0  0.67900  0.45500  0.37900  1.0000
  O   O10       1.0  0.07850  0.93700  0.38700  1.0000
  O   O11       1.0  0.39500  0.16100  0.44200  1.0000
  O   O12       1.0  0.00947  0.65300  0.48500  1.0000
  O   O13       1.0  0.99100  0.34700  0.51500  1.0000
  O   O14       1.0  0.60500  0.83900  0.55800  1.0000
  O   O15       1.0  0.92200  0.06270  0.61300  1.0000
  O   O16       1.0  0.32100  0.54500  0.62100  1.0000
  O   O17       1.0  0.91300  0.78500  0.72500  1.0000
  O   O18       1.0  0.72900  0.49200  0.73800  1.0000
  O   O19       1.0  0.27100  0.99200  0.76200  1.0000
  O   O20       1.0  0.08690  0.28500  0.77500  1.0000
  O   O21       1.0  0.67900  0.04470  0.87900  1.0000
  O   O22       1.0  0.07850  0.56300  0.88700  1.0000
  O   O23       1.0  0.39500  0.33900  0.94200  1.0000
  O   O24       1.0  0.00947  0.84700  0.98500  1.0000
  Ti  Ti1       1.0  0.88100  0.65100  0.05060  1.0000
  Ti  Ti2       1.0  0.11900  0.15100  0.44900  1.0000
  Ti  Ti3       1.0  0.88100  0.84900  0.55100  1.0000
  Ti  Ti4       1.0  0.11900  0.34900  0.94900  1.0000
  U   U1        1.0  0.02490  0.98000  0.17800  1.0000
  U   U2        1.0  0.97500  0.48000  0.32200  1.0000
  U   U3        1.0  0.02490  0.52000  0.67800  1.0000
  U   U4        1.0  0.97500  0.01980  0.82200  1.0000
