data_image0
_chemical_formula_structural       Eu2K2O24P8
_chemical_formula_sum              "Eu2 K2 O24 P8"
_cell_length_a       7.96901
_cell_length_b       8.33713
_cell_length_c       7.20597
_cell_angle_alpha    90
_cell_angle_beta     92.0699
_cell_angle_gamma    90

_space_group_name_H-M_alt    "P 1"
_space_group_IT_number       1

loop_
  _space_group_symop_operation_xyz
  'x, y, z'

loop_
  _atom_site_type_symbol
  _atom_site_label
  _atom_site_symmetry_multiplicity
  _atom_site_fract_x
  _atom_site_fract_y
  _atom_site_fract_z
  _atom_site_occupancy
  Eu  Eu1       1.0  0.24600  0.24500  0.23300  1.0000
  Eu  Eu2       1.0  0.75400  0.74500  0.76700  1.0000
  K   K1        1.0  0.72200  0.55400  0.27800  1.0000
  K   K2        1.0  0.27800  0.05440  0.72200  1.0000
  O   O1        1.0  0.79300  0.20300  0.01580  1.0000
  O   O2        1.0  0.47400  0.20900  0.02320  1.0000
  O   O3        1.0  0.92000  0.79900  0.05210  1.0000
  O   O4        1.0  0.17200  0.99300  0.07000  1.0000
  O   O5        1.0  0.65100  0.98000  0.16000  1.0000
  O   O6        1.0  0.38300  0.51000  0.18600  1.0000
  O   O7        1.0  0.07850  0.48500  0.31100  1.0000
  O   O8        1.0  0.14100  0.78700  0.31600  1.0000
  O   O9        1.0  0.42100  0.03670  0.38800  1.0000
  O   O10       1.0  0.03400  0.15600  0.43700  1.0000
  O   O11       1.0  0.71800  0.13000  0.44800  1.0000
  O   O12       1.0  0.65500  0.82900  0.45600  1.0000
  O   O13       1.0  0.34500  0.32900  0.54400  1.0000
  O   O14       1.0  0.28200  0.63000  0.55200  1.0000
  O   O15       1.0  0.96600  0.65600  0.56300  1.0000
  O   O16       1.0  0.57900  0.53700  0.61200  1.0000
  O   O17       1.0  0.85900  0.28700  0.68400  1.0000
  O   O18       1.0  0.92100  0.98500  0.68900  1.0000
  O   O19       1.0  0.61700  0.00967  0.81400  1.0000
  O   O20       1.0  0.34900  0.48000  0.84000  1.0000
  O   O21       1.0  0.82800  0.49300  0.93000  1.0000
  O   O22       1.0  0.07990  0.29900  0.94800  1.0000
  O   O23       1.0  0.52600  0.70900  0.97700  1.0000
  O   O24       1.0  0.20700  0.70300  0.98400  1.0000
  P   P1        1.0  0.37800  0.60300  0.00725  1.0000
  P   P2        1.0  0.10100  0.83000  0.10200  1.0000
  P   P3        1.0  0.59900  0.98500  0.37300  1.0000
  P   P4        1.0  0.10700  0.62900  0.43600  1.0000
  P   P5        1.0  0.89300  0.12900  0.56400  1.0000
  P   P6        1.0  0.40100  0.48500  0.62700  1.0000
  P   P7        1.0  0.89900  0.33000  0.89800  1.0000
  P   P8        1.0  0.62200  0.10300  0.99300  1.0000
