data_image0
_chemical_formula_structural       H12O18S2Tl2V2
_chemical_formula_sum              "H12 O18 S2 Tl2 V2"
_cell_length_a       6.21411
_cell_length_b       9.55675
_cell_length_c       6.49645
_cell_angle_alpha    90
_cell_angle_beta     108.222
_cell_angle_gamma    90

_space_group_name_H-M_alt    "P 1"
_space_group_IT_number       1

loop_
  _space_group_symop_operation_xyz
  'x, y, z'

loop_
  _atom_site_type_symbol
  _atom_site_label
  _atom_site_symmetry_multiplicity
  _atom_site_fract_x
  _atom_site_fract_y
  _atom_site_fract_z
  _atom_site_occupancy
  H   H1        1.0  0.89000  0.66200  0.06900  1.0000
  H   H2        1.0  0.17600  0.42900  0.17500  1.0000
  H   H3        1.0  0.69600  0.73000  0.26100  1.0000
  H   H4        1.0  0.22100  0.29100  0.30700  1.0000
  H   H5        1.0  0.03570  0.65300  0.31300  1.0000
  H   H6        1.0  0.46900  0.73200  0.34800  1.0000
  H   H7        1.0  0.53100  0.23200  0.65200  1.0000
  H   H8        1.0  0.96400  0.15300  0.68700  1.0000
  H   H9        1.0  0.77900  0.79100  0.69300  1.0000
  H   H10       1.0  0.30400  0.23000  0.73900  1.0000
  H   H11       1.0  0.82400  0.92900  0.82500  1.0000
  H   H12       1.0  0.11000  0.16200  0.93100  1.0000
  O   O1        1.0  0.03520  0.91100  0.07400  1.0000
  O   O2        1.0  0.54500  0.05930  0.12800  1.0000
  O   O3        1.0  0.05220  0.15000  0.20700  1.0000
  O   O4        1.0  0.87800  0.64100  0.21400  1.0000
  O   O5        1.0  0.56500  0.79000  0.28100  1.0000
  O   O6        1.0  0.28100  0.38700  0.30800  1.0000
  O   O7        1.0  0.94100  0.95600  0.40400  1.0000
  O   O8        1.0  0.32000  0.97600  0.41600  1.0000
  O   O9        1.0  0.31300  0.65000  0.47100  1.0000
  O   O10       1.0  0.68700  0.15000  0.52900  1.0000
  O   O11       1.0  0.68000  0.47600  0.58400  1.0000
  O   O12       1.0  0.05860  0.45600  0.59600  1.0000
  O   O13       1.0  0.71900  0.88700  0.69200  1.0000
  O   O14       1.0  0.43500  0.29000  0.71900  1.0000
  O   O15       1.0  0.12200  0.14100  0.78600  1.0000
  O   O16       1.0  0.94800  0.65000  0.79300  1.0000
  O   O17       1.0  0.45500  0.55900  0.87200  1.0000
  O   O18       1.0  0.96500  0.41100  0.92600  1.0000
  S   S1        1.0  0.08290  0.00035  0.26500  1.0000
  S   S2        1.0  0.91700  0.50000  0.73500  1.0000
  Tl  Tl1       1.0  0.67500  0.34700  0.17500  1.0000
  Tl  Tl2       1.0  0.32500  0.84700  0.82500  1.0000
  V   V1        1.0  0.62200  0.00172  0.38000  1.0000
  V   V2        1.0  0.37800  0.50200  0.62000  1.0000
