data_image0
_chemical_formula_structural       IrLi2MnO6
_chemical_formula_sum              "Ir1 Li2 Mn1 O6"
_cell_length_a       5.04728
_cell_length_b       5.04728
_cell_length_c       4.91134
_cell_angle_alpha    98.2442
_cell_angle_beta     98.2442
_cell_angle_gamma    121.645

_space_group_name_H-M_alt    "P 1"
_space_group_IT_number       1

loop_
  _space_group_symop_operation_xyz
  'x, y, z'

loop_
  _atom_site_type_symbol
  _atom_site_label
  _atom_site_symmetry_multiplicity
  _atom_site_fract_x
  _atom_site_fract_y
  _atom_site_fract_z
  _atom_site_occupancy
  Ir  Ir1       1.0  0.16200  0.83800  0.00000  1.0000
  Li  Li1       1.0  0.64900  0.35100  0.50000  1.0000
  Li  Li2       1.0  0.35500  0.64500  0.50000  1.0000
  Mn  Mn1       1.0  0.83600  0.16400  0.00000  1.0000
  O   O1        1.0  0.21700  0.22100  0.22700  1.0000
  O   O2        1.0  0.56400  0.93900  0.23300  1.0000
  O   O3        1.0  0.93500  0.55800  0.23400  1.0000
  O   O4        1.0  0.44200  0.06540  0.76600  1.0000
  O   O5        1.0  0.06140  0.43600  0.76700  1.0000
  O   O6        1.0  0.77900  0.78300  0.77300  1.0000
