data_image0
_chemical_formula_structural       Cs16O16Zr4
_chemical_formula_sum              "Cs16 O16 Zr4"
_cell_length_a       7.16596
_cell_length_b       19.8591
_cell_length_c       7.15726
_cell_angle_alpha    90
_cell_angle_beta     113.114
_cell_angle_gamma    90

_space_group_name_H-M_alt    "P 1"
_space_group_IT_number       1

loop_
  _space_group_symop_operation_xyz
  'x, y, z'

loop_
  _atom_site_type_symbol
  _atom_site_label
  _atom_site_symmetry_multiplicity
  _atom_site_fract_x
  _atom_site_fract_y
  _atom_site_fract_z
  _atom_site_occupancy
  Cs  Cs1       1.0  0.18200  0.31200  0.17900  1.0000
  Cs  Cs2       1.0  0.70300  0.21700  0.18100  1.0000
  Cs  Cs3       1.0  0.65900  0.41800  0.22600  1.0000
  Cs  Cs4       1.0  0.22000  0.51500  0.24900  1.0000
  Cs  Cs5       1.0  0.78000  0.01540  0.25100  1.0000
  Cs  Cs6       1.0  0.34100  0.91800  0.27400  1.0000
  Cs  Cs7       1.0  0.29700  0.71700  0.31900  1.0000
  Cs  Cs8       1.0  0.81800  0.81200  0.32100  1.0000
  Cs  Cs9       1.0  0.18200  0.18800  0.67900  1.0000
  Cs  Cs10      1.0  0.70300  0.28300  0.68100  1.0000
  Cs  Cs11      1.0  0.65900  0.08220  0.72600  1.0000
  Cs  Cs12      1.0  0.22000  0.98500  0.74900  1.0000
  Cs  Cs13      1.0  0.78000  0.48500  0.75100  1.0000
  Cs  Cs14      1.0  0.34100  0.58200  0.77400  1.0000
  Cs  Cs15      1.0  0.29700  0.78300  0.81900  1.0000
  Cs  Cs16      1.0  0.81800  0.68800  0.82100  1.0000
  O   O1        1.0  0.99800  0.16800  0.01740  1.0000
  O   O2        1.0  0.40800  0.09420  0.03240  1.0000
  O   O3        1.0  0.57100  0.69000  0.10200  1.0000
  O   O4        1.0  0.79100  0.54800  0.13500  1.0000
  O   O5        1.0  0.20900  0.04760  0.36500  1.0000
  O   O6        1.0  0.42900  0.19000  0.39800  1.0000
  O   O7        1.0  0.59200  0.59400  0.46800  1.0000
  O   O8        1.0  0.00193  0.66800  0.48300  1.0000
  O   O9        1.0  0.99800  0.33200  0.51700  1.0000
  O   O10       1.0  0.40800  0.40600  0.53200  1.0000
  O   O11       1.0  0.57100  0.81000  0.60200  1.0000
  O   O12       1.0  0.79100  0.95200  0.63500  1.0000
  O   O13       1.0  0.20900  0.45200  0.86500  1.0000
  O   O14       1.0  0.42900  0.31000  0.89800  1.0000
  O   O15       1.0  0.59200  0.90600  0.96800  1.0000
  O   O16       1.0  0.00193  0.83200  0.98300  1.0000
  Zr  Zr1       1.0  0.25500  0.12300  0.20100  1.0000
  Zr  Zr2       1.0  0.74500  0.62300  0.29900  1.0000
  Zr  Zr3       1.0  0.25500  0.37700  0.70100  1.0000
  Zr  Zr4       1.0  0.74500  0.87700  0.79900  1.0000
