data_image0
_chemical_formula_structural       Ga2O24P6Zr4
_chemical_formula_sum              "Ga2 O24 P6 Zr4"
_cell_length_a       8.77069
_cell_length_b       8.77069
_cell_length_c       9.41273
_cell_angle_alpha    117.768
_cell_angle_beta     117.768
_cell_angle_gamma    60

_space_group_name_H-M_alt    "P 1"
_space_group_IT_number       1

loop_
  _space_group_symop_operation_xyz
  'x, y, z'

loop_
  _atom_site_type_symbol
  _atom_site_label
  _atom_site_symmetry_multiplicity
  _atom_site_fract_x
  _atom_site_fract_y
  _atom_site_fract_z
  _atom_site_occupancy
  Ga  Ga1       1.0  0.00000  0.00000  0.00000  1.0000
  Ga  Ga2       1.0  0.50000  0.50000  0.50000  1.0000
  O   O1        1.0  0.73600  0.87000  0.09370  1.0000
  O   O2        1.0  0.48700  0.73600  0.09370  1.0000
  O   O3        1.0  0.87000  0.48700  0.09370  1.0000
  O   O4        1.0  0.43100  0.57800  0.22000  1.0000
  O   O5        1.0  0.21100  0.43100  0.22000  1.0000
  O   O6        1.0  0.57800  0.21100  0.22000  1.0000
  O   O7        1.0  0.28900  0.92200  0.28000  1.0000
  O   O8        1.0  0.06880  0.28900  0.28000  1.0000
  O   O9        1.0  0.92200  0.06880  0.28000  1.0000
  O   O10       1.0  0.63000  0.76400  0.40600  1.0000
  O   O11       1.0  0.01260  0.63000  0.40600  1.0000
  O   O12       1.0  0.76400  0.01260  0.40600  1.0000
  O   O13       1.0  0.23600  0.98700  0.59400  1.0000
  O   O14       1.0  0.98700  0.37000  0.59400  1.0000
  O   O15       1.0  0.37000  0.23600  0.59400  1.0000
  O   O16       1.0  0.07760  0.93100  0.72000  1.0000
  O   O17       1.0  0.93100  0.71100  0.72000  1.0000
  O   O18       1.0  0.71100  0.07760  0.72000  1.0000
  O   O19       1.0  0.42200  0.78900  0.78000  1.0000
  O   O20       1.0  0.78900  0.56900  0.78000  1.0000
  O   O21       1.0  0.56900  0.42200  0.78000  1.0000
  O   O22       1.0  0.13000  0.51300  0.90600  1.0000
  O   O23       1.0  0.51300  0.26400  0.90600  1.0000
  O   O24       1.0  0.26400  0.13000  0.90600  1.0000
  P   P1        1.0  0.46100  0.75000  0.25000  1.0000
  P   P2        1.0  0.03920  0.46100  0.25000  1.0000
  P   P3        1.0  0.75000  0.03920  0.25000  1.0000
  P   P4        1.0  0.25000  0.96100  0.75000  1.0000
  P   P5        1.0  0.96100  0.53900  0.75000  1.0000
  P   P6        1.0  0.53900  0.25000  0.75000  1.0000
  Zr  Zr1       1.0  0.35100  0.35100  0.05330  1.0000
  Zr  Zr2       1.0  0.14900  0.14900  0.44700  1.0000
  Zr  Zr3       1.0  0.85100  0.85100  0.55300  1.0000
  Zr  Zr4       1.0  0.64900  0.64900  0.94700  1.0000
