data_image0
_chemical_formula_structural       C8Ca2Cu2H8O16
_chemical_formula_sum              "C8 Ca2 Cu2 H8 O16"
_cell_length_a       7.22976
_cell_length_b       8.32586
_cell_length_c       6.35544
_cell_angle_alpha    90
_cell_angle_beta     96.7175
_cell_angle_gamma    90

_space_group_name_H-M_alt    "P 1"
_space_group_IT_number       1

loop_
  _space_group_symop_operation_xyz
  'x, y, z'

loop_
  _atom_site_type_symbol
  _atom_site_label
  _atom_site_symmetry_multiplicity
  _atom_site_fract_x
  _atom_site_fract_y
  _atom_site_fract_z
  _atom_site_occupancy
  C   C1        1.0  0.31800  0.85800  0.00367  1.0000
  C   C2        1.0  0.19200  0.39700  0.13200  1.0000
  C   C3        1.0  0.80800  0.39700  0.36800  1.0000
  C   C4        1.0  0.68200  0.85800  0.49600  1.0000
  C   C5        1.0  0.31800  0.14200  0.50400  1.0000
  C   C6        1.0  0.19200  0.60300  0.63200  1.0000
  C   C7        1.0  0.80800  0.60300  0.86800  1.0000
  C   C8        1.0  0.68200  0.14200  0.99600  1.0000
  Ca  Ca1       1.0  0.00000  0.86300  0.25000  1.0000
  Ca  Ca2       1.0  0.00000  0.13700  0.75000  1.0000
  Cu  Cu1       1.0  0.50000  0.59500  0.25000  1.0000
  Cu  Cu2       1.0  0.50000  0.40500  0.75000  1.0000
  H   H1        1.0  0.56800  0.15400  0.09770  1.0000
  H   H2        1.0  0.84200  0.44300  0.21500  1.0000
  H   H3        1.0  0.15800  0.44300  0.28500  1.0000
  H   H4        1.0  0.43200  0.15400  0.40200  1.0000
  H   H5        1.0  0.56800  0.84600  0.59800  1.0000
  H   H6        1.0  0.84200  0.55700  0.71500  1.0000
  H   H7        1.0  0.15800  0.55700  0.78500  1.0000
  H   H8        1.0  0.43200  0.84600  0.90200  1.0000
  O   O1        1.0  0.07300  0.31700  0.01760  1.0000
  O   O2        1.0  0.80500  0.03520  0.03510  1.0000
  O   O3        1.0  0.35600  0.42900  0.08330  1.0000
  O   O4        1.0  0.31500  0.76200  0.16000  1.0000
  O   O5        1.0  0.68500  0.76200  0.34000  1.0000
  O   O6        1.0  0.64400  0.42900  0.41700  1.0000
  O   O7        1.0  0.19500  0.03520  0.46500  1.0000
  O   O8        1.0  0.92700  0.31700  0.48200  1.0000
  O   O9        1.0  0.07300  0.68300  0.51800  1.0000
  O   O10       1.0  0.80500  0.96500  0.53500  1.0000
  O   O11       1.0  0.35600  0.57100  0.58300  1.0000
  O   O12       1.0  0.31500  0.23800  0.66000  1.0000
  O   O13       1.0  0.68500  0.23800  0.84000  1.0000
  O   O14       1.0  0.64400  0.57100  0.91700  1.0000
  O   O15       1.0  0.19500  0.96500  0.96500  1.0000
  O   O16       1.0  0.92700  0.68300  0.98200  1.0000
