data_image0
_chemical_formula_structural       Mo6O24Rb4Se2
_chemical_formula_sum              "Mo6 O24 Rb4 Se2"
_cell_length_a       7.29967
_cell_length_b       7.29963
_cell_length_c       11.7498
_cell_angle_alpha    90
_cell_angle_beta     90
_cell_angle_gamma    120

_space_group_name_H-M_alt    "P 1"
_space_group_IT_number       1

loop_
  _space_group_symop_operation_xyz
  'x, y, z'

loop_
  _atom_site_type_symbol
  _atom_site_label
  _atom_site_symmetry_multiplicity
  _atom_site_fract_x
  _atom_site_fract_y
  _atom_site_fract_z
  _atom_site_occupancy
  Mo  Mo1       1.0  0.20600  0.34000  0.26900  1.0000
  Mo  Mo2       1.0  0.66000  0.86600  0.26900  1.0000
  Mo  Mo3       1.0  0.13400  0.79400  0.26900  1.0000
  Mo  Mo4       1.0  0.79400  0.66000  0.76900  1.0000
  Mo  Mo5       1.0  0.34000  0.13400  0.76900  1.0000
  Mo  Mo6       1.0  0.86600  0.20600  0.76900  1.0000
  O   O1        1.0  0.20700  0.40900  0.12700  1.0000
  O   O2        1.0  0.20300  0.79300  0.12700  1.0000
  O   O3        1.0  0.59100  0.79700  0.12700  1.0000
  O   O4        1.0  0.25500  0.12200  0.25400  1.0000
  O   O5        1.0  0.86700  0.74500  0.25400  1.0000
  O   O6        1.0  0.87800  0.13300  0.25400  1.0000
  O   O7        1.0  0.08430  0.53600  0.31800  1.0000
  O   O8        1.0  0.46400  0.54800  0.31800  1.0000
  O   O9        1.0  0.45200  0.91600  0.31800  1.0000
  O   O10       1.0  0.12900  0.88100  0.44400  1.0000
  O   O11       1.0  0.11900  0.24900  0.44400  1.0000
  O   O12       1.0  0.75100  0.87100  0.44400  1.0000
  O   O13       1.0  0.79300  0.59100  0.62700  1.0000
  O   O14       1.0  0.79700  0.20700  0.62700  1.0000
  O   O15       1.0  0.40900  0.20300  0.62700  1.0000
  O   O16       1.0  0.13300  0.25500  0.75400  1.0000
  O   O17       1.0  0.12200  0.86700  0.75400  1.0000
  O   O18       1.0  0.74500  0.87800  0.75400  1.0000
  O   O19       1.0  0.91600  0.46400  0.81800  1.0000
  O   O20       1.0  0.54800  0.08430  0.81800  1.0000
  O   O21       1.0  0.53600  0.45200  0.81800  1.0000
  O   O22       1.0  0.87100  0.11900  0.94400  1.0000
  O   O23       1.0  0.88100  0.75100  0.94400  1.0000
  O   O24       1.0  0.24900  0.12900  0.94400  1.0000
  Rb  Rb1       1.0  0.66700  0.33300  0.05840  1.0000
  Rb  Rb2       1.0  0.66700  0.33300  0.43100  1.0000
  Rb  Rb3       1.0  0.33300  0.66700  0.55800  1.0000
  Rb  Rb4       1.0  0.33300  0.66700  0.93100  1.0000
  Se  Se1       1.0  0.00000  0.00000  0.00662  1.0000
  Se  Se2       1.0  0.00000  0.00000  0.50700  1.0000
