data_image0
_chemical_formula_structural       Ag4Lu24Te8
_chemical_formula_sum              "Ag4 Lu24 Te8"
_cell_length_a       21.3175
_cell_length_b       4.00083
_cell_length_c       11.3461
_cell_angle_alpha    90
_cell_angle_beta     90
_cell_angle_gamma    90

_space_group_name_H-M_alt    "P 1"
_space_group_IT_number       1

loop_
  _space_group_symop_operation_xyz
  'x, y, z'

loop_
  _atom_site_type_symbol
  _atom_site_label
  _atom_site_symmetry_multiplicity
  _atom_site_fract_x
  _atom_site_fract_y
  _atom_site_fract_z
  _atom_site_occupancy
  Ag  Ag1       1.0  0.07640  0.75000  0.13600  1.0000
  Ag  Ag2       1.0  0.57600  0.75000  0.36400  1.0000
  Ag  Ag3       1.0  0.42400  0.25000  0.63600  1.0000
  Ag  Ag4       1.0  0.92400  0.25000  0.86400  1.0000
  Lu  Lu1       1.0  0.15900  0.25000  0.02910  1.0000
  Lu  Lu2       1.0  0.36000  0.25000  0.06190  1.0000
  Lu  Lu3       1.0  0.49200  0.75000  0.11100  1.0000
  Lu  Lu4       1.0  0.97200  0.25000  0.12200  1.0000
  Lu  Lu5       1.0  0.60900  0.25000  0.18200  1.0000
  Lu  Lu6       1.0  0.23200  0.75000  0.24000  1.0000
  Lu  Lu7       1.0  0.73200  0.75000  0.26000  1.0000
  Lu  Lu8       1.0  0.10900  0.25000  0.31800  1.0000
  Lu  Lu9       1.0  0.47200  0.25000  0.37800  1.0000
  Lu  Lu10      1.0  0.99200  0.75000  0.38900  1.0000
  Lu  Lu11      1.0  0.86000  0.25000  0.43800  1.0000
  Lu  Lu12      1.0  0.65900  0.25000  0.47100  1.0000
  Lu  Lu13      1.0  0.34100  0.75000  0.52900  1.0000
  Lu  Lu14      1.0  0.14000  0.75000  0.56200  1.0000
  Lu  Lu15      1.0  0.00804  0.25000  0.61100  1.0000
  Lu  Lu16      1.0  0.52800  0.75000  0.62200  1.0000
  Lu  Lu17      1.0  0.89100  0.75000  0.68200  1.0000
  Lu  Lu18      1.0  0.26800  0.25000  0.74000  1.0000
  Lu  Lu19      1.0  0.76800  0.25000  0.76000  1.0000
  Lu  Lu20      1.0  0.39100  0.75000  0.81800  1.0000
  Lu  Lu21      1.0  0.02800  0.75000  0.87800  1.0000
  Lu  Lu22      1.0  0.50800  0.25000  0.88900  1.0000
  Lu  Lu23      1.0  0.64000  0.75000  0.93800  1.0000
  Lu  Lu24      1.0  0.84100  0.75000  0.97100  1.0000
  Te  Te1       1.0  0.73700  0.25000  0.04320  1.0000
  Te  Te2       1.0  0.87300  0.75000  0.23200  1.0000
  Te  Te3       1.0  0.37300  0.75000  0.26800  1.0000
  Te  Te4       1.0  0.23700  0.25000  0.45700  1.0000
  Te  Te5       1.0  0.76300  0.75000  0.54300  1.0000
  Te  Te6       1.0  0.62700  0.25000  0.73200  1.0000
  Te  Te7       1.0  0.12700  0.25000  0.76800  1.0000
  Te  Te8       1.0  0.26300  0.75000  0.95700  1.0000
