data_image0
_chemical_formula_structural       GeLi2MnO6
_chemical_formula_sum              "Ge1 Li2 Mn1 O6"
_cell_length_a       4.98381
_cell_length_b       4.98381
_cell_length_c       4.85159
_cell_angle_alpha    97.7764
_cell_angle_beta     97.7764
_cell_angle_gamma    122.487

_space_group_name_H-M_alt    "P 1"
_space_group_IT_number       1

loop_
  _space_group_symop_operation_xyz
  'x, y, z'

loop_
  _atom_site_type_symbol
  _atom_site_label
  _atom_site_symmetry_multiplicity
  _atom_site_fract_x
  _atom_site_fract_y
  _atom_site_fract_z
  _atom_site_occupancy
  Ge  Ge1       1.0  0.16100  0.83900  0.00000  1.0000
  Li  Li1       1.0  0.64700  0.35300  0.50000  1.0000
  Li  Li2       1.0  0.35900  0.64100  0.50000  1.0000
  Mn  Mn1       1.0  0.83900  0.16100  0.00000  1.0000
  O   O1        1.0  0.21300  0.21500  0.22400  1.0000
  O   O2        1.0  0.55800  0.93700  0.23100  1.0000
  O   O3        1.0  0.93500  0.55600  0.23200  1.0000
  O   O4        1.0  0.44400  0.06500  0.76800  1.0000
  O   O5        1.0  0.06300  0.44200  0.76900  1.0000
  O   O6        1.0  0.78500  0.78700  0.77600  1.0000
