data_image0
_chemical_formula_structural       C6Cl6H20N2Sn2
_chemical_formula_sum              "C6 Cl6 H20 N2 Sn2"
_cell_length_a       6.28698
_cell_length_b       6.28698
_cell_length_c       12.2463
_cell_angle_alpha    90
_cell_angle_beta     90
_cell_angle_gamma    81.648

_space_group_name_H-M_alt    "P 1"
_space_group_IT_number       1

loop_
  _space_group_symop_operation_xyz
  'x, y, z'

loop_
  _atom_site_type_symbol
  _atom_site_label
  _atom_site_symmetry_multiplicity
  _atom_site_fract_x
  _atom_site_fract_y
  _atom_site_fract_z
  _atom_site_occupancy
  C   C1        1.0  0.29000  0.45100  0.04400  1.0000
  C   C2        1.0  0.54900  0.71000  0.04400  1.0000
  C   C3        1.0  0.41100  0.58900  0.41200  1.0000
  C   C4        1.0  0.45100  0.29000  0.54400  1.0000
  C   C5        1.0  0.71000  0.54900  0.54400  1.0000
  C   C6        1.0  0.58900  0.41100  0.91200  1.0000
  Cl  Cl1       1.0  0.55300  0.07340  0.26200  1.0000
  Cl  Cl2       1.0  0.92700  0.44700  0.26200  1.0000
  Cl  Cl3       1.0  0.97900  0.02130  0.46300  1.0000
  Cl  Cl4       1.0  0.07340  0.55300  0.76200  1.0000
  Cl  Cl5       1.0  0.44700  0.92700  0.76200  1.0000
  Cl  Cl6       1.0  0.02130  0.97900  0.96300  1.0000
  H   H1        1.0  0.17700  0.57100  0.08750  1.0000
  H   H2        1.0  0.42900  0.82300  0.08750  1.0000
  H   H3        1.0  0.38700  0.34600  0.10200  1.0000
  H   H4        1.0  0.65400  0.61300  0.10200  1.0000
  H   H5        1.0  0.31200  0.49900  0.36100  1.0000
  H   H6        1.0  0.50100  0.68800  0.36100  1.0000
  H   H7        1.0  0.66100  0.33900  0.42100  1.0000
  H   H8        1.0  0.30900  0.69100  0.47000  1.0000
  H   H9        1.0  0.35600  0.20100  0.49000  1.0000
  H   H10       1.0  0.79900  0.64400  0.49000  1.0000
  H   H11       1.0  0.57100  0.17700  0.58800  1.0000
  H   H12       1.0  0.82300  0.42900  0.58800  1.0000
  H   H13       1.0  0.34600  0.38700  0.60200  1.0000
  H   H14       1.0  0.61300  0.65400  0.60200  1.0000
  H   H15       1.0  0.49900  0.31200  0.86100  1.0000
  H   H16       1.0  0.68800  0.50100  0.86100  1.0000
  H   H17       1.0  0.33900  0.66100  0.92100  1.0000
  H   H18       1.0  0.69100  0.30900  0.97000  1.0000
  H   H19       1.0  0.20100  0.35600  0.99000  1.0000
  H   H20       1.0  0.64400  0.79900  0.99000  1.0000
  N   N1        1.0  0.56500  0.43500  0.47600  1.0000
  N   N2        1.0  0.43500  0.56500  0.97600  1.0000
  Sn  Sn1       1.0  0.96100  0.03890  0.25600  1.0000
  Sn  Sn2       1.0  0.03890  0.96100  0.75600  1.0000
