data_image0
_chemical_formula_structural       O24Te8Th4
_chemical_formula_sum              "O24 Te8 Th4"
_cell_length_a       7.18632
_cell_length_b       11.2152
_cell_length_c       7.36903
_cell_angle_alpha    90
_cell_angle_beta     108.183
_cell_angle_gamma    90

_space_group_name_H-M_alt    "P 1"
_space_group_IT_number       1

loop_
  _space_group_symop_operation_xyz
  'x, y, z'

loop_
  _atom_site_type_symbol
  _atom_site_label
  _atom_site_symmetry_multiplicity
  _atom_site_fract_x
  _atom_site_fract_y
  _atom_site_fract_z
  _atom_site_occupancy
  O   O1        1.0  0.42600  0.90000  0.03200  1.0000
  O   O2        1.0  0.09150  0.90100  0.08410  1.0000
  O   O3        1.0  0.67200  0.71600  0.10900  1.0000
  O   O4        1.0  0.03140  0.59500  0.16600  1.0000
  O   O5        1.0  0.13900  0.24600  0.18300  1.0000
  O   O6        1.0  0.67400  0.46800  0.18800  1.0000
  O   O7        1.0  0.82600  0.96800  0.31200  1.0000
  O   O8        1.0  0.36100  0.74600  0.31700  1.0000
  O   O9        1.0  0.46900  0.09460  0.33400  1.0000
  O   O10       1.0  0.82800  0.21600  0.39100  1.0000
  O   O11       1.0  0.40900  0.40100  0.41600  1.0000
  O   O12       1.0  0.07440  0.40000  0.46800  1.0000
  O   O13       1.0  0.92600  0.60000  0.53200  1.0000
  O   O14       1.0  0.59100  0.59900  0.58400  1.0000
  O   O15       1.0  0.17200  0.78400  0.60900  1.0000
  O   O16       1.0  0.53100  0.90500  0.66600  1.0000
  O   O17       1.0  0.63900  0.25400  0.68300  1.0000
  O   O18       1.0  0.17400  0.03220  0.68800  1.0000
  O   O19       1.0  0.32600  0.53200  0.81200  1.0000
  O   O20       1.0  0.86100  0.75400  0.81700  1.0000
  O   O21       1.0  0.96900  0.40500  0.83400  1.0000
  O   O22       1.0  0.32800  0.28400  0.89100  1.0000
  O   O23       1.0  0.90900  0.09900  0.91600  1.0000
  O   O24       1.0  0.57400  0.10000  0.96800  1.0000
  Te  Te1       1.0  0.75900  0.57200  0.02490  1.0000
  Te  Te2       1.0  0.25600  0.77300  0.05060  1.0000
  Te  Te3       1.0  0.24400  0.27300  0.44900  1.0000
  Te  Te4       1.0  0.74100  0.07190  0.47500  1.0000
  Te  Te5       1.0  0.25900  0.92800  0.52500  1.0000
  Te  Te6       1.0  0.75600  0.72700  0.55100  1.0000
  Te  Te7       1.0  0.74400  0.22700  0.94900  1.0000
  Te  Te8       1.0  0.24100  0.42800  0.97500  1.0000
  Th  Th1       1.0  0.26000  0.09300  0.00938  1.0000
  Th  Th2       1.0  0.24000  0.59300  0.49100  1.0000
  Th  Th3       1.0  0.76000  0.40700  0.50900  1.0000
  Th  Th4       1.0  0.74000  0.90700  0.99100  1.0000
