data_image0
_chemical_formula_structural       C4N16Sr16
_chemical_formula_sum              "C4 N16 Sr16"
_cell_length_a       12.2709
_cell_length_b       3.80569
_cell_length_c       14.3121
_cell_angle_alpha    90
_cell_angle_beta     90
_cell_angle_gamma    90

_space_group_name_H-M_alt    "P 1"
_space_group_IT_number       1

loop_
  _space_group_symop_operation_xyz
  'x, y, z'

loop_
  _atom_site_type_symbol
  _atom_site_label
  _atom_site_symmetry_multiplicity
  _atom_site_fract_x
  _atom_site_fract_y
  _atom_site_fract_z
  _atom_site_occupancy
  C   C1        1.0  0.64900  0.25000  0.09690  1.0000
  C   C2        1.0  0.14900  0.25000  0.40300  1.0000
  C   C3        1.0  0.85100  0.75000  0.59700  1.0000
  C   C4        1.0  0.35100  0.75000  0.90300  1.0000
  N   N1        1.0  0.74300  0.25000  0.06360  1.0000
  N   N2        1.0  0.01390  0.75000  0.12100  1.0000
  N   N3        1.0  0.55400  0.25000  0.12800  1.0000
  N   N4        1.0  0.28000  0.25000  0.16900  1.0000
  N   N5        1.0  0.78000  0.25000  0.33100  1.0000
  N   N6        1.0  0.05400  0.25000  0.37200  1.0000
  N   N7        1.0  0.51400  0.75000  0.37900  1.0000
  N   N8        1.0  0.24300  0.25000  0.43600  1.0000
  N   N9        1.0  0.75700  0.75000  0.56400  1.0000
  N   N10       1.0  0.48600  0.25000  0.62100  1.0000
  N   N11       1.0  0.94600  0.75000  0.62800  1.0000
  N   N12       1.0  0.22000  0.75000  0.66900  1.0000
  N   N13       1.0  0.72000  0.75000  0.83100  1.0000
  N   N14       1.0  0.44600  0.75000  0.87200  1.0000
  N   N15       1.0  0.98600  0.25000  0.87900  1.0000
  N   N16       1.0  0.25700  0.75000  0.93600  1.0000
  Sr  Sr1       1.0  0.12500  0.25000  0.03190  1.0000
  Sr  Sr2       1.0  0.38800  0.75000  0.09610  1.0000
  Sr  Sr3       1.0  0.90700  0.25000  0.18600  1.0000
  Sr  Sr4       1.0  0.16100  0.75000  0.24000  1.0000
  Sr  Sr5       1.0  0.66100  0.75000  0.26000  1.0000
  Sr  Sr6       1.0  0.40700  0.25000  0.31400  1.0000
  Sr  Sr7       1.0  0.88800  0.75000  0.40400  1.0000
  Sr  Sr8       1.0  0.62500  0.25000  0.46800  1.0000
  Sr  Sr9       1.0  0.37500  0.75000  0.53200  1.0000
  Sr  Sr10      1.0  0.11200  0.25000  0.59600  1.0000
  Sr  Sr11      1.0  0.59300  0.75000  0.68600  1.0000
  Sr  Sr12      1.0  0.33900  0.25000  0.74000  1.0000
  Sr  Sr13      1.0  0.83900  0.25000  0.76000  1.0000
  Sr  Sr14      1.0  0.09270  0.75000  0.81400  1.0000
  Sr  Sr15      1.0  0.61200  0.25000  0.90400  1.0000
  Sr  Sr16      1.0  0.87500  0.75000  0.96800  1.0000
