data_image0
_chemical_formula_structural       Ge4Se16Tl16
_chemical_formula_sum              "Ge4 Se16 Tl16"
_cell_length_a       7.14473
_cell_length_b       7.14473
_cell_length_c       25.16
_cell_angle_alpha    91.4288
_cell_angle_beta     97.6175
_cell_angle_gamma    116.448

_space_group_name_H-M_alt    "P 1"
_space_group_IT_number       1

loop_
  _space_group_symop_operation_xyz
  'x, y, z'

loop_
  _atom_site_type_symbol
  _atom_site_label
  _atom_site_symmetry_multiplicity
  _atom_site_fract_x
  _atom_site_fract_y
  _atom_site_fract_z
  _atom_site_occupancy
  Ge  Ge1       1.0  0.43700  0.44000  0.12400  1.0000
  Ge  Ge2       1.0  0.81600  0.31300  0.37600  1.0000
  Ge  Ge3       1.0  0.18400  0.68700  0.62400  1.0000
  Ge  Ge4       1.0  0.56300  0.56000  0.87600  1.0000
  Se  Se1       1.0  0.71100  0.66500  0.07550  1.0000
  Se  Se2       1.0  0.10300  0.41300  0.08240  1.0000
  Se  Se3       1.0  0.41000  0.09350  0.11700  1.0000
  Se  Se4       1.0  0.51700  0.61200  0.21300  1.0000
  Se  Se5       1.0  0.89900  0.30400  0.28700  1.0000
  Se  Se6       1.0  0.47600  0.29300  0.38300  1.0000
  Se  Se7       1.0  0.83100  0.02010  0.41800  1.0000
  Se  Se8       1.0  0.08910  0.63600  0.42400  1.0000
  Se  Se9       1.0  0.91100  0.36400  0.57600  1.0000
  Se  Se10      1.0  0.16900  0.98000  0.58200  1.0000
  Se  Se11      1.0  0.52400  0.70700  0.61700  1.0000
  Se  Se12      1.0  0.10100  0.69600  0.71300  1.0000
  Se  Se13      1.0  0.48300  0.38800  0.78700  1.0000
  Se  Se14      1.0  0.59000  0.90700  0.88300  1.0000
  Se  Se15      1.0  0.89700  0.58700  0.91800  1.0000
  Se  Se16      1.0  0.28900  0.33500  0.92400  1.0000
  Tl  Tl1       1.0  0.00000  0.00000  0.00000  1.0000
  Tl  Tl2       1.0  0.34900  0.72500  0.00166  1.0000
  Tl  Tl3       1.0  0.82500  0.05350  0.16300  1.0000
  Tl  Tl4       1.0  0.08180  0.68500  0.17600  1.0000
  Tl  Tl5       1.0  0.43200  0.18200  0.25000  1.0000
  Tl  Tl6       1.0  0.00913  0.90600  0.32400  1.0000
  Tl  Tl7       1.0  0.39000  0.66200  0.33700  1.0000
  Tl  Tl8       1.0  0.22300  0.34800  0.49800  1.0000
  Tl  Tl9       1.0  0.50000  0.00000  0.50000  1.0000
  Tl  Tl10      1.0  0.77700  0.65200  0.50200  1.0000
  Tl  Tl11      1.0  0.61000  0.33800  0.66300  1.0000
  Tl  Tl12      1.0  0.99100  0.09450  0.67600  1.0000
  Tl  Tl13      1.0  0.56800  0.81800  0.75000  1.0000
  Tl  Tl14      1.0  0.91800  0.31500  0.82400  1.0000
  Tl  Tl15      1.0  0.17500  0.94600  0.83700  1.0000
  Tl  Tl16      1.0  0.65000  0.27500  0.99800  1.0000
