data_image0
_chemical_formula_structural       O22Pb2V12
_chemical_formula_sum              "O22 Pb2 V12"
_cell_length_a       5.93205
_cell_length_b       5.88113
_cell_length_c       13.2809
_cell_angle_alpha    90
_cell_angle_beta     90
_cell_angle_gamma    120.256

_space_group_name_H-M_alt    "P 1"
_space_group_IT_number       1

loop_
  _space_group_symop_operation_xyz
  'x, y, z'

loop_
  _atom_site_type_symbol
  _atom_site_label
  _atom_site_symmetry_multiplicity
  _atom_site_fract_x
  _atom_site_fract_y
  _atom_site_fract_z
  _atom_site_occupancy
  O   O1        1.0  0.64100  0.81100  0.07860  1.0000
  O   O2        1.0  0.17000  0.81100  0.07860  1.0000
  O   O3        1.0  0.17700  0.35400  0.08030  1.0000
  O   O4        1.0  0.67400  0.34700  0.08290  1.0000
  O   O5        1.0  0.85400  0.70800  0.24800  1.0000
  O   O6        1.0  0.29800  0.14800  0.24800  1.0000
  O   O7        1.0  0.85100  0.14800  0.24800  1.0000
  O   O8        1.0  0.67400  0.34800  0.41300  1.0000
  O   O9        1.0  0.16200  0.81700  0.42300  1.0000
  O   O10       1.0  0.17100  0.34300  0.42300  1.0000
  O   O11       1.0  0.65400  0.81600  0.42300  1.0000
  O   O12       1.0  0.35900  0.18900  0.57900  1.0000
  O   O13       1.0  0.83000  0.18900  0.57900  1.0000
  O   O14       1.0  0.82300  0.64600  0.58000  1.0000
  O   O15       1.0  0.32600  0.65300  0.58300  1.0000
  O   O16       1.0  0.14600  0.29200  0.74800  1.0000
  O   O17       1.0  0.70200  0.85200  0.74800  1.0000
  O   O18       1.0  0.14900  0.85200  0.74800  1.0000
  O   O19       1.0  0.32600  0.65200  0.91300  1.0000
  O   O20       1.0  0.83800  0.18300  0.92300  1.0000
  O   O21       1.0  0.82900  0.65700  0.92300  1.0000
  O   O22       1.0  0.34600  0.18400  0.92300  1.0000
  Pb  Pb1       1.0  0.32900  0.65700  0.23000  1.0000
  Pb  Pb2       1.0  0.67100  0.34300  0.73000  1.0000
  V   V1        1.0  0.00000  0.99900  0.14500  1.0000
  V   V2        1.0  0.66700  0.33400  0.24900  1.0000
  V   V3        1.0  0.00061  0.00084  0.35100  1.0000
  V   V4        1.0  0.00312  0.50300  0.49700  1.0000
  V   V5        1.0  0.50000  0.50300  0.49700  1.0000
  V   V6        1.0  0.50000  0.00000  0.49800  1.0000
  V   V7        1.0  0.00023  0.00093  0.64500  1.0000
  V   V8        1.0  0.33300  0.66600  0.74900  1.0000
  V   V9        1.0  0.99900  0.99900  0.85100  1.0000
  V   V10       1.0  0.99700  0.49700  0.99700  1.0000
  V   V11       1.0  0.50000  0.49700  0.99700  1.0000
  V   V12       1.0  0.50000  0.00010  0.99800  1.0000
