data_image0
_chemical_formula_structural       Bi12Cs4Se20
_chemical_formula_sum              "Bi12 Cs4 Se20"
_cell_length_a       22.9055
_cell_length_b       4.19726
_cell_length_c       12.5277
_cell_angle_alpha    90
_cell_angle_beta     90
_cell_angle_gamma    90

_space_group_name_H-M_alt    "P 1"
_space_group_IT_number       1

loop_
  _space_group_symop_operation_xyz
  'x, y, z'

loop_
  _atom_site_type_symbol
  _atom_site_label
  _atom_site_symmetry_multiplicity
  _atom_site_fract_x
  _atom_site_fract_y
  _atom_site_fract_z
  _atom_site_occupancy
  Bi  Bi1       1.0  0.07400  0.25000  0.09280  1.0000
  Bi  Bi2       1.0  0.52400  0.75000  0.13600  1.0000
  Bi  Bi3       1.0  0.87700  0.25000  0.19500  1.0000
  Bi  Bi4       1.0  0.37700  0.25000  0.30500  1.0000
  Bi  Bi5       1.0  0.02420  0.75000  0.36400  1.0000
  Bi  Bi6       1.0  0.57400  0.25000  0.40700  1.0000
  Bi  Bi7       1.0  0.42600  0.75000  0.59300  1.0000
  Bi  Bi8       1.0  0.97600  0.25000  0.63600  1.0000
  Bi  Bi9       1.0  0.62300  0.75000  0.69500  1.0000
  Bi  Bi10      1.0  0.12300  0.75000  0.80500  1.0000
  Bi  Bi11      1.0  0.47600  0.25000  0.86400  1.0000
  Bi  Bi12      1.0  0.92600  0.75000  0.90700  1.0000
  Cs  Cs1       1.0  0.71200  0.75000  0.01120  1.0000
  Cs  Cs2       1.0  0.21200  0.75000  0.48900  1.0000
  Cs  Cs3       1.0  0.78800  0.25000  0.51100  1.0000
  Cs  Cs4       1.0  0.28800  0.25000  0.98900  1.0000
  Se  Se1       1.0  0.15500  0.75000  0.02770  1.0000
  Se  Se2       1.0  0.43800  0.25000  0.08540  1.0000
  Se  Se3       1.0  0.98100  0.75000  0.13900  1.0000
  Se  Se4       1.0  0.61100  0.25000  0.19300  1.0000
  Se  Se5       1.0  0.30100  0.75000  0.24800  1.0000
  Se  Se6       1.0  0.80100  0.75000  0.25200  1.0000
  Se  Se7       1.0  0.11100  0.25000  0.30700  1.0000
  Se  Se8       1.0  0.48100  0.75000  0.36100  1.0000
  Se  Se9       1.0  0.93800  0.25000  0.41500  1.0000
  Se  Se10      1.0  0.65500  0.75000  0.47200  1.0000
  Se  Se11      1.0  0.34500  0.25000  0.52800  1.0000
  Se  Se12      1.0  0.06220  0.75000  0.58500  1.0000
  Se  Se13      1.0  0.51900  0.25000  0.63900  1.0000
  Se  Se14      1.0  0.88900  0.75000  0.69300  1.0000
  Se  Se15      1.0  0.19900  0.25000  0.74800  1.0000
  Se  Se16      1.0  0.69900  0.25000  0.75200  1.0000
  Se  Se17      1.0  0.38900  0.75000  0.80700  1.0000
  Se  Se18      1.0  0.01950  0.25000  0.86100  1.0000
  Se  Se19      1.0  0.56200  0.75000  0.91500  1.0000
  Se  Se20      1.0  0.84500  0.25000  0.97200  1.0000
