data_image0
_chemical_formula_structural       Ga8N16Sr12
_chemical_formula_sum              "Ga8 N16 Sr12"
_cell_length_a       5.96005
_cell_length_b       10.2853
_cell_length_c       9.51529
_cell_angle_alpha    90
_cell_angle_beta     90
_cell_angle_gamma    90

_space_group_name_H-M_alt    "P 1"
_space_group_IT_number       1

loop_
  _space_group_symop_operation_xyz
  'x, y, z'

loop_
  _atom_site_type_symbol
  _atom_site_label
  _atom_site_symmetry_multiplicity
  _atom_site_fract_x
  _atom_site_fract_y
  _atom_site_fract_z
  _atom_site_occupancy
  Ga  Ga1       1.0  0.25000  0.00000  0.23000  1.0000
  Ga  Ga2       1.0  0.16000  0.25000  0.25000  1.0000
  Ga  Ga3       1.0  0.34000  0.75000  0.25000  1.0000
  Ga  Ga4       1.0  0.25000  0.50000  0.27000  1.0000
  Ga  Ga5       1.0  0.75000  0.50000  0.73000  1.0000
  Ga  Ga6       1.0  0.66000  0.25000  0.75000  1.0000
  Ga  Ga7       1.0  0.84000  0.75000  0.75000  1.0000
  Ga  Ga8       1.0  0.75000  0.00000  0.77000  1.0000
  N   N1        1.0  0.37600  0.14700  0.12300  1.0000
  N   N2        1.0  0.12400  0.85300  0.12300  1.0000
  N   N3        1.0  0.00568  0.40500  0.16800  1.0000
  N   N4        1.0  0.49400  0.59500  0.16800  1.0000
  N   N5        1.0  0.00568  0.09510  0.33200  1.0000
  N   N6        1.0  0.49400  0.90500  0.33200  1.0000
  N   N7        1.0  0.37600  0.35300  0.37700  1.0000
  N   N8        1.0  0.12400  0.64700  0.37700  1.0000
  N   N9        1.0  0.87600  0.35300  0.62300  1.0000
  N   N10       1.0  0.62400  0.64700  0.62300  1.0000
  N   N11       1.0  0.50600  0.09510  0.66800  1.0000
  N   N12       1.0  0.99400  0.90500  0.66800  1.0000
  N   N13       1.0  0.50600  0.40500  0.83200  1.0000
  N   N14       1.0  0.99400  0.59500  0.83200  1.0000
  N   N15       1.0  0.87600  0.14700  0.87700  1.0000
  N   N16       1.0  0.62400  0.85300  0.87700  1.0000
  Sr  Sr1       1.0  0.61000  0.34500  0.08730  1.0000
  Sr  Sr2       1.0  0.89000  0.65500  0.08730  1.0000
  Sr  Sr3       1.0  0.75000  0.00000  0.09640  1.0000
  Sr  Sr4       1.0  0.75000  0.50000  0.40400  1.0000
  Sr  Sr5       1.0  0.61000  0.15500  0.41300  1.0000
  Sr  Sr6       1.0  0.89000  0.84500  0.41300  1.0000
  Sr  Sr7       1.0  0.11000  0.15500  0.58700  1.0000
  Sr  Sr8       1.0  0.39000  0.84500  0.58700  1.0000
  Sr  Sr9       1.0  0.25000  0.50000  0.59600  1.0000
  Sr  Sr10      1.0  0.25000  0.00000  0.90400  1.0000
  Sr  Sr11      1.0  0.11000  0.34500  0.91300  1.0000
  Sr  Sr12      1.0  0.39000  0.65500  0.91300  1.0000
