data_image0
_chemical_formula_structural       Rh4Te8Y24
_chemical_formula_sum              "Rh4 Te8 Y24"
_cell_length_a       21.8172
_cell_length_b       4.01975
_cell_length_c       11.5056
_cell_angle_alpha    90
_cell_angle_beta     90
_cell_angle_gamma    90

_space_group_name_H-M_alt    "P 1"
_space_group_IT_number       1

loop_
  _space_group_symop_operation_xyz
  'x, y, z'

loop_
  _atom_site_type_symbol
  _atom_site_label
  _atom_site_symmetry_multiplicity
  _atom_site_fract_x
  _atom_site_fract_y
  _atom_site_fract_z
  _atom_site_occupancy
  Rh  Rh1       1.0  0.07220  0.75000  0.14800  1.0000
  Rh  Rh2       1.0  0.57200  0.75000  0.35200  1.0000
  Rh  Rh3       1.0  0.42800  0.25000  0.64800  1.0000
  Rh  Rh4       1.0  0.92800  0.25000  0.85200  1.0000
  Te  Te1       1.0  0.74000  0.25000  0.03650  1.0000
  Te  Te2       1.0  0.87400  0.75000  0.22800  1.0000
  Te  Te3       1.0  0.37400  0.75000  0.27200  1.0000
  Te  Te4       1.0  0.24000  0.25000  0.46300  1.0000
  Te  Te5       1.0  0.76000  0.75000  0.53700  1.0000
  Te  Te6       1.0  0.62600  0.25000  0.72800  1.0000
  Te  Te7       1.0  0.12600  0.25000  0.77200  1.0000
  Te  Te8       1.0  0.26000  0.75000  0.96300  1.0000
  Y   Y1        1.0  0.15100  0.25000  0.03670  1.0000
  Y   Y2        1.0  0.35500  0.25000  0.06880  1.0000
  Y   Y3        1.0  0.49200  0.75000  0.11800  1.0000
  Y   Y4        1.0  0.97700  0.25000  0.12000  1.0000
  Y   Y5        1.0  0.61000  0.25000  0.18300  1.0000
  Y   Y6        1.0  0.23400  0.75000  0.24600  1.0000
  Y   Y7        1.0  0.73400  0.75000  0.25400  1.0000
  Y   Y8        1.0  0.11000  0.25000  0.31700  1.0000
  Y   Y9        1.0  0.47700  0.25000  0.38000  1.0000
  Y   Y10       1.0  0.99200  0.75000  0.38200  1.0000
  Y   Y11       1.0  0.85500  0.25000  0.43100  1.0000
  Y   Y12       1.0  0.65100  0.25000  0.46300  1.0000
  Y   Y13       1.0  0.34900  0.75000  0.53700  1.0000
  Y   Y14       1.0  0.14500  0.75000  0.56900  1.0000
  Y   Y15       1.0  0.00820  0.25000  0.61800  1.0000
  Y   Y16       1.0  0.52300  0.75000  0.62000  1.0000
  Y   Y17       1.0  0.89000  0.75000  0.68300  1.0000
  Y   Y18       1.0  0.26600  0.25000  0.74600  1.0000
  Y   Y19       1.0  0.76600  0.25000  0.75400  1.0000
  Y   Y20       1.0  0.39000  0.75000  0.81700  1.0000
  Y   Y21       1.0  0.02270  0.75000  0.88000  1.0000
  Y   Y22       1.0  0.50800  0.25000  0.88200  1.0000
  Y   Y23       1.0  0.64500  0.75000  0.93100  1.0000
  Y   Y24       1.0  0.84900  0.75000  0.96300  1.0000
