data_image0
_chemical_formula_structural       In8Pb7Sr21
_chemical_formula_sum              "In8 Pb7 Sr21"
_cell_length_a       12.4183
_cell_length_b       12.4183
_cell_length_c       12.4183
_cell_angle_alpha    120
_cell_angle_beta     90
_cell_angle_gamma    120

_space_group_name_H-M_alt    "P 1"
_space_group_IT_number       1

loop_
  _space_group_symop_operation_xyz
  'x, y, z'

loop_
  _atom_site_type_symbol
  _atom_site_label
  _atom_site_symmetry_multiplicity
  _atom_site_fract_x
  _atom_site_fract_y
  _atom_site_fract_z
  _atom_site_occupancy
  In  In1       1.0  0.68900  0.37800  0.06650  1.0000
  In  In2       1.0  0.68900  0.37800  0.31100  1.0000
  In  In3       1.0  0.68900  0.62200  0.31100  1.0000
  In  In4       1.0  0.93300  0.62200  0.31100  1.0000
  In  In5       1.0  0.06650  0.37800  0.68900  1.0000
  In  In6       1.0  0.31100  0.37800  0.68900  1.0000
  In  In7       1.0  0.31100  0.62200  0.68900  1.0000
  In  In8       1.0  0.31100  0.62200  0.93300  1.0000
  Pb  Pb1       1.0  0.78700  0.00000  0.21300  1.0000
  Pb  Pb2       1.0  0.21300  0.00000  0.21300  1.0000
  Pb  Pb3       1.0  0.21300  0.42600  0.21300  1.0000
  Pb  Pb4       1.0  0.50000  0.00000  0.50000  1.0000
  Pb  Pb5       1.0  0.21300  1.00000  0.78700  1.0000
  Pb  Pb6       1.0  0.78700  0.57400  0.78700  1.0000
  Pb  Pb7       1.0  0.78700  1.00000  0.78700  1.0000
  Sr  Sr1       1.0  0.00000  0.00000  0.00000  1.0000
  Sr  Sr2       1.0  0.38500  0.25700  0.12800  1.0000
  Sr  Sr3       1.0  0.87200  0.25700  0.12800  1.0000
  Sr  Sr4       1.0  0.87200  0.74300  0.12800  1.0000
  Sr  Sr5       1.0  0.50000  0.00000  0.18200  1.0000
  Sr  Sr6       1.0  0.18200  0.68200  0.18200  1.0000
  Sr  Sr7       1.0  0.50000  0.68200  0.18200  1.0000
  Sr  Sr8       1.0  0.12800  0.25700  0.38500  1.0000
  Sr  Sr9       1.0  0.81800  0.31800  0.50000  1.0000
  Sr  Sr10      1.0  0.18200  0.00000  0.50000  1.0000
  Sr  Sr11      1.0  0.50000  0.31800  0.50000  1.0000
  Sr  Sr12      1.0  0.18200  0.68200  0.50000  1.0000
  Sr  Sr13      1.0  0.50000  0.68200  0.50000  1.0000
  Sr  Sr14      1.0  0.81800  0.00000  0.50000  1.0000
  Sr  Sr15      1.0  0.87200  0.74300  0.61500  1.0000
  Sr  Sr16      1.0  0.50000  0.31800  0.81800  1.0000
  Sr  Sr17      1.0  0.50000  0.00000  0.81800  1.0000
  Sr  Sr18      1.0  0.81800  0.31800  0.81800  1.0000
  Sr  Sr19      1.0  0.12800  0.25700  0.87200  1.0000
  Sr  Sr20      1.0  0.12800  0.74300  0.87200  1.0000
  Sr  Sr21      1.0  0.61500  0.74300  0.87200  1.0000
