data_image0
_chemical_formula_structural       Al20Ce4Pt12
_chemical_formula_sum              "Al20 Ce4 Pt12"
_cell_length_a       20.8052
_cell_length_b       4.17995
_cell_length_c       7.36855
_cell_angle_alpha    90
_cell_angle_beta     90
_cell_angle_gamma    90

_space_group_name_H-M_alt    "P 1"
_space_group_IT_number       1

loop_
  _space_group_symop_operation_xyz
  'x, y, z'

loop_
  _atom_site_type_symbol
  _atom_site_label
  _atom_site_symmetry_multiplicity
  _atom_site_fract_x
  _atom_site_fract_y
  _atom_site_fract_z
  _atom_site_occupancy
  Al  Al1       1.0  0.20800  0.25000  0.07540  1.0000
  Al  Al2       1.0  0.01720  0.75000  0.11300  1.0000
  Al  Al3       1.0  0.50800  0.25000  0.13100  1.0000
  Al  Al4       1.0  0.88400  0.25000  0.14500  1.0000
  Al  Al5       1.0  0.29900  0.75000  0.18800  1.0000
  Al  Al6       1.0  0.79900  0.75000  0.31200  1.0000
  Al  Al7       1.0  0.38400  0.25000  0.35500  1.0000
  Al  Al8       1.0  0.00773  0.25000  0.36900  1.0000
  Al  Al9       1.0  0.51700  0.75000  0.38700  1.0000
  Al  Al10      1.0  0.70800  0.25000  0.42500  1.0000
  Al  Al11      1.0  0.29200  0.75000  0.57500  1.0000
  Al  Al12      1.0  0.48300  0.25000  0.61300  1.0000
  Al  Al13      1.0  0.99200  0.75000  0.63100  1.0000
  Al  Al14      1.0  0.61600  0.75000  0.64500  1.0000
  Al  Al15      1.0  0.20100  0.25000  0.68800  1.0000
  Al  Al16      1.0  0.70100  0.25000  0.81200  1.0000
  Al  Al17      1.0  0.11600  0.75000  0.85500  1.0000
  Al  Al18      1.0  0.49200  0.75000  0.86900  1.0000
  Al  Al19      1.0  0.98300  0.25000  0.88700  1.0000
  Al  Al20      1.0  0.79200  0.75000  0.92500  1.0000
  Ce  Ce1       1.0  0.64000  0.75000  0.11700  1.0000
  Ce  Ce2       1.0  0.14000  0.75000  0.38300  1.0000
  Ce  Ce3       1.0  0.86000  0.25000  0.61700  1.0000
  Ce  Ce4       1.0  0.36000  0.25000  0.88300  1.0000
  Pt  Pt1       1.0  0.08420  0.25000  0.07780  1.0000
  Pt  Pt2       1.0  0.76300  0.25000  0.11700  1.0000
  Pt  Pt3       1.0  0.42800  0.75000  0.16400  1.0000
  Pt  Pt4       1.0  0.92800  0.75000  0.33600  1.0000
  Pt  Pt5       1.0  0.26300  0.25000  0.38300  1.0000
  Pt  Pt6       1.0  0.58400  0.25000  0.42200  1.0000
  Pt  Pt7       1.0  0.41600  0.75000  0.57800  1.0000
  Pt  Pt8       1.0  0.73700  0.75000  0.61700  1.0000
  Pt  Pt9       1.0  0.07210  0.25000  0.66400  1.0000
  Pt  Pt10      1.0  0.57200  0.25000  0.83600  1.0000
  Pt  Pt11      1.0  0.23700  0.75000  0.88300  1.0000
  Pt  Pt12      1.0  0.91600  0.75000  0.92200  1.0000
