data_image0
_chemical_formula_structural       B4Ce4Mo4O24
_chemical_formula_sum              "B4 Ce4 Mo4 O24"
_cell_length_a       10.2049
_cell_length_b       4.13821
_cell_length_c       11.9611
_cell_angle_alpha    90
_cell_angle_beta     116.025
_cell_angle_gamma    90

_space_group_name_H-M_alt    "P 1"
_space_group_IT_number       1

loop_
  _space_group_symop_operation_xyz
  'x, y, z'

loop_
  _atom_site_type_symbol
  _atom_site_label
  _atom_site_symmetry_multiplicity
  _atom_site_fract_x
  _atom_site_fract_y
  _atom_site_fract_z
  _atom_site_occupancy
  B   B1        1.0  0.99700  0.33500  0.19100  1.0000
  B   B2        1.0  0.00338  0.83500  0.30900  1.0000
  B   B3        1.0  0.99700  0.16500  0.69100  1.0000
  B   B4        1.0  0.00338  0.66500  0.80900  1.0000
  Ce  Ce1       1.0  0.19500  0.22400  0.02620  1.0000
  Ce  Ce2       1.0  0.80500  0.72400  0.47400  1.0000
  Ce  Ce3       1.0  0.19500  0.27600  0.52600  1.0000
  Ce  Ce4       1.0  0.80500  0.77600  0.97400  1.0000
  Mo  Mo1       1.0  0.64600  0.31300  0.18200  1.0000
  Mo  Mo2       1.0  0.35400  0.81300  0.31800  1.0000
  Mo  Mo3       1.0  0.64600  0.18700  0.68200  1.0000
  Mo  Mo4       1.0  0.35400  0.68700  0.81800  1.0000
  O   O1        1.0  0.73800  0.23200  0.08500  1.0000
  O   O2        1.0  0.99700  0.23100  0.08510  1.0000
  O   O3        1.0  0.45700  0.23200  0.10800  1.0000
  O   O4        1.0  0.25600  0.72500  0.15100  1.0000
  O   O5        1.0  0.66100  0.74000  0.19400  1.0000
  O   O6        1.0  0.97000  0.66300  0.20000  1.0000
  O   O7        1.0  0.02960  0.16300  0.30000  1.0000
  O   O8        1.0  0.33900  0.24000  0.30600  1.0000
  O   O9        1.0  0.74400  0.22500  0.34900  1.0000
  O   O10       1.0  0.54300  0.73200  0.39200  1.0000
  O   O11       1.0  0.00322  0.73100  0.41500  1.0000
  O   O12       1.0  0.26200  0.73200  0.41500  1.0000
  O   O13       1.0  0.73800  0.26800  0.58500  1.0000
  O   O14       1.0  0.99700  0.26900  0.58500  1.0000
  O   O15       1.0  0.45700  0.26800  0.60800  1.0000
  O   O16       1.0  0.25600  0.77500  0.65100  1.0000
  O   O17       1.0  0.66100  0.76000  0.69400  1.0000
  O   O18       1.0  0.97000  0.83700  0.70000  1.0000
  O   O19       1.0  0.02960  0.33700  0.80000  1.0000
  O   O20       1.0  0.33900  0.26000  0.80600  1.0000
  O   O21       1.0  0.74400  0.27500  0.84900  1.0000
  O   O22       1.0  0.54300  0.76800  0.89200  1.0000
  O   O23       1.0  0.00322  0.76900  0.91500  1.0000
  O   O24       1.0  0.26200  0.76800  0.91500  1.0000
