data_image0
_chemical_formula_structural       Co12O22Sr2
_chemical_formula_sum              "Co12 O22 Sr2"
_cell_length_a       5.58949
_cell_length_b       5.58949
_cell_length_c       12.6
_cell_angle_alpha    90
_cell_angle_beta     90
_cell_angle_gamma    120

_space_group_name_H-M_alt    "P 1"
_space_group_IT_number       1

loop_
  _space_group_symop_operation_xyz
  'x, y, z'

loop_
  _atom_site_type_symbol
  _atom_site_label
  _atom_site_symmetry_multiplicity
  _atom_site_fract_x
  _atom_site_fract_y
  _atom_site_fract_z
  _atom_site_occupancy
  Co  Co1       1.0  0.50000  0.00000  0.00000  1.0000
  Co  Co2       1.0  0.00000  0.50000  0.00000  1.0000
  Co  Co3       1.0  0.50000  0.50000  0.00000  1.0000
  Co  Co4       1.0  0.00000  0.00000  0.14900  1.0000
  Co  Co5       1.0  0.66700  0.33300  0.25000  1.0000
  Co  Co6       1.0  0.00000  0.00000  0.35100  1.0000
  Co  Co7       1.0  0.50000  0.00000  0.50000  1.0000
  Co  Co8       1.0  0.00000  0.50000  0.50000  1.0000
  Co  Co9       1.0  0.50000  0.50000  0.50000  1.0000
  Co  Co10      1.0  0.00000  0.00000  0.64900  1.0000
  Co  Co11      1.0  0.33300  0.66700  0.75000  1.0000
  Co  Co12      1.0  0.00000  0.00000  0.85100  1.0000
  O   O1        1.0  0.17600  0.82400  0.07950  1.0000
  O   O2        1.0  0.64900  0.82400  0.07950  1.0000
  O   O3        1.0  0.17600  0.35100  0.07950  1.0000
  O   O4        1.0  0.66700  0.33300  0.08010  1.0000
  O   O5        1.0  0.28700  0.14400  0.25000  1.0000
  O   O6        1.0  0.85600  0.14400  0.25000  1.0000
  O   O7        1.0  0.85600  0.71300  0.25000  1.0000
  O   O8        1.0  0.66700  0.33300  0.42000  1.0000
  O   O9        1.0  0.17600  0.35100  0.42000  1.0000
  O   O10       1.0  0.17600  0.82400  0.42000  1.0000
  O   O11       1.0  0.64900  0.82400  0.42000  1.0000
  O   O12       1.0  0.35100  0.17600  0.58000  1.0000
  O   O13       1.0  0.82400  0.17600  0.58000  1.0000
  O   O14       1.0  0.82400  0.64900  0.58000  1.0000
  O   O15       1.0  0.33300  0.66700  0.58000  1.0000
  O   O16       1.0  0.14400  0.28700  0.75000  1.0000
  O   O17       1.0  0.14400  0.85600  0.75000  1.0000
  O   O18       1.0  0.71300  0.85600  0.75000  1.0000
  O   O19       1.0  0.33300  0.66700  0.92000  1.0000
  O   O20       1.0  0.82400  0.64900  0.92000  1.0000
  O   O21       1.0  0.35100  0.17600  0.92000  1.0000
  O   O22       1.0  0.82400  0.17600  0.92000  1.0000
  Sr  Sr1       1.0  0.33300  0.66700  0.25000  1.0000
  Sr  Sr2       1.0  0.66700  0.33300  0.75000  1.0000
