data_image0
_chemical_formula_structural       Al2F12Li2Sr2
_chemical_formula_sum              "Al2 F12 Li2 Sr2"
_cell_length_a       5.00133
_cell_length_b       5.00127
_cell_length_c       10.0365
_cell_angle_alpha    90.0003
_cell_angle_beta     89.9998
_cell_angle_gamma    120

_space_group_name_H-M_alt    "P 1"
_space_group_IT_number       1

loop_
  _space_group_symop_operation_xyz
  'x, y, z'

loop_
  _atom_site_type_symbol
  _atom_site_label
  _atom_site_symmetry_multiplicity
  _atom_site_fract_x
  _atom_site_fract_y
  _atom_site_fract_z
  _atom_site_occupancy
  Al  Al1       1.0  0.66700  0.33300  0.25000  1.0000
  Al  Al2       1.0  0.33300  0.66700  0.75000  1.0000
  F   F1        1.0  0.97700  0.36400  0.14600  1.0000
  F   F2        1.0  0.63600  0.61300  0.14600  1.0000
  F   F3        1.0  0.38700  0.02350  0.14600  1.0000
  F   F4        1.0  0.38700  0.36400  0.35400  1.0000
  F   F5        1.0  0.63600  0.02340  0.35400  1.0000
  F   F6        1.0  0.97700  0.61300  0.35400  1.0000
  F   F7        1.0  0.02340  0.38700  0.64600  1.0000
  F   F8        1.0  0.36400  0.97700  0.64600  1.0000
  F   F9        1.0  0.61300  0.63600  0.64600  1.0000
  F   F10       1.0  0.61300  0.97700  0.85400  1.0000
  F   F11       1.0  0.36400  0.38700  0.85400  1.0000
  F   F12       1.0  0.02340  0.63600  0.85400  1.0000
  Li  Li1       1.0  0.33300  0.66700  0.25000  1.0000
  Li  Li2       1.0  0.66700  0.33300  0.75000  1.0000
  Sr  Sr1       1.0  0.00000  0.00000  0.00000  1.0000
  Sr  Sr2       1.0  0.00000  0.00000  0.50000  1.0000
