data_image0
_chemical_formula_structural       In2Li2Mg2Mo6O24
_chemical_formula_sum              "In2 Li2 Mg2 Mo6 O24"
_cell_length_a       6.95632
_cell_length_b       8.42495
_cell_length_c       9.67736
_cell_angle_alpha    96.172
_cell_angle_beta     106.833
_cell_angle_gamma    101.639

_space_group_name_H-M_alt    "P 1"
_space_group_IT_number       1

loop_
  _space_group_symop_operation_xyz
  'x, y, z'

loop_
  _atom_site_type_symbol
  _atom_site_label
  _atom_site_symmetry_multiplicity
  _atom_site_fract_x
  _atom_site_fract_y
  _atom_site_fract_z
  _atom_site_occupancy
  In  In1       1.0  0.74700  0.69900  0.40500  1.0000
  In  In2       1.0  0.25300  0.30100  0.59500  1.0000
  Li  Li1       1.0  0.46100  0.89400  0.20500  1.0000
  Li  Li2       1.0  0.53900  0.10600  0.79500  1.0000
  Mg  Mg1       1.0  0.95700  0.30700  0.00627  1.0000
  Mg  Mg2       1.0  0.04340  0.69300  0.99400  1.0000
  Mo  Mo1       1.0  0.51700  0.29800  0.11900  1.0000
  Mo  Mo2       1.0  0.00577  0.99200  0.25000  1.0000
  Mo  Mo3       1.0  0.19900  0.60600  0.33600  1.0000
  Mo  Mo4       1.0  0.80100  0.39400  0.66400  1.0000
  Mo  Mo5       1.0  0.99400  0.00782  0.75000  1.0000
  Mo  Mo6       1.0  0.48300  0.70200  0.88100  1.0000
  O   O1        1.0  0.35600  0.72300  0.01730  1.0000
  O   O2        1.0  0.25700  0.30600  0.03270  1.0000
  O   O3        1.0  0.95400  0.14100  0.14100  1.0000
  O   O4        1.0  0.05040  0.52700  0.14800  1.0000
  O   O5        1.0  0.14300  0.86000  0.18200  1.0000
  O   O6        1.0  0.51100  0.12600  0.20700  1.0000
  O   O7        1.0  0.65500  0.48000  0.25500  1.0000
  O   O8        1.0  0.76200  0.87300  0.25700  1.0000
  O   O9        1.0  0.44500  0.74100  0.35800  1.0000
  O   O10       1.0  0.25500  0.43600  0.41700  1.0000
  O   O11       1.0  0.16600  0.08920  0.42900  1.0000
  O   O12       1.0  0.06700  0.70800  0.43700  1.0000
  O   O13       1.0  0.93300  0.29200  0.56300  1.0000
  O   O14       1.0  0.83400  0.91100  0.57100  1.0000
  O   O15       1.0  0.74500  0.56400  0.58300  1.0000
  O   O16       1.0  0.55500  0.25900  0.64200  1.0000
  O   O17       1.0  0.23800  0.12700  0.74300  1.0000
  O   O18       1.0  0.34500  0.52000  0.74500  1.0000
  O   O19       1.0  0.48900  0.87400  0.79300  1.0000
  O   O20       1.0  0.85700  0.14000  0.81800  1.0000
  O   O21       1.0  0.95000  0.47300  0.85200  1.0000
  O   O22       1.0  0.04580  0.85900  0.85900  1.0000
  O   O23       1.0  0.74300  0.69400  0.96700  1.0000
  O   O24       1.0  0.64400  0.27700  0.98300  1.0000
