data_image0
_chemical_formula_structural       Au2C4Cl2H16N8S4
_chemical_formula_sum              "Au2 C4 Cl2 H16 N8 S4"
_cell_length_a       6.97613
_cell_length_b       8.269
_cell_length_c       8.84974
_cell_angle_alpha    62.148
_cell_angle_beta     95.8772
_cell_angle_gamma    102.661

_space_group_name_H-M_alt    "P 1"
_space_group_IT_number       1

loop_
  _space_group_symop_operation_xyz
  'x, y, z'

loop_
  _atom_site_type_symbol
  _atom_site_label
  _atom_site_symmetry_multiplicity
  _atom_site_fract_x
  _atom_site_fract_y
  _atom_site_fract_z
  _atom_site_occupancy
  Au  Au1       1.0  0.00000  0.00000  0.00000  1.0000
  Au  Au2       1.0  0.50000  0.00000  0.00000  1.0000
  C   C1        1.0  0.23000  0.11200  0.28100  1.0000
  C   C2        1.0  0.27000  0.60700  0.28100  1.0000
  C   C3        1.0  0.73000  0.39300  0.71900  1.0000
  C   C4        1.0  0.77000  0.88800  0.71900  1.0000
  Cl  Cl1       1.0  0.75000  0.37000  0.26000  1.0000
  Cl  Cl2       1.0  0.25000  0.63000  0.74000  1.0000
  H   H1        1.0  0.25800  0.28900  0.02360  1.0000
  H   H2        1.0  0.24200  0.68700  0.02360  1.0000
  H   H3        1.0  0.45600  0.32600  0.15400  1.0000
  H   H4        1.0  0.04430  0.52000  0.15400  1.0000
  H   H5        1.0  0.43200  0.16700  0.44500  1.0000
  H   H6        1.0  0.06850  0.38900  0.44500  1.0000
  H   H7        1.0  0.74400  0.04120  0.46100  1.0000
  H   H8        1.0  0.75600  0.49800  0.46100  1.0000
  H   H9        1.0  0.24400  0.50200  0.53900  1.0000
  H   H10       1.0  0.25600  0.95900  0.53900  1.0000
  H   H11       1.0  0.93200  0.61100  0.55500  1.0000
  H   H12       1.0  0.56800  0.83300  0.55500  1.0000
  H   H13       1.0  0.95600  0.48000  0.84600  1.0000
  H   H14       1.0  0.54400  0.67400  0.84600  1.0000
  H   H15       1.0  0.75800  0.31300  0.97600  1.0000
  H   H16       1.0  0.74200  0.71100  0.97600  1.0000
  N   N1        1.0  0.31800  0.25600  0.14200  1.0000
  N   N2        1.0  0.18200  0.60200  0.14200  1.0000
  N   N3        1.0  0.30800  0.08000  0.43300  1.0000
  N   N4        1.0  0.19200  0.48700  0.43300  1.0000
  N   N5        1.0  0.80800  0.51300  0.56700  1.0000
  N   N6        1.0  0.69200  0.92000  0.56700  1.0000
  N   N7        1.0  0.81800  0.39800  0.85800  1.0000
  N   N8        1.0  0.68200  0.74400  0.85800  1.0000
  S   S1        1.0  0.48600  0.75900  0.27400  1.0000
  S   S2        1.0  0.01360  0.96600  0.27400  1.0000
  S   S3        1.0  0.98600  0.03360  0.72600  1.0000
  S   S4        1.0  0.51400  0.24100  0.72600  1.0000
