data_image0
_chemical_formula_structural       Li3MnO6Rh
_chemical_formula_sum              "Li3 Mn1 O6 Rh1"
_cell_length_a       4.99442
_cell_length_b       4.99442
_cell_length_c       5.0385
_cell_angle_alpha    100.09
_cell_angle_beta     100.09
_cell_angle_gamma    119.34

_space_group_name_H-M_alt    "P 1"
_space_group_IT_number       1

loop_
  _space_group_symop_operation_xyz
  'x, y, z'

loop_
  _atom_site_type_symbol
  _atom_site_label
  _atom_site_symmetry_multiplicity
  _atom_site_fract_x
  _atom_site_fract_y
  _atom_site_fract_z
  _atom_site_occupancy
  Li  Li1       1.0  0.49500  0.50500  0.00000  1.0000
  Li  Li2       1.0  0.99800  0.00163  0.50000  1.0000
  Li  Li3       1.0  0.65600  0.34400  0.50000  1.0000
  Mn  Mn1       1.0  0.17100  0.82900  0.00000  1.0000
  O   O1        1.0  0.92600  0.58500  0.22200  1.0000
  O   O2        1.0  0.23100  0.21400  0.22700  1.0000
  O   O3        1.0  0.57700  0.92800  0.23100  1.0000
  O   O4        1.0  0.07220  0.42300  0.76900  1.0000
  O   O5        1.0  0.78600  0.76900  0.77300  1.0000
  O   O6        1.0  0.41500  0.07440  0.77800  1.0000
  Rh  Rh1       1.0  0.83300  0.16700  0.00000  1.0000
