data_image0
_chemical_formula_structural       Ba4Fe4H4O20P4
_chemical_formula_sum              "Ba4 Fe4 H4 O20 P4"
_cell_length_a       9.79163
_cell_length_b       8.83902
_cell_length_c       4.9872
_cell_angle_alpha    90
_cell_angle_beta     90
_cell_angle_gamma    90

_space_group_name_H-M_alt    "P 1"
_space_group_IT_number       1

loop_
  _space_group_symop_operation_xyz
  'x, y, z'

loop_
  _atom_site_type_symbol
  _atom_site_label
  _atom_site_symmetry_multiplicity
  _atom_site_fract_x
  _atom_site_fract_y
  _atom_site_fract_z
  _atom_site_occupancy
  Ba  Ba1       1.0  0.52500  0.01770  0.21900  1.0000
  Ba  Ba2       1.0  0.47500  0.51800  0.28100  1.0000
  Ba  Ba3       1.0  0.97500  0.98200  0.71900  1.0000
  Ba  Ba4       1.0  0.02530  0.48200  0.78100  1.0000
  Fe  Fe1       1.0  0.17100  0.77600  0.21700  1.0000
  Fe  Fe2       1.0  0.82900  0.27600  0.28300  1.0000
  Fe  Fe3       1.0  0.32900  0.22400  0.71700  1.0000
  Fe  Fe4       1.0  0.67100  0.72400  0.78300  1.0000
  H   H1        1.0  0.78800  0.00026  0.12200  1.0000
  H   H2        1.0  0.21200  0.50000  0.37800  1.0000
  H   H3        1.0  0.71200  0.00000  0.62200  1.0000
  H   H4        1.0  0.28800  0.50000  0.87800  1.0000
  O   O1        1.0  0.63500  0.29700  0.08420  1.0000
  O   O2        1.0  0.95300  0.75700  0.11700  1.0000
  O   O3        1.0  0.69500  0.71800  0.20800  1.0000
  O   O4        1.0  0.19400  0.55400  0.20900  1.0000
  O   O5        1.0  0.86500  0.49800  0.22900  1.0000
  O   O6        1.0  0.13500  0.99800  0.27100  1.0000
  O   O7        1.0  0.80600  0.05390  0.29100  1.0000
  O   O8        1.0  0.30500  0.21800  0.29200  1.0000
  O   O9        1.0  0.04750  0.25700  0.38300  1.0000
  O   O10       1.0  0.36500  0.79700  0.41600  1.0000
  O   O11       1.0  0.86500  0.70300  0.58400  1.0000
  O   O12       1.0  0.54700  0.24300  0.61700  1.0000
  O   O13       1.0  0.80500  0.28200  0.70800  1.0000
  O   O14       1.0  0.30600  0.44600  0.70900  1.0000
  O   O15       1.0  0.63500  0.50200  0.72900  1.0000
  O   O16       1.0  0.36500  0.00153  0.77100  1.0000
  O   O17       1.0  0.69400  0.94600  0.79100  1.0000
  O   O18       1.0  0.19500  0.78200  0.79200  1.0000
  O   O19       1.0  0.45300  0.74300  0.88300  1.0000
  O   O20       1.0  0.13500  0.20300  0.91600  1.0000
  P   P1        1.0  0.15600  0.17100  0.21900  1.0000
  P   P2        1.0  0.84400  0.67100  0.28100  1.0000
  P   P3        1.0  0.34400  0.82900  0.71900  1.0000
  P   P4        1.0  0.65600  0.32900  0.78100  1.0000
