data_image0
_chemical_formula_structural       Li3MnO6Pb
_chemical_formula_sum              "Li3 Mn1 O6 Pb1"
_cell_length_a       5.29873
_cell_length_b       5.29873
_cell_length_c       5.08393
_cell_angle_alpha    99.7013
_cell_angle_beta     99.7013
_cell_angle_gamma    120.797

_space_group_name_H-M_alt    "P 1"
_space_group_IT_number       1

loop_
  _space_group_symop_operation_xyz
  'x, y, z'

loop_
  _atom_site_type_symbol
  _atom_site_label
  _atom_site_symmetry_multiplicity
  _atom_site_fract_x
  _atom_site_fract_y
  _atom_site_fract_z
  _atom_site_occupancy
  Li  Li1       1.0  0.02230  0.97800  0.50000  1.0000
  Li  Li2       1.0  0.64400  0.35600  0.50000  1.0000
  Li  Li3       1.0  0.35000  0.65000  0.50000  1.0000
  Mn  Mn1       1.0  0.16400  0.83600  0.00000  1.0000
  O   O1        1.0  0.96500  0.61400  0.24200  1.0000
  O   O2        1.0  0.54300  0.93800  0.24900  1.0000
  O   O3        1.0  0.23000  0.20100  0.25000  1.0000
  O   O4        1.0  0.79900  0.77000  0.75000  1.0000
  O   O5        1.0  0.06190  0.45700  0.75100  1.0000
  O   O6        1.0  0.38600  0.03460  0.75800  1.0000
  Pb  Pb1       1.0  0.83500  0.16500  0.00000  1.0000
