data_image0
_chemical_formula_structural       Er2Li2O24P8
_chemical_formula_sum              "Er2 Li2 O24 P8"
_cell_length_a       6.93117
_cell_length_b       8.7434
_cell_length_c       8.8196
_cell_angle_alpha    65.2868
_cell_angle_beta     113.138
_cell_angle_gamma    113.351

_space_group_name_H-M_alt    "P 1"
_space_group_IT_number       1

loop_
  _space_group_symop_operation_xyz
  'x, y, z'

loop_
  _atom_site_type_symbol
  _atom_site_label
  _atom_site_symmetry_multiplicity
  _atom_site_fract_x
  _atom_site_fract_y
  _atom_site_fract_z
  _atom_site_occupancy
  Er  Er1       1.0  0.22200  0.75000  0.25000  1.0000
  Er  Er2       1.0  0.77800  0.25000  0.75000  1.0000
  Li  Li1       1.0  0.00000  0.00000  0.00000  1.0000
  Li  Li2       1.0  0.00000  0.50000  0.50000  1.0000
  O   O1        1.0  0.84200  0.16700  0.04460  1.0000
  O   O2        1.0  0.55900  0.25000  0.07730  1.0000
  O   O3        1.0  0.83800  0.75400  0.09070  1.0000
  O   O4        1.0  0.35800  0.37000  0.15600  1.0000
  O   O5        1.0  0.55000  0.92300  0.19500  1.0000
  O   O6        1.0  0.24600  0.03570  0.20900  1.0000
  O   O7        1.0  0.00202  0.46400  0.29100  1.0000
  O   O8        1.0  0.43200  0.57700  0.30500  1.0000
  O   O9        1.0  0.83300  0.13000  0.34400  1.0000
  O   O10       1.0  0.99300  0.74600  0.40900  1.0000
  O   O11       1.0  0.23200  0.25000  0.42300  1.0000
  O   O12       1.0  0.63000  0.33300  0.45500  1.0000
  O   O13       1.0  0.37000  0.66700  0.54500  1.0000
  O   O14       1.0  0.76800  0.75000  0.57700  1.0000
  O   O15       1.0  0.00652  0.25400  0.59100  1.0000
  O   O16       1.0  0.16700  0.87000  0.65600  1.0000
  O   O17       1.0  0.56800  0.42300  0.69500  1.0000
  O   O18       1.0  0.99800  0.53600  0.70900  1.0000
  O   O19       1.0  0.75400  0.96400  0.79100  1.0000
  O   O20       1.0  0.45000  0.07700  0.80500  1.0000
  O   O21       1.0  0.64200  0.63000  0.84400  1.0000
  O   O22       1.0  0.16200  0.24600  0.90900  1.0000
  O   O23       1.0  0.44100  0.75000  0.92300  1.0000
  O   O24       1.0  0.15800  0.83300  0.95500  1.0000
  P   P1        1.0  0.31900  0.21700  0.08600  1.0000
  P   P2        1.0  0.69300  0.10600  0.15800  1.0000
  P   P3        1.0  0.43000  0.39400  0.34200  1.0000
  P   P4        1.0  0.01600  0.28300  0.41400  1.0000
  P   P5        1.0  0.98400  0.71700  0.58600  1.0000
  P   P6        1.0  0.57000  0.60600  0.65800  1.0000
  P   P7        1.0  0.30700  0.89400  0.84200  1.0000
  P   P8        1.0  0.68100  0.78300  0.91400  1.0000
