data_image0
_chemical_formula_structural       Mo6O24Se2Tl4
_chemical_formula_sum              "Mo6 O24 Se2 Tl4"
_cell_length_a       7.29527
_cell_length_b       7.29527
_cell_length_c       11.5791
_cell_angle_alpha    90.0003
_cell_angle_beta     90.0003
_cell_angle_gamma    120

_space_group_name_H-M_alt    "P 1"
_space_group_IT_number       1

loop_
  _space_group_symop_operation_xyz
  'x, y, z'

loop_
  _atom_site_type_symbol
  _atom_site_label
  _atom_site_symmetry_multiplicity
  _atom_site_fract_x
  _atom_site_fract_y
  _atom_site_fract_z
  _atom_site_occupancy
  Mo  Mo1       1.0  0.66000  0.79500  0.06530  1.0000
  Mo  Mo2       1.0  0.20500  0.86500  0.06530  1.0000
  Mo  Mo3       1.0  0.13500  0.34000  0.06540  1.0000
  Mo  Mo4       1.0  0.79500  0.66000  0.56500  1.0000
  Mo  Mo5       1.0  0.86500  0.20500  0.56500  1.0000
  Mo  Mo6       1.0  0.34000  0.13500  0.56500  1.0000
  O   O1        1.0  0.87900  0.74700  0.05000  1.0000
  O   O2        1.0  0.25300  0.13200  0.05000  1.0000
  O   O3        1.0  0.86800  0.12100  0.05000  1.0000
  O   O4        1.0  0.08530  0.54800  0.11700  1.0000
  O   O5        1.0  0.46300  0.91500  0.11700  1.0000
  O   O6        1.0  0.45200  0.53700  0.11700  1.0000
  O   O7        1.0  0.12800  0.24900  0.24300  1.0000
  O   O8        1.0  0.75100  0.87900  0.24300  1.0000
  O   O9        1.0  0.12100  0.87200  0.24300  1.0000
  O   O10       1.0  0.79100  0.58800  0.42200  1.0000
  O   O11       1.0  0.79700  0.20900  0.42200  1.0000
  O   O12       1.0  0.41200  0.20300  0.42200  1.0000
  O   O13       1.0  0.74700  0.87900  0.55000  1.0000
  O   O14       1.0  0.13200  0.25300  0.55000  1.0000
  O   O15       1.0  0.12100  0.86800  0.55000  1.0000
  O   O16       1.0  0.54800  0.08530  0.61700  1.0000
  O   O17       1.0  0.91500  0.46300  0.61700  1.0000
  O   O18       1.0  0.53700  0.45200  0.61700  1.0000
  O   O19       1.0  0.87900  0.75100  0.74300  1.0000
  O   O20       1.0  0.24900  0.12800  0.74300  1.0000
  O   O21       1.0  0.87200  0.12100  0.74300  1.0000
  O   O22       1.0  0.58800  0.79100  0.92200  1.0000
  O   O23       1.0  0.20900  0.79700  0.92200  1.0000
  O   O24       1.0  0.20300  0.41200  0.92200  1.0000
  Se  Se1       1.0  0.00000  0.00000  0.30700  1.0000
  Se  Se2       1.0  0.00000  0.00000  0.80700  1.0000
  Tl  Tl1       1.0  0.66700  0.33300  0.23200  1.0000
  Tl  Tl2       1.0  0.33300  0.66700  0.34600  1.0000
  Tl  Tl3       1.0  0.33300  0.66700  0.73200  1.0000
  Tl  Tl4       1.0  0.66700  0.33300  0.84600  1.0000
