data_image0
_chemical_formula_structural       Gd4Mo2O24Se6
_chemical_formula_sum              "Gd4 Mo2 O24 Se6"
_cell_length_a       6.52402
_cell_length_b       7.07034
_cell_length_c       10.7924
_cell_angle_alpha    85.2185
_cell_angle_beta     72.6976
_cell_angle_gamma    86.8747

_space_group_name_H-M_alt    "P 1"
_space_group_IT_number       1

loop_
  _space_group_symop_operation_xyz
  'x, y, z'

loop_
  _atom_site_type_symbol
  _atom_site_label
  _atom_site_symmetry_multiplicity
  _atom_site_fract_x
  _atom_site_fract_y
  _atom_site_fract_z
  _atom_site_occupancy
  Gd  Gd1       1.0  0.23100  0.13700  0.01120  1.0000
  Gd  Gd2       1.0  0.29300  0.31900  0.33300  1.0000
  Gd  Gd3       1.0  0.70700  0.68100  0.66700  1.0000
  Gd  Gd4       1.0  0.76900  0.86300  0.98900  1.0000
  Mo  Mo1       1.0  0.77700  0.61100  0.29200  1.0000
  Mo  Mo2       1.0  0.22300  0.38900  0.70800  1.0000
  O   O1        1.0  0.85700  0.16400  0.04200  1.0000
  O   O2        1.0  0.78300  0.54300  0.08300  1.0000
  O   O3        1.0  0.45500  0.31300  0.10500  1.0000
  O   O4        1.0  0.41400  0.89800  0.11900  1.0000
  O   O5        1.0  0.80800  0.83500  0.20100  1.0000
  O   O6        1.0  0.07050  0.14600  0.23500  1.0000
  O   O7        1.0  0.04960  0.52700  0.26300  1.0000
  O   O8        1.0  0.44000  0.62700  0.30500  1.0000
  O   O9        1.0  0.67400  0.32800  0.32100  1.0000
  O   O10       1.0  0.40100  0.00151  0.35500  1.0000
  O   O11       1.0  0.71300  0.67200  0.45400  1.0000
  O   O12       1.0  0.94000  0.23300  0.46800  1.0000
  O   O13       1.0  0.06010  0.76700  0.53200  1.0000
  O   O14       1.0  0.28700  0.32800  0.54600  1.0000
  O   O15       1.0  0.59900  0.99800  0.64500  1.0000
  O   O16       1.0  0.32600  0.67200  0.67900  1.0000
  O   O17       1.0  0.56000  0.37300  0.69500  1.0000
  O   O18       1.0  0.95000  0.47300  0.73700  1.0000
  O   O19       1.0  0.93000  0.85400  0.76500  1.0000
  O   O20       1.0  0.19200  0.16500  0.79900  1.0000
  O   O21       1.0  0.58600  0.10200  0.88100  1.0000
  O   O22       1.0  0.54500  0.68700  0.89500  1.0000
  O   O23       1.0  0.21700  0.45700  0.91700  1.0000
  O   O24       1.0  0.14300  0.83600  0.95800  1.0000
  Se  Se1       1.0  0.71400  0.36200  0.00352  1.0000
  Se  Se2       1.0  0.29100  0.83900  0.28800  1.0000
  Se  Se3       1.0  0.83200  0.13500  0.36400  1.0000
  Se  Se4       1.0  0.16800  0.86500  0.63600  1.0000
  Se  Se5       1.0  0.70900  0.16100  0.71200  1.0000
  Se  Se6       1.0  0.28600  0.63800  0.99600  1.0000
