data_image0
_chemical_formula_structural       Mo4O24Yb8
_chemical_formula_sum              "Mo4 O24 Yb8"
_cell_length_a       5.32501
_cell_length_b       9.62448
_cell_length_c       9.62448
_cell_angle_alpha    70.6352
_cell_angle_beta     104.1
_cell_angle_gamma    104.1

_space_group_name_H-M_alt    "P 1"
_space_group_IT_number       1

loop_
  _space_group_symop_operation_xyz
  'x, y, z'

loop_
  _atom_site_type_symbol
  _atom_site_label
  _atom_site_symmetry_multiplicity
  _atom_site_fract_x
  _atom_site_fract_y
  _atom_site_fract_z
  _atom_site_occupancy
  Mo  Mo1       1.0  0.91600  0.29400  0.01520  1.0000
  Mo  Mo2       1.0  0.41600  0.01520  0.29400  1.0000
  Mo  Mo3       1.0  0.58400  0.98500  0.70600  1.0000
  Mo  Mo4       1.0  0.08400  0.70600  0.98500  1.0000
  O   O1        1.0  0.23300  0.43600  0.01980  1.0000
  O   O2        1.0  0.97600  0.11100  0.05260  1.0000
  O   O3        1.0  0.47600  0.05260  0.11100  1.0000
  O   O4        1.0  0.38200  0.67600  0.12400  1.0000
  O   O5        1.0  0.90200  0.65600  0.16900  1.0000
  O   O6        1.0  0.86700  0.29800  0.19300  1.0000
  O   O7        1.0  0.36700  0.19300  0.29800  1.0000
  O   O8        1.0  0.11800  0.87600  0.32400  1.0000
  O   O9        1.0  0.59800  0.83100  0.34400  1.0000
  O   O10       1.0  0.43900  0.43100  0.42100  1.0000
  O   O11       1.0  0.93900  0.42100  0.43100  1.0000
  O   O12       1.0  0.73300  0.01980  0.43600  1.0000
  O   O13       1.0  0.26700  0.98000  0.56400  1.0000
  O   O14       1.0  0.06140  0.57900  0.56900  1.0000
  O   O15       1.0  0.56100  0.56900  0.57900  1.0000
  O   O16       1.0  0.40200  0.16900  0.65600  1.0000
  O   O17       1.0  0.88200  0.12400  0.67600  1.0000
  O   O18       1.0  0.63300  0.80700  0.70200  1.0000
  O   O19       1.0  0.13300  0.70200  0.80700  1.0000
  O   O20       1.0  0.09750  0.34400  0.83100  1.0000
  O   O21       1.0  0.61800  0.32400  0.87600  1.0000
  O   O22       1.0  0.52400  0.94700  0.88900  1.0000
  O   O23       1.0  0.02360  0.88900  0.94700  1.0000
  O   O24       1.0  0.76700  0.56400  0.98000  1.0000
  Yb  Yb1       1.0  0.75000  0.87200  0.12800  1.0000
  Yb  Yb2       1.0  0.59600  0.44500  0.21200  1.0000
  Yb  Yb3       1.0  0.25000  0.63700  0.36300  1.0000
  Yb  Yb4       1.0  0.09550  0.21200  0.44500  1.0000
  Yb  Yb5       1.0  0.90400  0.78800  0.55500  1.0000
  Yb  Yb6       1.0  0.75000  0.36300  0.63700  1.0000
  Yb  Yb7       1.0  0.40400  0.55500  0.78800  1.0000
  Yb  Yb8       1.0  0.25000  0.12800  0.87200  1.0000
