data_image0
_chemical_formula_structural       Li3MnO6Ru
_chemical_formula_sum              "Li3 Mn1 O6 Ru1"
_cell_length_a       5.04239
_cell_length_b       5.04239
_cell_length_c       4.98636
_cell_angle_alpha    99.0089
_cell_angle_beta     99.0089
_cell_angle_gamma    120.885

_space_group_name_H-M_alt    "P 1"
_space_group_IT_number       1

loop_
  _space_group_symop_operation_xyz
  'x, y, z'

loop_
  _atom_site_type_symbol
  _atom_site_label
  _atom_site_symmetry_multiplicity
  _atom_site_fract_x
  _atom_site_fract_y
  _atom_site_fract_z
  _atom_site_occupancy
  Li  Li1       1.0  0.50000  0.50000  0.00000  1.0000
  Li  Li2       1.0  0.65700  0.34300  0.50000  1.0000
  Li  Li3       1.0  0.34100  0.65900  0.50000  1.0000
  Mn  Mn1       1.0  0.16500  0.83500  0.00000  1.0000
  O   O1        1.0  0.23500  0.22900  0.22300  1.0000
  O   O2        1.0  0.93000  0.57100  0.22700  1.0000
  O   O3        1.0  0.55900  0.92400  0.22800  1.0000
  O   O4        1.0  0.07600  0.44100  0.77200  1.0000
  O   O5        1.0  0.42900  0.06970  0.77300  1.0000
  O   O6        1.0  0.77100  0.76500  0.77700  1.0000
  Ru  Ru1       1.0  0.83700  0.16300  0.00000  1.0000
