data_image0
_chemical_formula_structural       Cs2O24P6Th4
_chemical_formula_sum              "Cs2 O24 P6 Th4"
_cell_length_a       6.98112
_cell_length_b       8.14145
_cell_length_c       9.60234
_cell_angle_alpha    102.029
_cell_angle_beta     111.316
_cell_angle_gamma    90

_space_group_name_H-M_alt    "P 1"
_space_group_IT_number       1

loop_
  _space_group_symop_operation_xyz
  'x, y, z'

loop_
  _atom_site_type_symbol
  _atom_site_label
  _atom_site_symmetry_multiplicity
  _atom_site_fract_x
  _atom_site_fract_y
  _atom_site_fract_z
  _atom_site_occupancy
  Cs  Cs1       1.0  0.40900  0.25000  0.00000  1.0000
  Cs  Cs2       1.0  0.59100  0.75000  0.00000  1.0000
  O   O1        1.0  0.23800  0.91300  0.05230  1.0000
  O   O2        1.0  0.81400  0.41300  0.05230  1.0000
  O   O3        1.0  0.04460  0.74500  0.14500  1.0000
  O   O4        1.0  0.10100  0.24500  0.14500  1.0000
  O   O5        1.0  0.74300  0.65000  0.29200  1.0000
  O   O6        1.0  0.54900  0.15000  0.29200  1.0000
  O   O7        1.0  0.40100  0.56500  0.30500  1.0000
  O   O8        1.0  0.90400  0.06460  0.30500  1.0000
  O   O9        1.0  0.55000  0.86800  0.40600  1.0000
  O   O10       1.0  0.85600  0.36800  0.40600  1.0000
  O   O11       1.0  0.17000  0.83200  0.44800  1.0000
  O   O12       1.0  0.27800  0.33200  0.44800  1.0000
  O   O13       1.0  0.72200  0.66800  0.55200  1.0000
  O   O14       1.0  0.83000  0.16800  0.55200  1.0000
  O   O15       1.0  0.14400  0.63200  0.59400  1.0000
  O   O16       1.0  0.45000  0.13200  0.59400  1.0000
  O   O17       1.0  0.09610  0.93500  0.69500  1.0000
  O   O18       1.0  0.59900  0.43500  0.69500  1.0000
  O   O19       1.0  0.45100  0.85000  0.70800  1.0000
  O   O20       1.0  0.25700  0.35000  0.70800  1.0000
  O   O21       1.0  0.89900  0.75500  0.85500  1.0000
  O   O22       1.0  0.95500  0.25500  0.85500  1.0000
  O   O23       1.0  0.76200  0.08720  0.94800  1.0000
  O   O24       1.0  0.18600  0.58700  0.94800  1.0000
  P   P1        1.0  0.90600  0.25000  0.00000  1.0000
  P   P2        1.0  0.09440  0.75000  0.00000  1.0000
  P   P3        1.0  0.60100  0.67900  0.38200  1.0000
  P   P4        1.0  0.78100  0.17900  0.38200  1.0000
  P   P5        1.0  0.21900  0.82100  0.61800  1.0000
  P   P6        1.0  0.39900  0.32100  0.61800  1.0000
  Th  Th1       1.0  0.24700  0.03250  0.31000  1.0000
  Th  Th2       1.0  0.06300  0.53300  0.31000  1.0000
  Th  Th3       1.0  0.75300  0.96700  0.69000  1.0000
  Th  Th4       1.0  0.93700  0.46700  0.69000  1.0000
