data_image0
_chemical_formula_structural       Ce4O24Te8
_chemical_formula_sum              "Ce4 O24 Te8"
_cell_length_a       7.28602
_cell_length_b       11.2047
_cell_length_c       6.9277
_cell_angle_alpha    90
_cell_angle_beta     106.259
_cell_angle_gamma    90

_space_group_name_H-M_alt    "P 1"
_space_group_IT_number       1

loop_
  _space_group_symop_operation_xyz
  'x, y, z'

loop_
  _atom_site_type_symbol
  _atom_site_label
  _atom_site_symmetry_multiplicity
  _atom_site_fract_x
  _atom_site_fract_y
  _atom_site_fract_z
  _atom_site_occupancy
  Ce  Ce1       1.0  0.74400  0.90900  0.01250  1.0000
  Ce  Ce2       1.0  0.75600  0.40900  0.48700  1.0000
  Ce  Ce3       1.0  0.24400  0.59100  0.51300  1.0000
  Ce  Ce4       1.0  0.25600  0.09060  0.98700  1.0000
  O   O1        1.0  0.41700  0.89500  0.01140  1.0000
  O   O2        1.0  0.09830  0.90100  0.12500  1.0000
  O   O3        1.0  0.69600  0.45100  0.13100  1.0000
  O   O4        1.0  0.70300  0.70600  0.13400  1.0000
  O   O5        1.0  0.06060  0.58100  0.14900  1.0000
  O   O6        1.0  0.12900  0.24400  0.18000  1.0000
  O   O7        1.0  0.37100  0.74400  0.32000  1.0000
  O   O8        1.0  0.43900  0.08050  0.35100  1.0000
  O   O9        1.0  0.79700  0.20600  0.36600  1.0000
  O   O10       1.0  0.80400  0.95100  0.36900  1.0000
  O   O11       1.0  0.40200  0.40100  0.37500  1.0000
  O   O12       1.0  0.08310  0.39500  0.48900  1.0000
  O   O13       1.0  0.91700  0.60500  0.51100  1.0000
  O   O14       1.0  0.59800  0.59900  0.62500  1.0000
  O   O15       1.0  0.19600  0.04860  0.63100  1.0000
  O   O16       1.0  0.20300  0.79400  0.63400  1.0000
  O   O17       1.0  0.56100  0.91900  0.64900  1.0000
  O   O18       1.0  0.62900  0.25600  0.68000  1.0000
  O   O19       1.0  0.87100  0.75600  0.82000  1.0000
  O   O20       1.0  0.93900  0.41900  0.85100  1.0000
  O   O21       1.0  0.29700  0.29400  0.86600  1.0000
  O   O22       1.0  0.30400  0.54900  0.86900  1.0000
  O   O23       1.0  0.90200  0.09910  0.87500  1.0000
  O   O24       1.0  0.58300  0.10500  0.98900  1.0000
  Te  Te1       1.0  0.79100  0.57800  0.00639  1.0000
  Te  Te2       1.0  0.24500  0.77500  0.04010  1.0000
  Te  Te3       1.0  0.25500  0.27500  0.46000  1.0000
  Te  Te4       1.0  0.70900  0.07760  0.49400  1.0000
  Te  Te5       1.0  0.29100  0.92200  0.50600  1.0000
  Te  Te6       1.0  0.74500  0.72500  0.54000  1.0000
  Te  Te7       1.0  0.75500  0.22500  0.96000  1.0000
  Te  Te8       1.0  0.20900  0.42200  0.99400  1.0000
