data_image0
_chemical_formula_structural       Cu4Dy8O20Sr4
_chemical_formula_sum              "Cu4 Dy8 O20 Sr4"
_cell_length_a       12.0026
_cell_length_b       5.58992
_cell_length_c       7.07153
_cell_angle_alpha    90
_cell_angle_beta     90
_cell_angle_gamma    90

_space_group_name_H-M_alt    "P 1"
_space_group_IT_number       1

loop_
  _space_group_symop_operation_xyz
  'x, y, z'

loop_
  _atom_site_type_symbol
  _atom_site_label
  _atom_site_symmetry_multiplicity
  _atom_site_fract_x
  _atom_site_fract_y
  _atom_site_fract_z
  _atom_site_occupancy
  Cu  Cu1       1.0  0.83900  0.75000  0.21500  1.0000
  Cu  Cu2       1.0  0.33900  0.75000  0.28500  1.0000
  Cu  Cu3       1.0  0.66100  0.25000  0.71500  1.0000
  Cu  Cu4       1.0  0.16100  0.25000  0.78500  1.0000
  Dy  Dy1       1.0  0.57300  0.25000  0.10500  1.0000
  Dy  Dy2       1.0  0.28800  0.25000  0.11500  1.0000
  Dy  Dy3       1.0  0.78800  0.25000  0.38500  1.0000
  Dy  Dy4       1.0  0.07350  0.25000  0.39500  1.0000
  Dy  Dy5       1.0  0.92700  0.75000  0.60500  1.0000
  Dy  Dy6       1.0  0.21200  0.75000  0.61500  1.0000
  Dy  Dy7       1.0  0.71200  0.75000  0.88500  1.0000
  Dy  Dy8       1.0  0.42700  0.75000  0.89500  1.0000
  O   O1        1.0  0.09450  0.25000  0.07360  1.0000
  O   O2        1.0  0.72500  0.50600  0.14900  1.0000
  O   O3        1.0  0.72500  0.99400  0.14900  1.0000
  O   O4        1.0  0.43400  0.50800  0.16800  1.0000
  O   O5        1.0  0.43400  0.99200  0.16800  1.0000
  O   O6        1.0  0.93400  0.50800  0.33200  1.0000
  O   O7        1.0  0.93400  0.99200  0.33200  1.0000
  O   O8        1.0  0.22500  0.50600  0.35100  1.0000
  O   O9        1.0  0.22500  0.99400  0.35100  1.0000
  O   O10       1.0  0.59500  0.25000  0.42600  1.0000
  O   O11       1.0  0.40500  0.75000  0.57400  1.0000
  O   O12       1.0  0.77500  0.00554  0.64900  1.0000
  O   O13       1.0  0.77500  0.49400  0.64900  1.0000
  O   O14       1.0  0.06620  0.00812  0.66800  1.0000
  O   O15       1.0  0.06620  0.49200  0.66800  1.0000
  O   O16       1.0  0.56600  0.00812  0.83200  1.0000
  O   O17       1.0  0.56600  0.49200  0.83200  1.0000
  O   O18       1.0  0.27500  0.00554  0.85100  1.0000
  O   O19       1.0  0.27500  0.49400  0.85100  1.0000
  O   O20       1.0  0.90500  0.75000  0.92600  1.0000
  Sr  Sr1       1.0  0.08890  0.75000  0.07720  1.0000
  Sr  Sr2       1.0  0.58900  0.75000  0.42300  1.0000
  Sr  Sr3       1.0  0.41100  0.25000  0.57700  1.0000
  Sr  Sr4       1.0  0.91100  0.25000  0.92300  1.0000
