data_image0
_chemical_formula_structural       Ge16Hf16Nb4
_chemical_formula_sum              "Ge16 Hf16 Nb4"
_cell_length_a       6.94821
_cell_length_b       13.4693
_cell_length_c       7.05918
_cell_angle_alpha    90
_cell_angle_beta     90
_cell_angle_gamma    90

_space_group_name_H-M_alt    "P 1"
_space_group_IT_number       1

loop_
  _space_group_symop_operation_xyz
  'x, y, z'

loop_
  _atom_site_type_symbol
  _atom_site_label
  _atom_site_symmetry_multiplicity
  _atom_site_fract_x
  _atom_site_fract_y
  _atom_site_fract_z
  _atom_site_occupancy
  Ge  Ge1       1.0  0.80900  0.54000  0.03210  1.0000
  Ge  Ge2       1.0  0.80900  0.96000  0.03210  1.0000
  Ge  Ge3       1.0  0.45300  0.75000  0.10900  1.0000
  Ge  Ge4       1.0  0.81600  0.25000  0.14900  1.0000
  Ge  Ge5       1.0  0.31600  0.25000  0.35100  1.0000
  Ge  Ge6       1.0  0.95300  0.75000  0.39100  1.0000
  Ge  Ge7       1.0  0.30900  0.54000  0.46800  1.0000
  Ge  Ge8       1.0  0.30900  0.96000  0.46800  1.0000
  Ge  Ge9       1.0  0.69100  0.04040  0.53200  1.0000
  Ge  Ge10      1.0  0.69100  0.46000  0.53200  1.0000
  Ge  Ge11      1.0  0.04720  0.25000  0.60900  1.0000
  Ge  Ge12      1.0  0.68400  0.75000  0.64900  1.0000
  Ge  Ge13      1.0  0.18400  0.75000  0.85100  1.0000
  Ge  Ge14      1.0  0.54700  0.25000  0.89100  1.0000
  Ge  Ge15      1.0  0.19100  0.04040  0.96800  1.0000
  Ge  Ge16      1.0  0.19100  0.46000  0.96800  1.0000
  Hf  Hf1       1.0  0.15100  0.62500  0.16900  1.0000
  Hf  Hf2       1.0  0.15100  0.87500  0.16900  1.0000
  Hf  Hf3       1.0  0.51400  0.09510  0.17700  1.0000
  Hf  Hf4       1.0  0.51400  0.40500  0.17700  1.0000
  Hf  Hf5       1.0  0.01440  0.09510  0.32300  1.0000
  Hf  Hf6       1.0  0.01440  0.40500  0.32300  1.0000
  Hf  Hf7       1.0  0.65100  0.62500  0.33100  1.0000
  Hf  Hf8       1.0  0.65100  0.87500  0.33100  1.0000
  Hf  Hf9       1.0  0.34900  0.12500  0.66900  1.0000
  Hf  Hf10      1.0  0.34900  0.37500  0.66900  1.0000
  Hf  Hf11      1.0  0.98600  0.59500  0.67700  1.0000
  Hf  Hf12      1.0  0.98600  0.90500  0.67700  1.0000
  Hf  Hf13      1.0  0.48600  0.59500  0.82300  1.0000
  Hf  Hf14      1.0  0.48600  0.90500  0.82300  1.0000
  Hf  Hf15      1.0  0.84900  0.12500  0.83100  1.0000
  Hf  Hf16      1.0  0.84900  0.37500  0.83100  1.0000
  Nb  Nb1       1.0  0.82400  0.75000  0.00295  1.0000
  Nb  Nb2       1.0  0.32400  0.75000  0.49700  1.0000
  Nb  Nb3       1.0  0.67600  0.25000  0.50300  1.0000
  Nb  Nb4       1.0  0.17600  0.25000  0.99700  1.0000
