data_image0
_chemical_formula_structural       Co4Cs12I20
_chemical_formula_sum              "Co4 Cs12 I20"
_cell_length_a       10.1095
_cell_length_b       11.7041
_cell_length_c       14.9762
_cell_angle_alpha    90
_cell_angle_beta     90
_cell_angle_gamma    90

_space_group_name_H-M_alt    "P 1"
_space_group_IT_number       1

loop_
  _space_group_symop_operation_xyz
  'x, y, z'

loop_
  _atom_site_type_symbol
  _atom_site_label
  _atom_site_symmetry_multiplicity
  _atom_site_fract_x
  _atom_site_fract_y
  _atom_site_fract_z
  _atom_site_occupancy
  Co  Co1       1.0  0.81400  0.25000  0.10600  1.0000
  Co  Co2       1.0  0.31400  0.25000  0.39400  1.0000
  Co  Co3       1.0  0.68600  0.75000  0.60600  1.0000
  Co  Co4       1.0  0.18600  0.75000  0.89400  1.0000
  Cs  Cs1       1.0  0.58700  0.75000  0.04630  1.0000
  Cs  Cs2       1.0  0.08250  0.51600  0.17300  1.0000
  Cs  Cs3       1.0  0.08250  0.98400  0.17300  1.0000
  Cs  Cs4       1.0  0.58300  0.51600  0.32700  1.0000
  Cs  Cs5       1.0  0.58300  0.98400  0.32700  1.0000
  Cs  Cs6       1.0  0.08700  0.75000  0.45400  1.0000
  Cs  Cs7       1.0  0.91300  0.25000  0.54600  1.0000
  Cs  Cs8       1.0  0.41700  0.01580  0.67300  1.0000
  Cs  Cs9       1.0  0.41700  0.48400  0.67300  1.0000
  Cs  Cs10      1.0  0.91700  0.01580  0.82700  1.0000
  Cs  Cs11      1.0  0.91700  0.48400  0.82700  1.0000
  Cs  Cs12      1.0  0.41300  0.25000  0.95400  1.0000
  I   I1        1.0  0.02880  0.25000  0.01330  1.0000
  I   I2        1.0  0.69100  0.06380  0.06450  1.0000
  I   I3        1.0  0.69100  0.43600  0.06450  1.0000
  I   I4        1.0  0.35900  0.25000  0.22500  1.0000
  I   I5        1.0  0.33400  0.75000  0.23800  1.0000
  I   I6        1.0  0.83400  0.75000  0.26200  1.0000
  I   I7        1.0  0.85900  0.25000  0.27500  1.0000
  I   I8        1.0  0.19100  0.06380  0.43500  1.0000
  I   I9        1.0  0.19100  0.43600  0.43500  1.0000
  I   I10       1.0  0.52900  0.25000  0.48700  1.0000
  I   I11       1.0  0.47100  0.75000  0.51300  1.0000
  I   I12       1.0  0.80900  0.56400  0.56500  1.0000
  I   I13       1.0  0.80900  0.93600  0.56500  1.0000
  I   I14       1.0  0.14100  0.75000  0.72500  1.0000
  I   I15       1.0  0.16600  0.25000  0.73800  1.0000
  I   I16       1.0  0.66600  0.25000  0.76200  1.0000
  I   I17       1.0  0.64100  0.75000  0.77500  1.0000
  I   I18       1.0  0.30900  0.56400  0.93500  1.0000
  I   I19       1.0  0.30900  0.93600  0.93500  1.0000
  I   I20       1.0  0.97100  0.75000  0.98700  1.0000
