data_image0
_chemical_formula_structural       Cu4Ho8O20Sr4
_chemical_formula_sum              "Cu4 Ho8 O20 Sr4"
_cell_length_a       11.9529
_cell_length_b       5.57114
_cell_length_c       7.04586
_cell_angle_alpha    90
_cell_angle_beta     90
_cell_angle_gamma    90

_space_group_name_H-M_alt    "P 1"
_space_group_IT_number       1

loop_
  _space_group_symop_operation_xyz
  'x, y, z'

loop_
  _atom_site_type_symbol
  _atom_site_label
  _atom_site_symmetry_multiplicity
  _atom_site_fract_x
  _atom_site_fract_y
  _atom_site_fract_z
  _atom_site_occupancy
  Cu  Cu1       1.0  0.83900  0.75000  0.21500  1.0000
  Cu  Cu2       1.0  0.33900  0.75000  0.28500  1.0000
  Cu  Cu3       1.0  0.66100  0.25000  0.71500  1.0000
  Cu  Cu4       1.0  0.16100  0.25000  0.78500  1.0000
  Ho  Ho1       1.0  0.57300  0.25000  0.10400  1.0000
  Ho  Ho2       1.0  0.28800  0.25000  0.11600  1.0000
  Ho  Ho3       1.0  0.78800  0.25000  0.38400  1.0000
  Ho  Ho4       1.0  0.07340  0.25000  0.39600  1.0000
  Ho  Ho5       1.0  0.92700  0.75000  0.60400  1.0000
  Ho  Ho6       1.0  0.21200  0.75000  0.61600  1.0000
  Ho  Ho7       1.0  0.71200  0.75000  0.88400  1.0000
  Ho  Ho8       1.0  0.42700  0.75000  0.89600  1.0000
  O   O1        1.0  0.09470  0.25000  0.07480  1.0000
  O   O2        1.0  0.72500  0.50500  0.14700  1.0000
  O   O3        1.0  0.72500  0.99500  0.14700  1.0000
  O   O4        1.0  0.43400  0.50700  0.16700  1.0000
  O   O5        1.0  0.43400  0.99300  0.16700  1.0000
  O   O6        1.0  0.93400  0.50700  0.33300  1.0000
  O   O7        1.0  0.93400  0.99300  0.33300  1.0000
  O   O8        1.0  0.22500  0.50500  0.35300  1.0000
  O   O9        1.0  0.22500  0.99500  0.35300  1.0000
  O   O10       1.0  0.59500  0.25000  0.42500  1.0000
  O   O11       1.0  0.40500  0.75000  0.57500  1.0000
  O   O12       1.0  0.77500  0.00462  0.64700  1.0000
  O   O13       1.0  0.77500  0.49500  0.64700  1.0000
  O   O14       1.0  0.06610  0.00727  0.66700  1.0000
  O   O15       1.0  0.06610  0.49300  0.66700  1.0000
  O   O16       1.0  0.56600  0.00727  0.83300  1.0000
  O   O17       1.0  0.56600  0.49300  0.83300  1.0000
  O   O18       1.0  0.27500  0.00462  0.85300  1.0000
  O   O19       1.0  0.27500  0.49500  0.85300  1.0000
  O   O20       1.0  0.90500  0.75000  0.92500  1.0000
  Sr  Sr1       1.0  0.08950  0.75000  0.07690  1.0000
  Sr  Sr2       1.0  0.59000  0.75000  0.42300  1.0000
  Sr  Sr3       1.0  0.41000  0.25000  0.57700  1.0000
  Sr  Sr4       1.0  0.91000  0.25000  0.92300  1.0000
