data_image0
_chemical_formula_structural       Cs2O24Se4V6
_chemical_formula_sum              "Cs2 O24 Se4 V6"
_cell_length_a       7.08445
_cell_length_b       7.08411
_cell_length_c       11.4414
_cell_angle_alpha    90
_cell_angle_beta     90
_cell_angle_gamma    119.995

_space_group_name_H-M_alt    "P 1"
_space_group_IT_number       1

loop_
  _space_group_symop_operation_xyz
  'x, y, z'

loop_
  _atom_site_type_symbol
  _atom_site_label
  _atom_site_symmetry_multiplicity
  _atom_site_fract_x
  _atom_site_fract_y
  _atom_site_fract_z
  _atom_site_occupancy
  Cs  Cs1       1.0  0.66700  0.33300  0.47500  1.0000
  Cs  Cs2       1.0  0.33300  0.66700  0.97500  1.0000
  O   O1        1.0  0.13400  0.25500  0.13400  1.0000
  O   O2        1.0  0.74500  0.87900  0.13400  1.0000
  O   O3        1.0  0.12100  0.86600  0.13400  1.0000
  O   O4        1.0  0.46000  0.91900  0.26600  1.0000
  O   O5        1.0  0.45900  0.54000  0.26600  1.0000
  O   O6        1.0  0.08100  0.54100  0.26700  1.0000
  O   O7        1.0  0.87400  0.74900  0.32600  1.0000
  O   O8        1.0  0.25100  0.12500  0.32600  1.0000
  O   O9        1.0  0.87500  0.12600  0.32600  1.0000
  O   O10       1.0  0.19900  0.78700  0.46000  1.0000
  O   O11       1.0  0.21300  0.41200  0.46000  1.0000
  O   O12       1.0  0.58800  0.80100  0.46000  1.0000
  O   O13       1.0  0.25500  0.12100  0.63400  1.0000
  O   O14       1.0  0.86600  0.74500  0.63400  1.0000
  O   O15       1.0  0.87900  0.13400  0.63400  1.0000
  O   O16       1.0  0.54000  0.08090  0.76600  1.0000
  O   O17       1.0  0.54100  0.46000  0.76600  1.0000
  O   O18       1.0  0.91900  0.45900  0.76700  1.0000
  O   O19       1.0  0.12600  0.25100  0.82600  1.0000
  O   O20       1.0  0.74900  0.87500  0.82600  1.0000
  O   O21       1.0  0.12500  0.87400  0.82600  1.0000
  O   O22       1.0  0.80100  0.21300  0.96000  1.0000
  O   O23       1.0  0.41200  0.19900  0.96000  1.0000
  O   O24       1.0  0.78700  0.58800  0.96000  1.0000
  Se  Se1       1.0  0.66700  0.33300  0.02510  1.0000
  Se  Se2       1.0  0.00000  0.00000  0.06750  1.0000
  Se  Se3       1.0  0.33300  0.66700  0.52500  1.0000
  Se  Se4       1.0  0.00000  0.00000  0.56800  1.0000
  V   V1        1.0  0.12800  0.33300  0.29400  1.0000
  V   V2        1.0  0.20500  0.87200  0.29400  1.0000
  V   V3        1.0  0.66700  0.79500  0.29400  1.0000
  V   V4        1.0  0.87200  0.66700  0.79400  1.0000
  V   V5        1.0  0.79500  0.12800  0.79400  1.0000
  V   V6        1.0  0.33300  0.20500  0.79400  1.0000
