data_image0
_chemical_formula_structural       C6Cl6Ga2H18O2P2
_chemical_formula_sum              "C6 Cl6 Ga2 H18 O2 P2"
_cell_length_a       6.51469
_cell_length_b       6.51469
_cell_length_c       12.4573
_cell_angle_alpha    99.9114
_cell_angle_beta     99.9114
_cell_angle_gamma    102.586

_space_group_name_H-M_alt    "P 1"
_space_group_IT_number       1

loop_
  _space_group_symop_operation_xyz
  'x, y, z'

loop_
  _atom_site_type_symbol
  _atom_site_label
  _atom_site_symmetry_multiplicity
  _atom_site_fract_x
  _atom_site_fract_y
  _atom_site_fract_z
  _atom_site_occupancy
  C   C1        1.0  0.52000  0.07280  0.11500  1.0000
  C   C2        1.0  0.69700  0.51200  0.24100  1.0000
  C   C3        1.0  0.91600  0.18100  0.28600  1.0000
  C   C4        1.0  0.07280  0.52000  0.61500  1.0000
  C   C5        1.0  0.51200  0.69700  0.74100  1.0000
  C   C6        1.0  0.18100  0.91600  0.78600  1.0000
  Cl  Cl1       1.0  0.91700  0.78400  0.02380  1.0000
  Cl  Cl2       1.0  0.28000  0.74900  0.32300  1.0000
  Cl  Cl3       1.0  0.47600  0.29800  0.47100  1.0000
  Cl  Cl4       1.0  0.78400  0.91700  0.52400  1.0000
  Cl  Cl5       1.0  0.74900  0.28000  0.82300  1.0000
  Cl  Cl6       1.0  0.29800  0.47600  0.97100  1.0000
  Ga  Ga1       1.0  0.46000  0.96300  0.48200  1.0000
  Ga  Ga2       1.0  0.96300  0.46000  0.98200  1.0000
  H   H1        1.0  0.43000  0.12700  0.04750  1.0000
  H   H2        1.0  0.55500  0.92000  0.08130  1.0000
  H   H3        1.0  0.61800  0.57800  0.17500  1.0000
  H   H4        1.0  0.42100  0.04690  0.17700  1.0000
  H   H5        1.0  0.95600  0.03250  0.24900  1.0000
  H   H6        1.0  0.84300  0.63100  0.29100  1.0000
  H   H7        1.0  0.58600  0.46900  0.29500  1.0000
  H   H8        1.0  0.06730  0.30400  0.32500  1.0000
  H   H9        1.0  0.82500  0.14800  0.35100  1.0000
  H   H10       1.0  0.12700  0.43000  0.54800  1.0000
  H   H11       1.0  0.92000  0.55500  0.58100  1.0000
  H   H12       1.0  0.57800  0.61800  0.67500  1.0000
  H   H13       1.0  0.04690  0.42100  0.67700  1.0000
  H   H14       1.0  0.03250  0.95600  0.74900  1.0000
  H   H15       1.0  0.63100  0.84300  0.79100  1.0000
  H   H16       1.0  0.46900  0.58600  0.79500  1.0000
  H   H17       1.0  0.30400  0.06730  0.82500  1.0000
  H   H18       1.0  0.14800  0.82500  0.85100  1.0000
  O   O1        1.0  0.91000  0.31400  0.09440  1.0000
  O   O2        1.0  0.31400  0.91000  0.59400  1.0000
  P   P1        1.0  0.76600  0.27400  0.17900  1.0000
  P   P2        1.0  0.27400  0.76600  0.67900  1.0000
