data_image0
_chemical_formula_structural       I8O24Pd4
_chemical_formula_sum              "I8 O24 Pd4"
_cell_length_a       5.71815
_cell_length_b       5.93516
_cell_length_c       15.1191
_cell_angle_alpha    90
_cell_angle_beta     90
_cell_angle_gamma    90

_space_group_name_H-M_alt    "P 1"
_space_group_IT_number       1

loop_
  _space_group_symop_operation_xyz
  'x, y, z'

loop_
  _atom_site_type_symbol
  _atom_site_label
  _atom_site_symmetry_multiplicity
  _atom_site_fract_x
  _atom_site_fract_y
  _atom_site_fract_z
  _atom_site_occupancy
  I   I1        1.0  0.02980  0.08520  0.15500  1.0000
  I   I2        1.0  0.47000  0.58500  0.15500  1.0000
  I   I3        1.0  0.53000  0.08520  0.34500  1.0000
  I   I4        1.0  0.97000  0.58500  0.34500  1.0000
  I   I5        1.0  0.02980  0.41500  0.65500  1.0000
  I   I6        1.0  0.47000  0.91500  0.65500  1.0000
  I   I7        1.0  0.53000  0.41500  0.84500  1.0000
  I   I8        1.0  0.97000  0.91500  0.84500  1.0000
  O   O1        1.0  0.32100  0.49300  0.05410  1.0000
  O   O2        1.0  0.17900  0.99300  0.05410  1.0000
  O   O3        1.0  0.87200  0.33700  0.10700  1.0000
  O   O4        1.0  0.62800  0.83700  0.10700  1.0000
  O   O5        1.0  0.26300  0.23500  0.21700  1.0000
  O   O6        1.0  0.23700  0.73500  0.21700  1.0000
  O   O7        1.0  0.76300  0.23500  0.28300  1.0000
  O   O8        1.0  0.73700  0.73500  0.28300  1.0000
  O   O9        1.0  0.37200  0.33700  0.39300  1.0000
  O   O10       1.0  0.12800  0.83700  0.39300  1.0000
  O   O11       1.0  0.82100  0.49300  0.44600  1.0000
  O   O12       1.0  0.67900  0.99300  0.44600  1.0000
  O   O13       1.0  0.32100  0.00716  0.55400  1.0000
  O   O14       1.0  0.17900  0.50700  0.55400  1.0000
  O   O15       1.0  0.87200  0.16300  0.60700  1.0000
  O   O16       1.0  0.62800  0.66300  0.60700  1.0000
  O   O17       1.0  0.26300  0.26500  0.71700  1.0000
  O   O18       1.0  0.23700  0.76500  0.71700  1.0000
  O   O19       1.0  0.76300  0.26500  0.78300  1.0000
  O   O20       1.0  0.73700  0.76500  0.78300  1.0000
  O   O21       1.0  0.37200  0.16300  0.89300  1.0000
  O   O22       1.0  0.12800  0.66300  0.89300  1.0000
  O   O23       1.0  0.82100  0.00716  0.94600  1.0000
  O   O24       1.0  0.67900  0.50700  0.94600  1.0000
  Pd  Pd1       1.0  0.50000  0.00000  0.00000  1.0000
  Pd  Pd2       1.0  0.00000  0.50000  0.00000  1.0000
  Pd  Pd3       1.0  0.00000  0.00000  0.50000  1.0000
  Pd  Pd4       1.0  0.50000  0.50000  0.50000  1.0000
