data_image0
_chemical_formula_structural       O24P6Rb2Th4
_chemical_formula_sum              "O24 P6 Rb2 Th4"
_cell_length_a       6.91541
_cell_length_b       8.11385
_cell_length_c       9.51513
_cell_angle_alpha    101.444
_cell_angle_beta     111.309
_cell_angle_gamma    90

_space_group_name_H-M_alt    "P 1"
_space_group_IT_number       1

loop_
  _space_group_symop_operation_xyz
  'x, y, z'

loop_
  _atom_site_type_symbol
  _atom_site_label
  _atom_site_symmetry_multiplicity
  _atom_site_fract_x
  _atom_site_fract_y
  _atom_site_fract_z
  _atom_site_occupancy
  O   O1        1.0  0.24500  0.91200  0.05000  1.0000
  O   O2        1.0  0.80500  0.41200  0.05000  1.0000
  O   O3        1.0  0.10100  0.24800  0.14500  1.0000
  O   O4        1.0  0.04330  0.74800  0.14500  1.0000
  O   O5        1.0  0.54500  0.15600  0.28500  1.0000
  O   O6        1.0  0.74000  0.65600  0.28500  1.0000
  O   O7        1.0  0.90200  0.06640  0.30300  1.0000
  O   O8        1.0  0.40000  0.56600  0.30300  1.0000
  O   O9        1.0  0.55000  0.87100  0.40600  1.0000
  O   O10       1.0  0.85500  0.37100  0.40600  1.0000
  O   O11       1.0  0.27600  0.33300  0.45000  1.0000
  O   O12       1.0  0.17500  0.83300  0.45000  1.0000
  O   O13       1.0  0.72400  0.66700  0.55000  1.0000
  O   O14       1.0  0.82500  0.16700  0.55000  1.0000
  O   O15       1.0  0.45000  0.12900  0.59400  1.0000
  O   O16       1.0  0.14500  0.62900  0.59400  1.0000
  O   O17       1.0  0.09760  0.93400  0.69700  1.0000
  O   O18       1.0  0.60000  0.43400  0.69700  1.0000
  O   O19       1.0  0.45500  0.84400  0.71500  1.0000
  O   O20       1.0  0.26000  0.34400  0.71500  1.0000
  O   O21       1.0  0.89900  0.75200  0.85500  1.0000
  O   O22       1.0  0.95700  0.25200  0.85500  1.0000
  O   O23       1.0  0.75500  0.08780  0.95000  1.0000
  O   O24       1.0  0.19500  0.58800  0.95000  1.0000
  P   P1        1.0  0.90100  0.25000  0.00000  1.0000
  P   P2        1.0  0.09930  0.75000  0.00000  1.0000
  P   P3        1.0  0.60100  0.68200  0.37900  1.0000
  P   P4        1.0  0.77800  0.18200  0.37900  1.0000
  P   P5        1.0  0.22200  0.81800  0.62100  1.0000
  P   P6        1.0  0.39900  0.31800  0.62100  1.0000
  Rb  Rb1       1.0  0.40400  0.25000  0.00000  1.0000
  Rb  Rb2       1.0  0.59600  0.75000  0.00000  1.0000
  Th  Th1       1.0  0.06170  0.53400  0.30800  1.0000
  Th  Th2       1.0  0.24600  0.03420  0.30800  1.0000
  Th  Th3       1.0  0.93800  0.46600  0.69200  1.0000
  Th  Th4       1.0  0.75400  0.96600  0.69200  1.0000
