data_image0
_chemical_formula_structural       Li2MnO6Zr
_chemical_formula_sum              "Li2 Mn1 O6 Zr1"
_cell_length_a       5.28487
_cell_length_b       5.28422
_cell_length_c       4.86258
_cell_angle_alpha    97.7214
_cell_angle_beta     97.7071
_cell_angle_gamma    123.248

_space_group_name_H-M_alt    "P 1"
_space_group_IT_number       1

loop_
  _space_group_symop_operation_xyz
  'x, y, z'

loop_
  _atom_site_type_symbol
  _atom_site_label
  _atom_site_symmetry_multiplicity
  _atom_site_fract_x
  _atom_site_fract_y
  _atom_site_fract_z
  _atom_site_occupancy
  Li  Li1       1.0  0.64400  0.35600  0.50000  1.0000
  Li  Li2       1.0  0.36200  0.63800  0.50000  1.0000
  Mn  Mn1       1.0  0.84100  0.15900  0.00000  1.0000
  O   O1        1.0  0.21400  0.23700  0.23500  1.0000
  O   O2        1.0  0.58500  0.95000  0.23900  1.0000
  O   O3        1.0  0.93700  0.52700  0.24300  1.0000
  O   O4        1.0  0.47200  0.06340  0.75700  1.0000
  O   O5        1.0  0.05010  0.41500  0.76100  1.0000
  O   O6        1.0  0.76300  0.78600  0.76500  1.0000
  Zr  Zr1       1.0  0.15300  0.84700  0.00000  1.0000
