data_image0
_chemical_formula_structural       H12O18Rb2S2V2
_chemical_formula_sum              "H12 O18 Rb2 S2 V2"
_cell_length_a       6.21205
_cell_length_b       9.61915
_cell_length_c       6.4901
_cell_angle_alpha    90
_cell_angle_beta     108.361
_cell_angle_gamma    90

_space_group_name_H-M_alt    "P 1"
_space_group_IT_number       1

loop_
  _space_group_symop_operation_xyz
  'x, y, z'

loop_
  _atom_site_type_symbol
  _atom_site_label
  _atom_site_symmetry_multiplicity
  _atom_site_fract_x
  _atom_site_fract_y
  _atom_site_fract_z
  _atom_site_occupancy
  H   H1        1.0  0.88300  0.65900  0.06620  1.0000
  H   H2        1.0  0.18600  0.42400  0.17300  1.0000
  H   H3        1.0  0.69200  0.73300  0.25900  1.0000
  H   H4        1.0  0.22600  0.28800  0.30800  1.0000
  H   H5        1.0  0.03420  0.65100  0.30900  1.0000
  H   H6        1.0  0.46600  0.73300  0.34300  1.0000
  H   H7        1.0  0.53400  0.23300  0.65700  1.0000
  H   H8        1.0  0.96600  0.15100  0.69100  1.0000
  H   H9        1.0  0.77400  0.78800  0.69200  1.0000
  H   H10       1.0  0.30800  0.23300  0.74100  1.0000
  H   H11       1.0  0.81400  0.92400  0.82700  1.0000
  H   H12       1.0  0.11700  0.15900  0.93400  1.0000
  O   O1        1.0  0.02730  0.91400  0.07290  1.0000
  O   O2        1.0  0.54000  0.06150  0.13400  1.0000
  O   O3        1.0  0.87500  0.64000  0.21200  1.0000
  O   O4        1.0  0.04870  0.14900  0.21500  1.0000
  O   O5        1.0  0.56100  0.79100  0.27500  1.0000
  O   O6        1.0  0.28900  0.38200  0.30800  1.0000
  O   O7        1.0  0.93700  0.95400  0.40700  1.0000
  O   O8        1.0  0.31500  0.97300  0.41700  1.0000
  O   O9        1.0  0.31500  0.64500  0.46100  1.0000
  O   O10       1.0  0.68500  0.14500  0.53900  1.0000
  O   O11       1.0  0.68500  0.47300  0.58300  1.0000
  O   O12       1.0  0.06330  0.45400  0.59300  1.0000
  O   O13       1.0  0.71100  0.88200  0.69200  1.0000
  O   O14       1.0  0.43900  0.29100  0.72500  1.0000
  O   O15       1.0  0.95100  0.64900  0.78500  1.0000
  O   O16       1.0  0.12500  0.14000  0.78800  1.0000
  O   O17       1.0  0.46000  0.56200  0.86600  1.0000
  O   O18       1.0  0.97300  0.41400  0.92700  1.0000
  Rb  Rb1       1.0  0.69300  0.34900  0.18400  1.0000
  Rb  Rb2       1.0  0.30700  0.84900  0.81600  1.0000
  S   S1        1.0  0.07760  0.00000  0.26700  1.0000
  S   S2        1.0  0.92200  0.50000  0.73300  1.0000
  V   V1        1.0  0.61800  0.00055  0.38300  1.0000
  V   V2        1.0  0.38200  0.50100  0.61700  1.0000
