data_image0
_chemical_formula_structural       Co4I8O24
_chemical_formula_sum              "Co4 I8 O24"
_cell_length_a       10.8732
_cell_length_b       4.93081
_cell_length_c       10.8452
_cell_angle_alpha    90
_cell_angle_beta     119.772
_cell_angle_gamma    90

_space_group_name_H-M_alt    "P 1"
_space_group_IT_number       1

loop_
  _space_group_symop_operation_xyz
  'x, y, z'

loop_
  _atom_site_type_symbol
  _atom_site_label
  _atom_site_symmetry_multiplicity
  _atom_site_fract_x
  _atom_site_fract_y
  _atom_site_fract_z
  _atom_site_occupancy
  Co  Co1       1.0  0.49500  0.53300  0.24000  1.0000
  Co  Co2       1.0  0.00552  0.02900  0.26000  1.0000
  Co  Co3       1.0  0.99400  0.52900  0.74000  1.0000
  Co  Co4       1.0  0.50500  0.03280  0.76000  1.0000
  I   I1        1.0  0.68100  0.60400  0.08380  1.0000
  I   I2        1.0  0.15500  0.59000  0.08480  1.0000
  I   I3        1.0  0.34600  0.09060  0.41500  1.0000
  I   I4        1.0  0.81900  0.10300  0.41600  1.0000
  I   I5        1.0  0.18100  0.60300  0.58400  1.0000
  I   I6        1.0  0.65400  0.59100  0.58500  1.0000
  I   I7        1.0  0.84500  0.08980  0.91500  1.0000
  I   I8        1.0  0.31900  0.10400  0.91600  1.0000
  O   O1        1.0  0.34100  0.31200  0.06800  1.0000
  O   O2        1.0  0.87700  0.25800  0.08140  1.0000
  O   O3        1.0  0.53600  0.75300  0.10300  1.0000
  O   O4        1.0  0.03280  0.81000  0.11300  1.0000
  O   O5        1.0  0.32100  0.77500  0.20200  1.0000
  O   O6        1.0  0.82900  0.79600  0.22900  1.0000
  O   O7        1.0  0.67200  0.29900  0.27200  1.0000
  O   O8        1.0  0.17800  0.27200  0.29700  1.0000
  O   O9        1.0  0.46600  0.31300  0.38600  1.0000
  O   O10       1.0  0.96600  0.24900  0.39900  1.0000
  O   O11       1.0  0.62200  0.76200  0.41900  1.0000
  O   O12       1.0  0.16100  0.80800  0.43100  1.0000
  O   O13       1.0  0.83900  0.30800  0.56900  1.0000
  O   O14       1.0  0.37800  0.26200  0.58100  1.0000
  O   O15       1.0  0.03440  0.74900  0.60100  1.0000
  O   O16       1.0  0.53400  0.81300  0.61400  1.0000
  O   O17       1.0  0.82200  0.77200  0.70300  1.0000
  O   O18       1.0  0.32800  0.79900  0.72800  1.0000
  O   O19       1.0  0.17100  0.29600  0.77100  1.0000
  O   O20       1.0  0.67900  0.27500  0.79800  1.0000
  O   O21       1.0  0.96700  0.31000  0.88700  1.0000
  O   O22       1.0  0.46400  0.25300  0.89700  1.0000
  O   O23       1.0  0.12300  0.75800  0.91900  1.0000
  O   O24       1.0  0.65900  0.81200  0.93200  1.0000
