data_image0
_chemical_formula_structural       Co28Nd8
_chemical_formula_sum              "Co28 Nd8"
_cell_length_a       5.01751
_cell_length_b       5.01799
_cell_length_c       24.3837
_cell_angle_alpha    90
_cell_angle_beta     90
_cell_angle_gamma    119.997

_space_group_name_H-M_alt    "P 1"
_space_group_IT_number       1

loop_
  _space_group_symop_operation_xyz
  'x, y, z'

loop_
  _atom_site_type_symbol
  _atom_site_label
  _atom_site_symmetry_multiplicity
  _atom_site_fract_x
  _atom_site_fract_y
  _atom_site_fract_z
  _atom_site_occupancy
  Co  Co1       1.0  0.00000  0.00000  0.00000  1.0000
  Co  Co2       1.0  0.33100  0.16500  0.08820  1.0000
  Co  Co3       1.0  0.83500  0.16500  0.08820  1.0000
  Co  Co4       1.0  0.83500  0.66900  0.08830  1.0000
  Co  Co5       1.0  0.66700  0.33300  0.16800  1.0000
  Co  Co6       1.0  0.00000  0.00000  0.16900  1.0000
  Co  Co7       1.0  0.33300  0.16600  0.25000  1.0000
  Co  Co8       1.0  0.83400  0.16600  0.25000  1.0000
  Co  Co9       1.0  0.83400  0.66700  0.25000  1.0000
  Co  Co10      1.0  0.00000  0.00000  0.33100  1.0000
  Co  Co11      1.0  0.66700  0.33300  0.33200  1.0000
  Co  Co12      1.0  0.83500  0.66900  0.41200  1.0000
  Co  Co13      1.0  0.33100  0.16500  0.41200  1.0000
  Co  Co14      1.0  0.83500  0.16500  0.41200  1.0000
  Co  Co15      1.0  0.00000  0.00000  0.50000  1.0000
  Co  Co16      1.0  0.16500  0.83500  0.58800  1.0000
  Co  Co17      1.0  0.66900  0.83500  0.58800  1.0000
  Co  Co18      1.0  0.16500  0.33100  0.58800  1.0000
  Co  Co19      1.0  0.33300  0.66700  0.66800  1.0000
  Co  Co20      1.0  0.00000  0.00000  0.66900  1.0000
  Co  Co21      1.0  0.16600  0.33300  0.75000  1.0000
  Co  Co22      1.0  0.16600  0.83400  0.75000  1.0000
  Co  Co23      1.0  0.66700  0.83400  0.75000  1.0000
  Co  Co24      1.0  0.00000  0.00000  0.83100  1.0000
  Co  Co25      1.0  0.33300  0.66700  0.83200  1.0000
  Co  Co26      1.0  0.16500  0.33100  0.91200  1.0000
  Co  Co27      1.0  0.16500  0.83500  0.91200  1.0000
  Co  Co28      1.0  0.66900  0.83500  0.91200  1.0000
  Nd  Nd1       1.0  0.33300  0.66700  0.02750  1.0000
  Nd  Nd2       1.0  0.33300  0.66700  0.17300  1.0000
  Nd  Nd3       1.0  0.33300  0.66700  0.32700  1.0000
  Nd  Nd4       1.0  0.33300  0.66700  0.47200  1.0000
  Nd  Nd5       1.0  0.66700  0.33300  0.52800  1.0000
  Nd  Nd6       1.0  0.66700  0.33300  0.67300  1.0000
  Nd  Nd7       1.0  0.66700  0.33300  0.82700  1.0000
  Nd  Nd8       1.0  0.66700  0.33300  0.97200  1.0000
