data_image0
_chemical_formula_structural       O24Se4Tl2V6
_chemical_formula_sum              "O24 Se4 Tl2 V6"
_cell_length_a       7.04822
_cell_length_b       7.04813
_cell_length_c       11.2694
_cell_angle_alpha    90
_cell_angle_beta     90
_cell_angle_gamma    120

_space_group_name_H-M_alt    "P 1"
_space_group_IT_number       1

loop_
  _space_group_symop_operation_xyz
  'x, y, z'

loop_
  _atom_site_type_symbol
  _atom_site_label
  _atom_site_symmetry_multiplicity
  _atom_site_fract_x
  _atom_site_fract_y
  _atom_site_fract_z
  _atom_site_occupancy
  O   O1        1.0  0.12600  0.87200  0.07340  1.0000
  O   O2        1.0  0.74600  0.87400  0.07340  1.0000
  O   O3        1.0  0.12800  0.25300  0.07340  1.0000
  O   O4        1.0  0.54300  0.07990  0.13400  1.0000
  O   O5        1.0  0.92000  0.46300  0.13400  1.0000
  O   O6        1.0  0.53700  0.45700  0.13400  1.0000
  O   O7        1.0  0.87500  0.74400  0.27000  1.0000
  O   O8        1.0  0.25600  0.13200  0.27000  1.0000
  O   O9        1.0  0.86800  0.12500  0.27000  1.0000
  O   O10       1.0  0.58800  0.79000  0.43800  1.0000
  O   O11       1.0  0.20200  0.41200  0.43800  1.0000
  O   O12       1.0  0.21000  0.79800  0.43800  1.0000
  O   O13       1.0  0.25400  0.12600  0.57300  1.0000
  O   O14       1.0  0.87400  0.12800  0.57300  1.0000
  O   O15       1.0  0.87200  0.74700  0.57300  1.0000
  O   O16       1.0  0.45700  0.92000  0.63400  1.0000
  O   O17       1.0  0.07990  0.53700  0.63400  1.0000
  O   O18       1.0  0.46300  0.54300  0.63400  1.0000
  O   O19       1.0  0.12500  0.25600  0.77000  1.0000
  O   O20       1.0  0.74400  0.86800  0.77000  1.0000
  O   O21       1.0  0.13200  0.87500  0.77000  1.0000
  O   O22       1.0  0.41200  0.21000  0.93800  1.0000
  O   O23       1.0  0.79800  0.58800  0.93800  1.0000
  O   O24       1.0  0.79000  0.20200  0.93800  1.0000
  Se  Se1       1.0  0.00000  0.00000  0.33700  1.0000
  Se  Se2       1.0  0.33300  0.66700  0.37100  1.0000
  Se  Se3       1.0  0.00000  0.00000  0.83700  1.0000
  Se  Se4       1.0  0.66700  0.33300  0.87100  1.0000
  Tl  Tl1       1.0  0.66700  0.33300  0.44200  1.0000
  Tl  Tl2       1.0  0.33300  0.66700  0.94200  1.0000
  V   V1        1.0  0.33400  0.12800  0.10700  1.0000
  V   V2        1.0  0.87200  0.20600  0.10700  1.0000
  V   V3        1.0  0.79400  0.66600  0.10700  1.0000
  V   V4        1.0  0.66600  0.87200  0.60700  1.0000
  V   V5        1.0  0.12800  0.79400  0.60700  1.0000
  V   V6        1.0  0.20600  0.33400  0.60700  1.0000
