data_image0
_chemical_formula_structural       Cs16Fe4O16
_chemical_formula_sum              "Cs16 Fe4 O16"
_cell_length_a       10.7888
_cell_length_b       6.87805
_cell_length_c       11.5495
_cell_angle_alpha    90
_cell_angle_beta     98.2429
_cell_angle_gamma    90

_space_group_name_H-M_alt    "P 1"
_space_group_IT_number       1

loop_
  _space_group_symop_operation_xyz
  'x, y, z'

loop_
  _atom_site_type_symbol
  _atom_site_label
  _atom_site_symmetry_multiplicity
  _atom_site_fract_x
  _atom_site_fract_y
  _atom_site_fract_z
  _atom_site_occupancy
  Cs  Cs1       1.0  0.16000  0.62100  0.00960  1.0000
  Cs  Cs2       1.0  0.59200  0.73000  0.06810  1.0000
  Cs  Cs3       1.0  0.93200  0.92300  0.17500  1.0000
  Cs  Cs4       1.0  0.61000  0.20500  0.21100  1.0000
  Cs  Cs5       1.0  0.39000  0.70500  0.28900  1.0000
  Cs  Cs6       1.0  0.06800  0.42300  0.32500  1.0000
  Cs  Cs7       1.0  0.40800  0.23000  0.43200  1.0000
  Cs  Cs8       1.0  0.84000  0.12100  0.49000  1.0000
  Cs  Cs9       1.0  0.16000  0.87900  0.51000  1.0000
  Cs  Cs10      1.0  0.59200  0.77000  0.56800  1.0000
  Cs  Cs11      1.0  0.93200  0.57700  0.67500  1.0000
  Cs  Cs12      1.0  0.61000  0.29500  0.71100  1.0000
  Cs  Cs13      1.0  0.39000  0.79500  0.78900  1.0000
  Cs  Cs14      1.0  0.06800  0.07660  0.82500  1.0000
  Cs  Cs15      1.0  0.40800  0.27000  0.93200  1.0000
  Cs  Cs16      1.0  0.84000  0.37900  0.99000  1.0000
  Fe  Fe1       1.0  0.24000  0.12700  0.14600  1.0000
  Fe  Fe2       1.0  0.76000  0.62700  0.35400  1.0000
  Fe  Fe3       1.0  0.24000  0.37300  0.64600  1.0000
  Fe  Fe4       1.0  0.76000  0.87300  0.85400  1.0000
  O   O1        1.0  0.34000  0.95800  0.07650  1.0000
  O   O2        1.0  0.09280  0.22300  0.07690  1.0000
  O   O3        1.0  0.33800  0.34600  0.16800  1.0000
  O   O4        1.0  0.80500  0.49200  0.23000  1.0000
  O   O5        1.0  0.19500  0.99200  0.27000  1.0000
  O   O6        1.0  0.66200  0.84600  0.33200  1.0000
  O   O7        1.0  0.90700  0.72300  0.42300  1.0000
  O   O8        1.0  0.66000  0.45800  0.42300  1.0000
  O   O9        1.0  0.34000  0.54200  0.57700  1.0000
  O   O10       1.0  0.09280  0.27700  0.57700  1.0000
  O   O11       1.0  0.33800  0.15400  0.66800  1.0000
  O   O12       1.0  0.80500  0.00784  0.73000  1.0000
  O   O13       1.0  0.19500  0.50800  0.77000  1.0000
  O   O14       1.0  0.66200  0.65400  0.83200  1.0000
  O   O15       1.0  0.90700  0.77700  0.92300  1.0000
  O   O16       1.0  0.66000  0.04240  0.92300  1.0000
