data_image0
_chemical_formula_structural       Li3MnNiO6
_chemical_formula_sum              "Li3 Mn1 Ni1 O6"
_cell_length_a       4.83385
_cell_length_b       4.83385
_cell_length_c       4.94151
_cell_angle_alpha    99.5034
_cell_angle_beta     99.5034
_cell_angle_gamma    119.891

_space_group_name_H-M_alt    "P 1"
_space_group_IT_number       1

loop_
  _space_group_symop_operation_xyz
  'x, y, z'

loop_
  _atom_site_type_symbol
  _atom_site_label
  _atom_site_symmetry_multiplicity
  _atom_site_fract_x
  _atom_site_fract_y
  _atom_site_fract_z
  _atom_site_occupancy
  Li  Li1       1.0  0.99300  0.00678  0.50000  1.0000
  Li  Li2       1.0  0.65200  0.34800  0.50000  1.0000
  Li  Li3       1.0  0.35200  0.64800  0.50000  1.0000
  Mn  Mn1       1.0  0.16800  0.83200  0.00000  1.0000
  Ni  Ni1       1.0  0.83300  0.16700  0.00000  1.0000
  O   O1        1.0  0.58200  0.94600  0.22900  1.0000
  O   O2        1.0  0.21000  0.21400  0.23200  1.0000
  O   O3        1.0  0.94100  0.57200  0.23200  1.0000
  O   O4        1.0  0.42800  0.05870  0.76800  1.0000
  O   O5        1.0  0.78600  0.79000  0.76800  1.0000
  O   O6        1.0  0.05440  0.41800  0.77100  1.0000
