data_image0
_chemical_formula_structural       Li3MnO6Pa
_chemical_formula_sum              "Li3 Mn1 O6 Pa1"
_cell_length_a       5.46365
_cell_length_b       5.46365
_cell_length_c       5.09291
_cell_angle_alpha    98.3614
_cell_angle_beta     98.3614
_cell_angle_gamma    122.121

_space_group_name_H-M_alt    "P 1"
_space_group_IT_number       1

loop_
  _space_group_symop_operation_xyz
  'x, y, z'

loop_
  _atom_site_type_symbol
  _atom_site_label
  _atom_site_symmetry_multiplicity
  _atom_site_fract_x
  _atom_site_fract_y
  _atom_site_fract_z
  _atom_site_occupancy
  Li  Li1       1.0  0.94600  0.05360  0.50000  1.0000
  Li  Li2       1.0  0.67100  0.32900  0.50000  1.0000
  Li  Li3       1.0  0.36700  0.63300  0.50000  1.0000
  Mn  Mn1       1.0  0.83600  0.16400  0.00000  1.0000
  O   O1        1.0  0.59600  0.95300  0.23500  1.0000
  O   O2        1.0  0.93300  0.52800  0.24300  1.0000
  O   O3        1.0  0.18800  0.21800  0.24600  1.0000
  O   O4        1.0  0.78200  0.81200  0.75400  1.0000
  O   O5        1.0  0.47200  0.06710  0.75700  1.0000
  O   O6        1.0  0.04710  0.40400  0.76500  1.0000
  Pa  Pa1       1.0  0.16300  0.83700  0.00000  1.0000
