data_image0
_chemical_formula_structural       Li3MnO6Pt
_chemical_formula_sum              "Li3 Mn1 O6 Pt1"
_cell_length_a       5.07543
_cell_length_b       5.07543
_cell_length_c       4.99137
_cell_angle_alpha    99.0449
_cell_angle_beta     99.0449
_cell_angle_gamma    120.957

_space_group_name_H-M_alt    "P 1"
_space_group_IT_number       1

loop_
  _space_group_symop_operation_xyz
  'x, y, z'

loop_
  _atom_site_type_symbol
  _atom_site_label
  _atom_site_symmetry_multiplicity
  _atom_site_fract_x
  _atom_site_fract_y
  _atom_site_fract_z
  _atom_site_occupancy
  Li  Li1       1.0  0.50000  0.50000  0.00000  1.0000
  Li  Li2       1.0  0.65700  0.34300  0.50000  1.0000
  Li  Li3       1.0  0.34200  0.65800  0.50000  1.0000
  Mn  Mn1       1.0  0.16300  0.83700  0.00000  1.0000
  O   O1        1.0  0.24000  0.22800  0.22600  1.0000
  O   O2        1.0  0.93100  0.57700  0.22900  1.0000
  O   O3        1.0  0.55400  0.92100  0.22900  1.0000
  O   O4        1.0  0.07930  0.44600  0.77100  1.0000
  O   O5        1.0  0.42300  0.06890  0.77100  1.0000
  O   O6        1.0  0.77200  0.76000  0.77400  1.0000
  Pt  Pt1       1.0  0.83700  0.16300  0.00000  1.0000
