data_image0
_chemical_formula_structural       Nb9O25P2
_chemical_formula_sum              "Nb9 O25 P2"
_cell_length_a       3.86787
_cell_length_b       11.4906
_cell_length_c       11.4906
_cell_angle_alpha    91.6232
_cell_angle_beta     80.3107
_cell_angle_gamma    99.6893

_space_group_name_H-M_alt    "P 1"
_space_group_IT_number       1

loop_
  _space_group_symop_operation_xyz
  'x, y, z'

loop_
  _atom_site_type_symbol
  _atom_site_label
  _atom_site_symmetry_multiplicity
  _atom_site_fract_x
  _atom_site_fract_y
  _atom_site_fract_z
  _atom_site_occupancy
  Nb  Nb1       1.0  0.00000  0.00000  0.00000  1.0000
  Nb  Nb2       1.0  0.77900  0.68200  0.12500  1.0000
  Nb  Nb3       1.0  0.12600  0.44200  0.19000  1.0000
  Nb  Nb4       1.0  0.90400  0.12500  0.31800  1.0000
  Nb  Nb5       1.0  0.68400  0.81000  0.44200  1.0000
  Nb  Nb6       1.0  0.31600  0.19000  0.55800  1.0000
  Nb  Nb7       1.0  0.09630  0.87500  0.68200  1.0000
  Nb  Nb8       1.0  0.87400  0.55800  0.81000  1.0000
  Nb  Nb9       1.0  0.22100  0.31800  0.87500  1.0000
  O   O1        1.0  0.50000  0.00000  0.00000  1.0000
  O   O2        1.0  0.18000  0.39200  0.03270  1.0000
  O   O3        1.0  0.88300  0.83500  0.06870  1.0000
  O   O4        1.0  0.25000  0.63900  0.13900  1.0000
  O   O5        1.0  0.95200  0.06870  0.16500  1.0000
  O   O6        1.0  0.64800  0.49100  0.19400  1.0000
  O   O7        1.0  0.01610  0.29600  0.26400  1.0000
  O   O8        1.0  0.72000  0.73600  0.29600  1.0000
  O   O9        1.0  0.08470  0.52900  0.36000  1.0000
  O   O10       1.0  0.38900  0.13900  0.36100  1.0000
  O   O11       1.0  0.78800  0.96700  0.39200  1.0000
  O   O12       1.0  0.44400  0.36000  0.47100  1.0000
  O   O13       1.0  0.15700  0.80600  0.49100  1.0000
  O   O14       1.0  0.84300  0.19400  0.50900  1.0000
  O   O15       1.0  0.55600  0.64000  0.52900  1.0000
  O   O16       1.0  0.21200  0.03270  0.60800  1.0000
  O   O17       1.0  0.61100  0.86100  0.63900  1.0000
  O   O18       1.0  0.91500  0.47100  0.64000  1.0000
  O   O19       1.0  0.28000  0.26400  0.70400  1.0000
  O   O20       1.0  0.98400  0.70400  0.73600  1.0000
  O   O21       1.0  0.35200  0.50900  0.80600  1.0000
  O   O22       1.0  0.04830  0.93100  0.83500  1.0000
  O   O23       1.0  0.75000  0.36100  0.86100  1.0000
  O   O24       1.0  0.11700  0.16500  0.93100  1.0000
  O   O25       1.0  0.82000  0.60800  0.96700  1.0000
  P   P1        1.0  0.25000  0.50000  0.50000  1.0000
  P   P2        1.0  0.75000  0.50000  0.50000  1.0000
