data_image0
_chemical_formula_structural       K2O24P6U4
_chemical_formula_sum              "K2 O24 P6 U4"
_cell_length_a       9.1562
_cell_length_b       9.1562
_cell_length_c       9.85389
_cell_angle_alpha    117.684
_cell_angle_beta     117.684
_cell_angle_gamma    60

_space_group_name_H-M_alt    "P 1"
_space_group_IT_number       1

loop_
  _space_group_symop_operation_xyz
  'x, y, z'

loop_
  _atom_site_type_symbol
  _atom_site_label
  _atom_site_symmetry_multiplicity
  _atom_site_fract_x
  _atom_site_fract_y
  _atom_site_fract_z
  _atom_site_occupancy
  K   K1        1.0  0.00000  0.00000  0.00000  1.0000
  K   K2        1.0  0.50000  0.50000  0.50000  1.0000
  O   O1        1.0  0.89000  0.48300  0.09900  1.0000
  O   O2        1.0  0.72700  0.89000  0.09900  1.0000
  O   O3        1.0  0.48300  0.72700  0.09900  1.0000
  O   O4        1.0  0.58600  0.21700  0.22900  1.0000
  O   O5        1.0  0.42600  0.58600  0.22900  1.0000
  O   O6        1.0  0.21700  0.42600  0.22900  1.0000
  O   O7        1.0  0.91400  0.07360  0.27100  1.0000
  O   O8        1.0  0.28300  0.91400  0.27100  1.0000
  O   O9        1.0  0.07360  0.28300  0.27100  1.0000
  O   O10       1.0  0.77300  0.01720  0.40100  1.0000
  O   O11       1.0  0.61000  0.77300  0.40100  1.0000
  O   O12       1.0  0.01720  0.61000  0.40100  1.0000
  O   O13       1.0  0.98300  0.39000  0.59900  1.0000
  O   O14       1.0  0.39000  0.22700  0.59900  1.0000
  O   O15       1.0  0.22700  0.98300  0.59900  1.0000
  O   O16       1.0  0.92600  0.71700  0.72900  1.0000
  O   O17       1.0  0.71700  0.08590  0.72900  1.0000
  O   O18       1.0  0.08590  0.92600  0.72900  1.0000
  O   O19       1.0  0.78300  0.57400  0.77100  1.0000
  O   O20       1.0  0.57400  0.41400  0.77100  1.0000
  O   O21       1.0  0.41400  0.78300  0.77100  1.0000
  O   O22       1.0  0.51700  0.27300  0.90100  1.0000
  O   O23       1.0  0.27300  0.11000  0.90100  1.0000
  O   O24       1.0  0.11000  0.51700  0.90100  1.0000
  P   P1        1.0  0.75000  0.04840  0.25000  1.0000
  P   P2        1.0  0.45200  0.75000  0.25000  1.0000
  P   P3        1.0  0.04840  0.45200  0.25000  1.0000
  P   P4        1.0  0.95200  0.54800  0.75000  1.0000
  P   P5        1.0  0.54800  0.25000  0.75000  1.0000
  P   P6        1.0  0.25000  0.95200  0.75000  1.0000
  U   U1        1.0  0.35000  0.35000  0.04890  1.0000
  U   U2        1.0  0.15000  0.15000  0.45100  1.0000
  U   U3        1.0  0.85000  0.85000  0.54900  1.0000
  U   U4        1.0  0.65000  0.65000  0.95100  1.0000
