data_image0
_chemical_formula_structural       As2Ca4O24W4Y2
_chemical_formula_sum              "As2 Ca4 O24 W4 Y2"
_cell_length_a       17.2656
_cell_length_b       5.13363
_cell_length_c       5.13363
_cell_angle_alpha    90
_cell_angle_beta     98.5497
_cell_angle_gamma    98.5497

_space_group_name_H-M_alt    "P 1"
_space_group_IT_number       1

loop_
  _space_group_symop_operation_xyz
  'x, y, z'

loop_
  _atom_site_type_symbol
  _atom_site_label
  _atom_site_symmetry_multiplicity
  _atom_site_fract_x
  _atom_site_fract_y
  _atom_site_fract_z
  _atom_site_occupancy
  As  As1       1.0  0.25000  0.62500  0.37500  1.0000
  As  As2       1.0  0.75000  0.37500  0.62500  1.0000
  Ca  Ca1       1.0  0.91800  0.45900  0.20900  1.0000
  Ca  Ca2       1.0  0.41800  0.20900  0.45900  1.0000
  Ca  Ca3       1.0  0.58200  0.79100  0.54100  1.0000
  Ca  Ca4       1.0  0.08170  0.54100  0.79100  1.0000
  O   O1        1.0  0.14200  0.23500  0.04400  1.0000
  O   O2        1.0  0.35800  0.95600  0.09300  1.0000
  O   O3        1.0  0.03140  0.77300  0.12700  1.0000
  O   O4        1.0  0.19400  0.78400  0.13700  1.0000
  O   O5        1.0  0.30600  0.44300  0.21600  1.0000
  O   O6        1.0  0.46900  0.59500  0.22700  1.0000
  O   O7        1.0  0.64200  0.59800  0.23500  1.0000
  O   O8        1.0  0.53100  0.12700  0.25800  1.0000
  O   O9        1.0  0.85800  0.09300  0.40200  1.0000
  O   O10       1.0  0.03140  0.25800  0.40500  1.0000
  O   O11       1.0  0.69400  0.13700  0.40900  1.0000
  O   O12       1.0  0.80600  0.59100  0.44300  1.0000
  O   O13       1.0  0.19400  0.40900  0.55700  1.0000
  O   O14       1.0  0.30600  0.86300  0.59100  1.0000
  O   O15       1.0  0.96900  0.74200  0.59500  1.0000
  O   O16       1.0  0.14200  0.90700  0.59800  1.0000
  O   O17       1.0  0.46900  0.87300  0.74200  1.0000
  O   O18       1.0  0.35800  0.40200  0.76500  1.0000
  O   O19       1.0  0.53100  0.40500  0.77300  1.0000
  O   O20       1.0  0.69400  0.55700  0.78400  1.0000
  O   O21       1.0  0.80600  0.21600  0.86300  1.0000
  O   O22       1.0  0.96900  0.22700  0.87300  1.0000
  O   O23       1.0  0.64200  0.04400  0.90700  1.0000
  O   O24       1.0  0.85800  0.76500  0.95600  1.0000
  W   W1        1.0  0.59500  0.29700  0.04740  1.0000
  W   W2        1.0  0.09480  0.04740  0.29700  1.0000
  W   W3        1.0  0.90500  0.95300  0.70300  1.0000
  W   W4        1.0  0.40500  0.70300  0.95300  1.0000
  Y   Y1        1.0  0.75000  0.87500  0.12500  1.0000
  Y   Y2        1.0  0.25000  0.12500  0.87500  1.0000
