data_image0
_chemical_formula_structural       Gd20Sn16
_chemical_formula_sum              "Gd20 Sn16"
_cell_length_a       8.08926
_cell_length_b       15.5816
_cell_length_c       8.24314
_cell_angle_alpha    90
_cell_angle_beta     90
_cell_angle_gamma    90

_space_group_name_H-M_alt    "P 1"
_space_group_IT_number       1

loop_
  _space_group_symop_operation_xyz
  'x, y, z'

loop_
  _atom_site_type_symbol
  _atom_site_label
  _atom_site_symmetry_multiplicity
  _atom_site_fract_x
  _atom_site_fract_y
  _atom_site_fract_z
  _atom_site_occupancy
  Gd  Gd1       1.0  0.69400  0.75000  0.00234  1.0000
  Gd  Gd2       1.0  0.36200  0.62200  0.16300  1.0000
  Gd  Gd3       1.0  0.36200  0.87800  0.16300  1.0000
  Gd  Gd4       1.0  0.98400  0.09720  0.18000  1.0000
  Gd  Gd5       1.0  0.98400  0.40300  0.18000  1.0000
  Gd  Gd6       1.0  0.48400  0.09720  0.32000  1.0000
  Gd  Gd7       1.0  0.48400  0.40300  0.32000  1.0000
  Gd  Gd8       1.0  0.86200  0.62200  0.33700  1.0000
  Gd  Gd9       1.0  0.86200  0.87800  0.33700  1.0000
  Gd  Gd10      1.0  0.19400  0.75000  0.49800  1.0000
  Gd  Gd11      1.0  0.80600  0.25000  0.50200  1.0000
  Gd  Gd12      1.0  0.13800  0.12200  0.66300  1.0000
  Gd  Gd13      1.0  0.13800  0.37800  0.66300  1.0000
  Gd  Gd14      1.0  0.51600  0.59700  0.68000  1.0000
  Gd  Gd15      1.0  0.51600  0.90300  0.68000  1.0000
  Gd  Gd16      1.0  0.01600  0.59700  0.82000  1.0000
  Gd  Gd17      1.0  0.01600  0.90300  0.82000  1.0000
  Gd  Gd18      1.0  0.63800  0.12200  0.83700  1.0000
  Gd  Gd19      1.0  0.63800  0.37800  0.83700  1.0000
  Gd  Gd20      1.0  0.30600  0.25000  0.99800  1.0000
  Sn  Sn1       1.0  0.70400  0.54100  0.03740  1.0000
  Sn  Sn2       1.0  0.70400  0.95900  0.03740  1.0000
  Sn  Sn3       1.0  0.06010  0.75000  0.11600  1.0000
  Sn  Sn4       1.0  0.67600  0.25000  0.14600  1.0000
  Sn  Sn5       1.0  0.17600  0.25000  0.35400  1.0000
  Sn  Sn6       1.0  0.56000  0.75000  0.38400  1.0000
  Sn  Sn7       1.0  0.20400  0.54100  0.46300  1.0000
  Sn  Sn8       1.0  0.20400  0.95900  0.46300  1.0000
  Sn  Sn9       1.0  0.79600  0.04140  0.53700  1.0000
  Sn  Sn10      1.0  0.79600  0.45900  0.53700  1.0000
  Sn  Sn11      1.0  0.44000  0.25000  0.61600  1.0000
  Sn  Sn12      1.0  0.82400  0.75000  0.64600  1.0000
  Sn  Sn13      1.0  0.32400  0.75000  0.85400  1.0000
  Sn  Sn14      1.0  0.94000  0.25000  0.88400  1.0000
  Sn  Sn15      1.0  0.29600  0.04140  0.96300  1.0000
  Sn  Sn16      1.0  0.29600  0.45900  0.96300  1.0000
