data_image0
_chemical_formula_structural       Lu8O24W4
_chemical_formula_sum              "Lu8 O24 W4"
_cell_length_a       7.48191
_cell_length_b       5.23543
_cell_length_c       11.1578
_cell_angle_alpha    90
_cell_angle_beta     104.935
_cell_angle_gamma    90

_space_group_name_H-M_alt    "P 1"
_space_group_IT_number       1

loop_
  _space_group_symop_operation_xyz
  'x, y, z'

loop_
  _atom_site_type_symbol
  _atom_site_label
  _atom_site_symmetry_multiplicity
  _atom_site_fract_x
  _atom_site_fract_y
  _atom_site_fract_z
  _atom_site_occupancy
  Lu  Lu1       1.0  0.20000  0.18700  0.07870  1.0000
  Lu  Lu2       1.0  0.50000  0.68300  0.25000  1.0000
  Lu  Lu3       1.0  0.00000  0.73600  0.25000  1.0000
  Lu  Lu4       1.0  0.80000  0.18700  0.42100  1.0000
  Lu  Lu5       1.0  0.20000  0.81300  0.57900  1.0000
  Lu  Lu6       1.0  0.50000  0.31700  0.75000  1.0000
  Lu  Lu7       1.0  0.00000  0.26400  0.75000  1.0000
  Lu  Lu8       1.0  0.80000  0.81300  0.92100  1.0000
  O   O1        1.0  0.37000  0.85300  0.05280  1.0000
  O   O2        1.0  0.85500  0.52700  0.06910  1.0000
  O   O3        1.0  0.94000  0.03170  0.10300  1.0000
  O   O4        1.0  0.48300  0.36200  0.11100  1.0000
  O   O5        1.0  0.21300  0.46800  0.22600  1.0000
  O   O6        1.0  0.71100  0.98200  0.23100  1.0000
  O   O7        1.0  0.28900  0.98200  0.26900  1.0000
  O   O8        1.0  0.78700  0.46800  0.27400  1.0000
  O   O9        1.0  0.51700  0.36200  0.38900  1.0000
  O   O10       1.0  0.06000  0.03170  0.39700  1.0000
  O   O11       1.0  0.14500  0.52700  0.43100  1.0000
  O   O12       1.0  0.63000  0.85300  0.44700  1.0000
  O   O13       1.0  0.37000  0.14700  0.55300  1.0000
  O   O14       1.0  0.85500  0.47300  0.56900  1.0000
  O   O15       1.0  0.94000  0.96800  0.60300  1.0000
  O   O16       1.0  0.48300  0.63800  0.61100  1.0000
  O   O17       1.0  0.21300  0.53200  0.72600  1.0000
  O   O18       1.0  0.71100  0.01800  0.73100  1.0000
  O   O19       1.0  0.28900  0.01800  0.76900  1.0000
  O   O20       1.0  0.78700  0.53200  0.77400  1.0000
  O   O21       1.0  0.51700  0.63800  0.88900  1.0000
  O   O22       1.0  0.06000  0.96800  0.89700  1.0000
  O   O23       1.0  0.14500  0.47300  0.93100  1.0000
  O   O24       1.0  0.63000  0.14700  0.94700  1.0000
  W   W1        1.0  0.72000  0.25300  0.11200  1.0000
  W   W2        1.0  0.28000  0.25300  0.38800  1.0000
  W   W3        1.0  0.72000  0.74700  0.61200  1.0000
  W   W4        1.0  0.28000  0.74700  0.88800  1.0000
