data_image0
_chemical_formula_structural       Ba4N30Rb2
_chemical_formula_sum              "Ba4 N30 Rb2"
_cell_length_a       8.54383
_cell_length_b       5.5816
_cell_length_c       11.6275
_cell_angle_alpha    90
_cell_angle_beta     89.8474
_cell_angle_gamma    90

_space_group_name_H-M_alt    "P 1"
_space_group_IT_number       1

loop_
  _space_group_symop_operation_xyz
  'x, y, z'

loop_
  _atom_site_type_symbol
  _atom_site_label
  _atom_site_symmetry_multiplicity
  _atom_site_fract_x
  _atom_site_fract_y
  _atom_site_fract_z
  _atom_site_occupancy
  Ba  Ba1       1.0  0.73600  0.00159  0.04900  1.0000
  Ba  Ba2       1.0  0.76400  0.00159  0.45100  1.0000
  Ba  Ba3       1.0  0.23600  0.99800  0.54900  1.0000
  Ba  Ba4       1.0  0.26400  0.99800  0.95100  1.0000
  N   N1        1.0  0.00000  0.50000  0.00000  1.0000
  N   N2        1.0  0.50000  0.50000  0.00000  1.0000
  N   N3        1.0  0.13900  0.50400  0.00167  1.0000
  N   N4        1.0  0.47900  0.32600  0.05630  1.0000
  N   N5        1.0  0.04710  0.00940  0.13500  1.0000
  N   N6        1.0  0.41200  0.87200  0.17400  1.0000
  N   N7        1.0  0.06730  0.94000  0.23100  1.0000
  N   N8        1.0  0.75000  0.28400  0.25000  1.0000
  N   N9        1.0  0.75000  0.49600  0.25000  1.0000
  N   N10       1.0  0.75000  0.70800  0.25000  1.0000
  N   N11       1.0  0.43300  0.94000  0.26900  1.0000
  N   N12       1.0  0.08780  0.87200  0.32600  1.0000
  N   N13       1.0  0.45300  0.00940  0.36500  1.0000
  N   N14       1.0  0.02050  0.32600  0.44400  1.0000
  N   N15       1.0  0.36100  0.50400  0.49800  1.0000
  N   N16       1.0  0.00000  0.50000  0.50000  1.0000
  N   N17       1.0  0.50000  0.50000  0.50000  1.0000
  N   N18       1.0  0.63900  0.49600  0.50200  1.0000
  N   N19       1.0  0.97900  0.67400  0.55600  1.0000
  N   N20       1.0  0.54700  0.99100  0.63500  1.0000
  N   N21       1.0  0.91200  0.12800  0.67400  1.0000
  N   N22       1.0  0.56700  0.05990  0.73100  1.0000
  N   N23       1.0  0.25000  0.29200  0.75000  1.0000
  N   N24       1.0  0.25000  0.50400  0.75000  1.0000
  N   N25       1.0  0.25000  0.71600  0.75000  1.0000
  N   N26       1.0  0.93300  0.05990  0.76900  1.0000
  N   N27       1.0  0.58800  0.12800  0.82600  1.0000
  N   N28       1.0  0.95300  0.99100  0.86500  1.0000
  N   N29       1.0  0.52100  0.67400  0.94400  1.0000
  N   N30       1.0  0.86100  0.49600  0.99800  1.0000
  Rb  Rb1       1.0  0.25000  0.42500  0.25000  1.0000
  Rb  Rb2       1.0  0.75000  0.57500  0.75000  1.0000
