data_image0
_chemical_formula_structural       Li3MnO6U
_chemical_formula_sum              "Li3 Mn1 O6 U1"
_cell_length_a       5.33585
_cell_length_b       5.33585
_cell_length_c       5.14555
_cell_angle_alpha    98.9516
_cell_angle_beta     98.9516
_cell_angle_gamma    120.586

_space_group_name_H-M_alt    "P 1"
_space_group_IT_number       1

loop_
  _space_group_symop_operation_xyz
  'x, y, z'

loop_
  _atom_site_type_symbol
  _atom_site_label
  _atom_site_symmetry_multiplicity
  _atom_site_fract_x
  _atom_site_fract_y
  _atom_site_fract_z
  _atom_site_occupancy
  Li  Li1       1.0  0.97400  0.02620  0.50000  1.0000
  Li  Li2       1.0  0.65300  0.34700  0.50000  1.0000
  Li  Li3       1.0  0.36400  0.63600  0.50000  1.0000
  Mn  Mn1       1.0  0.83200  0.16800  0.00000  1.0000
  O   O1        1.0  0.60300  0.96500  0.23800  1.0000
  O   O2        1.0  0.95700  0.58300  0.24900  1.0000
  O   O3        1.0  0.22400  0.22400  0.25600  1.0000
  O   O4        1.0  0.77600  0.77600  0.74400  1.0000
  O   O5        1.0  0.41700  0.04340  0.75100  1.0000
  O   O6        1.0  0.03520  0.39700  0.76200  1.0000
  U   U1        1.0  0.16500  0.83500  0.00000  1.0000
