data_image0
_chemical_formula_structural       Li3MnO6Te
_chemical_formula_sum              "Li3 Mn1 O6 Te1"
_cell_length_a       5.12652
_cell_length_b       5.12657
_cell_length_c       5.1616
_cell_angle_alpha    101.001
_cell_angle_beta     101.001
_cell_angle_gamma    118.193

_space_group_name_H-M_alt    "P 1"
_space_group_IT_number       1

loop_
  _space_group_symop_operation_xyz
  'x, y, z'

loop_
  _atom_site_type_symbol
  _atom_site_label
  _atom_site_symmetry_multiplicity
  _atom_site_fract_x
  _atom_site_fract_y
  _atom_site_fract_z
  _atom_site_occupancy
  Li  Li1       1.0  0.99200  0.00847  0.50000  1.0000
  Li  Li2       1.0  0.65100  0.34900  0.50000  1.0000
  Li  Li3       1.0  0.34700  0.65300  0.50000  1.0000
  Mn  Mn1       1.0  0.83600  0.16400  0.00000  1.0000
  O   O1        1.0  0.95200  0.58300  0.22100  1.0000
  O   O2        1.0  0.20600  0.19800  0.24000  1.0000
  O   O3        1.0  0.56300  0.93900  0.25600  1.0000
  O   O4        1.0  0.06090  0.43700  0.74400  1.0000
  O   O5        1.0  0.80200  0.79400  0.76000  1.0000
  O   O6        1.0  0.41700  0.04830  0.77900  1.0000
  Te  Te1       1.0  0.17500  0.82500  0.00000  1.0000
