data_image0
_chemical_formula_structural       Li3MnO6Pd
_chemical_formula_sum              "Li3 Mn1 O6 Pd1"
_cell_length_a       5.00506
_cell_length_b       5.00506
_cell_length_c       4.99799
_cell_angle_alpha    99.7882
_cell_angle_beta     99.7882
_cell_angle_gamma    119.764

_space_group_name_H-M_alt    "P 1"
_space_group_IT_number       1

loop_
  _space_group_symop_operation_xyz
  'x, y, z'

loop_
  _atom_site_type_symbol
  _atom_site_label
  _atom_site_symmetry_multiplicity
  _atom_site_fract_x
  _atom_site_fract_y
  _atom_site_fract_z
  _atom_site_occupancy
  Li  Li1       1.0  0.99800  0.00244  0.50000  1.0000
  Li  Li2       1.0  0.65100  0.34900  0.50000  1.0000
  Li  Li3       1.0  0.35200  0.64800  0.50000  1.0000
  Mn  Mn1       1.0  0.16700  0.83300  0.00000  1.0000
  O   O1        1.0  0.94900  0.59200  0.23700  1.0000
  O   O2        1.0  0.56900  0.93800  0.24000  1.0000
  O   O3        1.0  0.22400  0.21200  0.24000  1.0000
  O   O4        1.0  0.78800  0.77600  0.76000  1.0000
  O   O5        1.0  0.06240  0.43100  0.76000  1.0000
  O   O6        1.0  0.40800  0.05080  0.76300  1.0000
  Pd  Pd1       1.0  0.83200  0.16800  0.00000  1.0000
