data_image0
_chemical_formula_structural       Al4Be4H4O20Si4
_chemical_formula_sum              "Al4 Be4 H4 O20 Si4"
_cell_length_a       4.77452
_cell_length_b       14.2615
_cell_length_c       4.62075
_cell_angle_alpha    90
_cell_angle_beta     100.161
_cell_angle_gamma    90

_space_group_name_H-M_alt    "P 1"
_space_group_IT_number       1

loop_
  _space_group_symop_operation_xyz
  'x, y, z'

loop_
  _atom_site_type_symbol
  _atom_site_label
  _atom_site_symmetry_multiplicity
  _atom_site_fract_x
  _atom_site_fract_y
  _atom_site_fract_z
  _atom_site_occupancy
  Al  Al1       1.0  0.25200  0.94400  0.04140  1.0000
  Al  Al2       1.0  0.75200  0.55600  0.04140  1.0000
  Al  Al3       1.0  0.24800  0.44400  0.95900  1.0000
  Al  Al4       1.0  0.74800  0.05590  0.95900  1.0000
  Be  Be1       1.0  0.17300  0.30100  0.45600  1.0000
  Be  Be2       1.0  0.67300  0.19900  0.45600  1.0000
  Be  Be3       1.0  0.32700  0.80100  0.54400  1.0000
  Be  Be4       1.0  0.82700  0.69900  0.54400  1.0000
  H   H1        1.0  0.47900  0.79200  0.01850  1.0000
  H   H2        1.0  0.97900  0.70800  0.01850  1.0000
  H   H3        1.0  0.02140  0.29200  0.98100  1.0000
  H   H4        1.0  0.52100  0.20800  0.98100  1.0000
  O   O1        1.0  0.15700  0.32900  0.11800  1.0000
  O   O2        1.0  0.65700  0.17100  0.11800  1.0000
  O   O3        1.0  0.10300  0.05450  0.20600  1.0000
  O   O4        1.0  0.60300  0.44500  0.20600  1.0000
  O   O5        1.0  0.11800  0.53000  0.23900  1.0000
  O   O6        1.0  0.61800  0.97000  0.23900  1.0000
  O   O7        1.0  0.12300  0.87700  0.35000  1.0000
  O   O8        1.0  0.62300  0.62300  0.35000  1.0000
  O   O9        1.0  0.15300  0.70100  0.46800  1.0000
  O   O10       1.0  0.65300  0.79900  0.46800  1.0000
  O   O11       1.0  0.84700  0.29900  0.53200  1.0000
  O   O12       1.0  0.34700  0.20100  0.53200  1.0000
  O   O13       1.0  0.37700  0.37700  0.65000  1.0000
  O   O14       1.0  0.87700  0.12300  0.65000  1.0000
  O   O15       1.0  0.38200  0.03040  0.76100  1.0000
  O   O16       1.0  0.88200  0.47000  0.76100  1.0000
  O   O17       1.0  0.39700  0.55500  0.79400  1.0000
  O   O18       1.0  0.89700  0.94500  0.79400  1.0000
  O   O19       1.0  0.34300  0.82900  0.88200  1.0000
  O   O20       1.0  0.84300  0.67100  0.88200  1.0000
  Si  Si1       1.0  0.32200  0.60000  0.46400  1.0000
  Si  Si2       1.0  0.82200  0.90000  0.46400  1.0000
  Si  Si3       1.0  0.17800  0.10000  0.53600  1.0000
  Si  Si4       1.0  0.67800  0.40000  0.53600  1.0000
