data_image0
_chemical_formula_structural       K20O4Tl12
_chemical_formula_sum              "K20 O4 Tl12"
_cell_length_a       8.44168
_cell_length_b       8.86369
_cell_length_c       17.045
_cell_angle_alpha    90
_cell_angle_beta     75.6628
_cell_angle_gamma    90

_space_group_name_H-M_alt    "P 1"
_space_group_IT_number       1

loop_
  _space_group_symop_operation_xyz
  'x, y, z'

loop_
  _atom_site_type_symbol
  _atom_site_label
  _atom_site_symmetry_multiplicity
  _atom_site_fract_x
  _atom_site_fract_y
  _atom_site_fract_z
  _atom_site_occupancy
  K   K1        1.0  0.19600  0.25000  0.01330  1.0000
  K   K2        1.0  0.79100  0.25000  0.01330  1.0000
  K   K3        1.0  0.45000  0.53300  0.10100  1.0000
  K   K4        1.0  0.45000  0.96700  0.10100  1.0000
  K   K5        1.0  0.12200  0.25000  0.25600  1.0000
  K   K6        1.0  0.62300  0.25000  0.25600  1.0000
  K   K7        1.0  0.31900  0.53400  0.36100  1.0000
  K   K8        1.0  0.31900  0.96600  0.36100  1.0000
  K   K9        1.0  0.04330  0.25000  0.46800  1.0000
  K   K10       1.0  0.48900  0.25000  0.46800  1.0000
  K   K11       1.0  0.51100  0.75000  0.53200  1.0000
  K   K12       1.0  0.95700  0.75000  0.53200  1.0000
  K   K13       1.0  0.68100  0.03390  0.63900  1.0000
  K   K14       1.0  0.68100  0.46600  0.63900  1.0000
  K   K15       1.0  0.37700  0.75000  0.74400  1.0000
  K   K16       1.0  0.87800  0.75000  0.74400  1.0000
  K   K17       1.0  0.55000  0.03330  0.89900  1.0000
  K   K18       1.0  0.55000  0.46700  0.89900  1.0000
  K   K19       1.0  0.20900  0.75000  0.98700  1.0000
  K   K20       1.0  0.80400  0.75000  0.98700  1.0000
  O   O1        1.0  0.49000  0.25000  0.02080  1.0000
  O   O2        1.0  0.32400  0.25000  0.35200  1.0000
  O   O3        1.0  0.67600  0.75000  0.64800  1.0000
  O   O4        1.0  0.51000  0.75000  0.97900  1.0000
  Tl  Tl1       1.0  0.92400  0.53500  0.15200  1.0000
  Tl  Tl2       1.0  0.92400  0.96500  0.15200  1.0000
  Tl  Tl3       1.0  0.08740  0.75000  0.25100  1.0000
  Tl  Tl4       1.0  0.66100  0.75000  0.25100  1.0000
  Tl  Tl5       1.0  0.81500  0.55300  0.36900  1.0000
  Tl  Tl6       1.0  0.81500  0.94700  0.36900  1.0000
  Tl  Tl7       1.0  0.18500  0.05290  0.63100  1.0000
  Tl  Tl8       1.0  0.18500  0.44700  0.63100  1.0000
  Tl  Tl9       1.0  0.33900  0.25000  0.74900  1.0000
  Tl  Tl10      1.0  0.91300  0.25000  0.74900  1.0000
  Tl  Tl11      1.0  0.07580  0.03500  0.84800  1.0000
  Tl  Tl12      1.0  0.07580  0.46500  0.84800  1.0000
