data_image0
_chemical_formula_structural       Cd6H6O18P6
_chemical_formula_sum              "Cd6 H6 O18 P6"
_cell_length_a       8.27356
_cell_length_b       8.27356
_cell_length_c       8.27356
_cell_angle_alpha    109.214
_cell_angle_beta     109.214
_cell_angle_gamma    109.214

_space_group_name_H-M_alt    "P 1"
_space_group_IT_number       1

loop_
  _space_group_symop_operation_xyz
  'x, y, z'

loop_
  _atom_site_type_symbol
  _atom_site_label
  _atom_site_symmetry_multiplicity
  _atom_site_fract_x
  _atom_site_fract_y
  _atom_site_fract_z
  _atom_site_occupancy
  Cd  Cd1       1.0  0.82100  0.31500  0.14200  1.0000
  Cd  Cd2       1.0  0.68500  0.85800  0.17900  1.0000
  Cd  Cd3       1.0  0.14200  0.82100  0.31500  1.0000
  Cd  Cd4       1.0  0.85800  0.17900  0.68500  1.0000
  Cd  Cd5       1.0  0.31500  0.14200  0.82100  1.0000
  Cd  Cd6       1.0  0.17900  0.68500  0.85800  1.0000
  H   H1        1.0  0.40800  0.47000  0.27500  1.0000
  H   H2        1.0  0.47000  0.27500  0.40800  1.0000
  H   H3        1.0  0.27500  0.40800  0.47000  1.0000
  H   H4        1.0  0.72500  0.59200  0.53000  1.0000
  H   H5        1.0  0.53000  0.72500  0.59200  1.0000
  H   H6        1.0  0.59200  0.53000  0.72500  1.0000
  O   O1        1.0  0.84800  0.73500  0.05480  1.0000
  O   O2        1.0  0.37800  0.63000  0.08520  1.0000
  O   O3        1.0  0.51900  0.19600  0.12900  1.0000
  O   O4        1.0  0.26500  0.94500  0.15200  1.0000
  O   O5        1.0  0.12900  0.51900  0.19600  1.0000
  O   O6        1.0  0.94500  0.15200  0.26500  1.0000
  O   O7        1.0  0.91500  0.62200  0.37000  1.0000
  O   O8        1.0  0.63000  0.08520  0.37800  1.0000
  O   O9        1.0  0.80400  0.87100  0.48100  1.0000
  O   O10       1.0  0.19600  0.12900  0.51900  1.0000
  O   O11       1.0  0.37000  0.91500  0.62200  1.0000
  O   O12       1.0  0.08520  0.37800  0.63000  1.0000
  O   O13       1.0  0.05480  0.84800  0.73500  1.0000
  O   O14       1.0  0.87100  0.48100  0.80400  1.0000
  O   O15       1.0  0.73500  0.05480  0.84800  1.0000
  O   O16       1.0  0.48100  0.80400  0.87100  1.0000
  O   O17       1.0  0.62200  0.37000  0.91500  1.0000
  O   O18       1.0  0.15200  0.26500  0.94500  1.0000
  P   P1        1.0  0.26600  0.47200  0.12500  1.0000
  P   P2        1.0  0.47200  0.12500  0.26600  1.0000
  P   P3        1.0  0.12500  0.26600  0.47200  1.0000
  P   P4        1.0  0.87500  0.73400  0.52800  1.0000
  P   P5        1.0  0.52800  0.87500  0.73400  1.0000
  P   P6        1.0  0.73400  0.52800  0.87500  1.0000
