data_image0
_chemical_formula_structural       C20Ir16
_chemical_formula_sum              "C20 Ir16"
_cell_length_a       5.03568
_cell_length_b       5.03568
_cell_length_c       15.0337
_cell_angle_alpha    90
_cell_angle_beta     90
_cell_angle_gamma    90

_space_group_name_H-M_alt    "P 1"
_space_group_IT_number       1

loop_
  _space_group_symop_operation_xyz
  'x, y, z'

loop_
  _atom_site_type_symbol
  _atom_site_label
  _atom_site_symmetry_multiplicity
  _atom_site_fract_x
  _atom_site_fract_y
  _atom_site_fract_z
  _atom_site_occupancy
  C   C1        1.0  0.33400  0.19100  0.05420  1.0000
  C   C2        1.0  0.66600  0.80900  0.05420  1.0000
  C   C3        1.0  0.84000  0.22900  0.14700  1.0000
  C   C4        1.0  0.16000  0.77100  0.14700  1.0000
  C   C5        1.0  0.32200  0.32200  0.25000  1.0000
  C   C6        1.0  0.67800  0.67800  0.25000  1.0000
  C   C7        1.0  0.77100  0.16000  0.35300  1.0000
  C   C8        1.0  0.22900  0.84000  0.35300  1.0000
  C   C9        1.0  0.19100  0.33400  0.44600  1.0000
  C   C10       1.0  0.80900  0.66600  0.44600  1.0000
  C   C11       1.0  0.66600  0.19100  0.55400  1.0000
  C   C12       1.0  0.33400  0.80900  0.55400  1.0000
  C   C13       1.0  0.16000  0.22900  0.64700  1.0000
  C   C14       1.0  0.84000  0.77100  0.64700  1.0000
  C   C15       1.0  0.67800  0.32200  0.75000  1.0000
  C   C16       1.0  0.32200  0.67800  0.75000  1.0000
  C   C17       1.0  0.22900  0.16000  0.85300  1.0000
  C   C18       1.0  0.77100  0.84000  0.85300  1.0000
  C   C19       1.0  0.80900  0.33400  0.94600  1.0000
  C   C20       1.0  0.19100  0.66600  0.94600  1.0000
  Ir  Ir1       1.0  0.00000  0.00000  0.00000  1.0000
  Ir  Ir2       1.0  0.00000  0.50000  0.06000  1.0000
  Ir  Ir3       1.0  0.50000  0.50000  0.13500  1.0000
  Ir  Ir4       1.0  0.50000  0.00000  0.17400  1.0000
  Ir  Ir5       1.0  0.00000  0.00000  0.25000  1.0000
  Ir  Ir6       1.0  0.00000  0.50000  0.32600  1.0000
  Ir  Ir7       1.0  0.50000  0.50000  0.36500  1.0000
  Ir  Ir8       1.0  0.50000  0.00000  0.44000  1.0000
  Ir  Ir9       1.0  0.00000  0.00000  0.50000  1.0000
  Ir  Ir10      1.0  0.00000  0.50000  0.56000  1.0000
  Ir  Ir11      1.0  0.50000  0.50000  0.63500  1.0000
  Ir  Ir12      1.0  0.50000  0.00000  0.67400  1.0000
  Ir  Ir13      1.0  0.00000  0.00000  0.75000  1.0000
  Ir  Ir14      1.0  0.00000  0.50000  0.82600  1.0000
  Ir  Ir15      1.0  0.50000  0.50000  0.86500  1.0000
  Ir  Ir16      1.0  0.50000  0.00000  0.94000  1.0000
