data_image0
_chemical_formula_structural       Mo6Na4O24Zr2
_chemical_formula_sum              "Mo6 Na4 O24 Zr2"
_cell_length_a       5.00503
_cell_length_b       9.8587
_cell_length_c       9.8587
_cell_angle_alpha    69.2246
_cell_angle_beta     101.348
_cell_angle_gamma    101.348

_space_group_name_H-M_alt    "P 1"
_space_group_IT_number       1

loop_
  _space_group_symop_operation_xyz
  'x, y, z'

loop_
  _atom_site_type_symbol
  _atom_site_label
  _atom_site_symmetry_multiplicity
  _atom_site_fract_x
  _atom_site_fract_y
  _atom_site_fract_z
  _atom_site_occupancy
  Mo  Mo1       1.0  0.75000  0.86000  0.14000  1.0000
  Mo  Mo2       1.0  0.60200  0.44200  0.22700  1.0000
  Mo  Mo3       1.0  0.10200  0.22700  0.44200  1.0000
  Mo  Mo4       1.0  0.89800  0.77300  0.55800  1.0000
  Mo  Mo5       1.0  0.39800  0.55800  0.77300  1.0000
  Mo  Mo6       1.0  0.25000  0.14000  0.86000  1.0000
  Na  Na1       1.0  0.90800  0.28300  0.04240  1.0000
  Na  Na2       1.0  0.40800  0.04240  0.28300  1.0000
  Na  Na3       1.0  0.59200  0.95800  0.71700  1.0000
  Na  Na4       1.0  0.09150  0.71700  0.95800  1.0000
  O   O1        1.0  0.45300  0.13100  0.02850  1.0000
  O   O2        1.0  0.75900  0.48600  0.07210  1.0000
  O   O3        1.0  0.95300  0.02850  0.13100  1.0000
  O   O4        1.0  0.97600  0.72100  0.17700  1.0000
  O   O5        1.0  0.41200  0.59100  0.20100  1.0000
  O   O6        1.0  0.32500  0.29500  0.23200  1.0000
  O   O7        1.0  0.52400  0.82300  0.27900  1.0000
  O   O8        1.0  0.82500  0.23200  0.29500  1.0000
  O   O9        1.0  0.87400  0.46300  0.38900  1.0000
  O   O10       1.0  0.08780  0.79900  0.40900  1.0000
  O   O11       1.0  0.37400  0.38900  0.46300  1.0000
  O   O12       1.0  0.25900  0.07210  0.48600  1.0000
  O   O13       1.0  0.74100  0.92800  0.51400  1.0000
  O   O14       1.0  0.62600  0.61100  0.53700  1.0000
  O   O15       1.0  0.91200  0.20100  0.59100  1.0000
  O   O16       1.0  0.12600  0.53700  0.61100  1.0000
  O   O17       1.0  0.17500  0.76800  0.70500  1.0000
  O   O18       1.0  0.47600  0.17700  0.72100  1.0000
  O   O19       1.0  0.67500  0.70500  0.76800  1.0000
  O   O20       1.0  0.58800  0.40900  0.79900  1.0000
  O   O21       1.0  0.02380  0.27900  0.82300  1.0000
  O   O22       1.0  0.04660  0.97100  0.86900  1.0000
  O   O23       1.0  0.24100  0.51400  0.92800  1.0000
  O   O24       1.0  0.54700  0.86900  0.97100  1.0000
  Zr  Zr1       1.0  0.25000  0.62600  0.37400  1.0000
  Zr  Zr2       1.0  0.75000  0.37400  0.62600  1.0000
