data_image0
_chemical_formula_structural       Cs2O24P8Tb2
_chemical_formula_sum              "Cs2 O24 P8 Tb2"
_cell_length_a       6.9885
_cell_length_b       8.61841
_cell_length_c       8.99664
_cell_angle_alpha    90
_cell_angle_beta     90
_cell_angle_gamma    99.871

_space_group_name_H-M_alt    "P 1"
_space_group_IT_number       1

loop_
  _space_group_symop_operation_xyz
  'x, y, z'

loop_
  _atom_site_type_symbol
  _atom_site_label
  _atom_site_symmetry_multiplicity
  _atom_site_fract_x
  _atom_site_fract_y
  _atom_site_fract_z
  _atom_site_occupancy
  Cs  Cs1       1.0  0.66700  0.17300  0.16300  1.0000
  Cs  Cs2       1.0  0.33300  0.82700  0.66300  1.0000
  O   O1        1.0  0.52500  0.82500  0.02540  1.0000
  O   O2        1.0  0.20500  0.35700  0.02870  1.0000
  O   O3        1.0  0.54800  0.49200  0.05140  1.0000
  O   O4        1.0  0.91700  0.90800  0.16300  1.0000
  O   O5        1.0  0.28600  0.62100  0.17200  1.0000
  O   O6        1.0  0.28400  0.90800  0.19700  1.0000
  O   O7        1.0  0.84100  0.59300  0.24900  1.0000
  O   O8        1.0  0.35700  0.36800  0.27700  1.0000
  O   O9        1.0  0.12800  0.09480  0.34300  1.0000
  O   O10       1.0  0.05300  0.80800  0.40100  1.0000
  O   O11       1.0  0.08290  0.52800  0.44800  1.0000
  O   O12       1.0  0.84300  0.23600  0.46100  1.0000
  O   O13       1.0  0.47500  0.17500  0.52500  1.0000
  O   O14       1.0  0.79500  0.64300  0.52900  1.0000
  O   O15       1.0  0.45200  0.50800  0.55100  1.0000
  O   O16       1.0  0.08270  0.09190  0.66300  1.0000
  O   O17       1.0  0.71400  0.37900  0.67200  1.0000
  O   O18       1.0  0.71600  0.09220  0.69700  1.0000
  O   O19       1.0  0.15900  0.40700  0.74900  1.0000
  O   O20       1.0  0.64300  0.63200  0.77700  1.0000
  O   O21       1.0  0.87200  0.90500  0.84300  1.0000
  O   O22       1.0  0.94700  0.19200  0.90100  1.0000
  O   O23       1.0  0.91700  0.47200  0.94800  1.0000
  O   O24       1.0  0.15700  0.76400  0.96100  1.0000
  P   P1        1.0  0.31700  0.78000  0.07300  1.0000
  P   P2        1.0  0.36200  0.45900  0.13600  1.0000
  P   P3        1.0  0.08140  0.93900  0.27200  1.0000
  P   P4        1.0  0.94100  0.62600  0.39500  1.0000
  P   P5        1.0  0.68300  0.22000  0.57300  1.0000
  P   P6        1.0  0.63800  0.54100  0.63600  1.0000
  P   P7        1.0  0.91900  0.06130  0.77200  1.0000
  P   P8        1.0  0.05900  0.37400  0.89500  1.0000
  Tb  Tb1       1.0  0.80200  0.69600  0.00272  1.0000
  Tb  Tb2       1.0  0.19800  0.30400  0.50300  1.0000
