data_image0
_chemical_formula_structural       Cl28I4S4
_chemical_formula_sum              "Cl28 I4 S4"
_cell_length_a       10.4248
_cell_length_b       12.6054
_cell_length_c       8.2991
_cell_angle_alpha    90
_cell_angle_beta     108.636
_cell_angle_gamma    90

_space_group_name_H-M_alt    "P 1"
_space_group_IT_number       1

loop_
  _space_group_symop_operation_xyz
  'x, y, z'

loop_
  _atom_site_type_symbol
  _atom_site_label
  _atom_site_symmetry_multiplicity
  _atom_site_fract_x
  _atom_site_fract_y
  _atom_site_fract_z
  _atom_site_occupancy
  Cl  Cl1       1.0  0.90100  0.60700  0.03720  1.0000
  Cl  Cl2       1.0  0.89600  0.22400  0.07950  1.0000
  Cl  Cl3       1.0  0.88900  0.94500  0.13600  1.0000
  Cl  Cl4       1.0  0.57800  0.25100  0.16400  1.0000
  Cl  Cl5       1.0  0.74700  0.45000  0.20300  1.0000
  Cl  Cl6       1.0  0.57900  0.97100  0.23400  1.0000
  Cl  Cl7       1.0  0.71900  0.69600  0.24000  1.0000
  Cl  Cl8       1.0  0.28100  0.19600  0.26000  1.0000
  Cl  Cl9       1.0  0.42100  0.47100  0.26600  1.0000
  Cl  Cl10      1.0  0.25300  0.95000  0.29700  1.0000
  Cl  Cl11      1.0  0.42200  0.75100  0.33600  1.0000
  Cl  Cl12      1.0  0.11100  0.44500  0.36400  1.0000
  Cl  Cl13      1.0  0.10400  0.72400  0.42000  1.0000
  Cl  Cl14      1.0  0.09900  0.10700  0.46300  1.0000
  Cl  Cl15      1.0  0.90100  0.89300  0.53700  1.0000
  Cl  Cl16      1.0  0.89600  0.27600  0.58000  1.0000
  Cl  Cl17      1.0  0.88900  0.55500  0.63600  1.0000
  Cl  Cl18      1.0  0.57800  0.24900  0.66400  1.0000
  Cl  Cl19      1.0  0.74700  0.04970  0.70300  1.0000
  Cl  Cl20      1.0  0.57900  0.52900  0.73400  1.0000
  Cl  Cl21      1.0  0.71900  0.80400  0.74000  1.0000
  Cl  Cl22      1.0  0.28100  0.30400  0.76000  1.0000
  Cl  Cl23      1.0  0.42100  0.02900  0.76600  1.0000
  Cl  Cl24      1.0  0.25300  0.55000  0.79700  1.0000
  Cl  Cl25      1.0  0.42200  0.74900  0.83600  1.0000
  Cl  Cl26      1.0  0.11100  0.05530  0.86400  1.0000
  Cl  Cl27      1.0  0.10400  0.77600  0.92000  1.0000
  Cl  Cl28      1.0  0.09900  0.39300  0.96300  1.0000
  I   I1        1.0  0.72800  0.09990  0.15500  1.0000
  I   I2        1.0  0.27200  0.60000  0.34500  1.0000
  I   I3        1.0  0.72800  0.40000  0.65500  1.0000
  I   I4        1.0  0.27200  0.90000  0.84500  1.0000
  S   S1        1.0  0.13800  0.08310  0.24100  1.0000
  S   S2        1.0  0.86200  0.58300  0.25900  1.0000
  S   S3        1.0  0.13800  0.41700  0.74100  1.0000
  S   S4        1.0  0.86200  0.91700  0.75900  1.0000
