data_image0
_chemical_formula_structural       Ca8S20Sb8
_chemical_formula_sum              "Ca8 S20 Sb8"
_cell_length_a       15.1531
_cell_length_b       5.71822
_cell_length_c       11.3981
_cell_angle_alpha    90
_cell_angle_beta     110.941
_cell_angle_gamma    90

_space_group_name_H-M_alt    "P 1"
_space_group_IT_number       1

loop_
  _space_group_symop_operation_xyz
  'x, y, z'

loop_
  _atom_site_type_symbol
  _atom_site_label
  _atom_site_symmetry_multiplicity
  _atom_site_fract_x
  _atom_site_fract_y
  _atom_site_fract_z
  _atom_site_occupancy
  Ca  Ca1       1.0  0.33400  0.73300  0.16800  1.0000
  Ca  Ca2       1.0  0.89400  0.22400  0.19300  1.0000
  Ca  Ca3       1.0  0.10600  0.72400  0.30700  1.0000
  Ca  Ca4       1.0  0.66600  0.23300  0.33200  1.0000
  Ca  Ca5       1.0  0.33400  0.76700  0.66800  1.0000
  Ca  Ca6       1.0  0.89400  0.27600  0.69300  1.0000
  Ca  Ca7       1.0  0.10600  0.77600  0.80700  1.0000
  Ca  Ca8       1.0  0.66600  0.26700  0.83200  1.0000
  S   S1        1.0  0.12000  0.69800  0.06320  1.0000
  S   S2        1.0  0.69500  0.22600  0.09600  1.0000
  S   S3        1.0  0.50000  0.98900  0.15300  1.0000
  S   S4        1.0  0.29900  0.23400  0.15900  1.0000
  S   S5        1.0  0.90400  0.72600  0.22300  1.0000
  S   S6        1.0  0.09640  0.22600  0.27700  1.0000
  S   S7        1.0  0.70100  0.73400  0.34100  1.0000
  S   S8        1.0  0.50000  0.48900  0.34700  1.0000
  S   S9        1.0  0.30500  0.72600  0.40400  1.0000
  S   S10       1.0  0.88000  0.19800  0.43700  1.0000
  S   S11       1.0  0.12000  0.80200  0.56300  1.0000
  S   S12       1.0  0.69500  0.27400  0.59600  1.0000
  S   S13       1.0  0.50000  0.51100  0.65300  1.0000
  S   S14       1.0  0.29900  0.26600  0.65900  1.0000
  S   S15       1.0  0.90400  0.77400  0.72300  1.0000
  S   S16       1.0  0.09640  0.27400  0.77700  1.0000
  S   S17       1.0  0.70100  0.76600  0.84100  1.0000
  S   S18       1.0  0.50000  0.01080  0.84700  1.0000
  S   S19       1.0  0.30500  0.77400  0.90400  1.0000
  S   S20       1.0  0.88000  0.30200  0.93700  1.0000
  Sb  Sb1       1.0  0.61600  0.84300  0.05310  1.0000
  Sb  Sb2       1.0  0.12400  0.26000  0.07350  1.0000
  Sb  Sb3       1.0  0.87600  0.76000  0.42600  1.0000
  Sb  Sb4       1.0  0.38400  0.34300  0.44700  1.0000
  Sb  Sb5       1.0  0.61600  0.65700  0.55300  1.0000
  Sb  Sb6       1.0  0.12400  0.24000  0.57400  1.0000
  Sb  Sb7       1.0  0.87600  0.74000  0.92600  1.0000
  Sb  Sb8       1.0  0.38400  0.15700  0.94700  1.0000
