data_image0
_chemical_formula_structural       As4K4Mo4O24
_chemical_formula_sum              "As4 K4 Mo4 O24"
_cell_length_a       10.7269
_cell_length_b       6.65425
_cell_length_c       6.88284
_cell_angle_alpha    90
_cell_angle_beta     90
_cell_angle_gamma    90

_space_group_name_H-M_alt    "P 1"
_space_group_IT_number       1

loop_
  _space_group_symop_operation_xyz
  'x, y, z'

loop_
  _atom_site_type_symbol
  _atom_site_label
  _atom_site_symmetry_multiplicity
  _atom_site_fract_x
  _atom_site_fract_y
  _atom_site_fract_z
  _atom_site_occupancy
  As  As1       1.0  0.84400  0.25000  0.03780  1.0000
  As  As2       1.0  0.34400  0.25000  0.46200  1.0000
  As  As3       1.0  0.65600  0.75000  0.53800  1.0000
  As  As4       1.0  0.15600  0.75000  0.96200  1.0000
  K   K1        1.0  0.50000  0.00000  0.00000  1.0000
  K   K2        1.0  0.50000  0.50000  0.00000  1.0000
  K   K3        1.0  0.00000  0.00000  0.50000  1.0000
  K   K4        1.0  0.00000  0.50000  0.50000  1.0000
  Mo  Mo1       1.0  0.16000  0.25000  0.04510  1.0000
  Mo  Mo2       1.0  0.66000  0.25000  0.45500  1.0000
  Mo  Mo3       1.0  0.34000  0.75000  0.54500  1.0000
  Mo  Mo4       1.0  0.84000  0.75000  0.95500  1.0000
  O   O1        1.0  0.68500  0.75000  0.01830  1.0000
  O   O2        1.0  0.14800  0.54200  0.11200  1.0000
  O   O3        1.0  0.14800  0.95800  0.11200  1.0000
  O   O4        1.0  0.70000  0.25000  0.14300  1.0000
  O   O5        1.0  0.91100  0.75000  0.18200  1.0000
  O   O6        1.0  0.97100  0.25000  0.18800  1.0000
  O   O7        1.0  0.47100  0.25000  0.31200  1.0000
  O   O8        1.0  0.41100  0.75000  0.31800  1.0000
  O   O9        1.0  0.20000  0.25000  0.35700  1.0000
  O   O10       1.0  0.64800  0.54200  0.38800  1.0000
  O   O11       1.0  0.64800  0.95800  0.38800  1.0000
  O   O12       1.0  0.18500  0.75000  0.48200  1.0000
  O   O13       1.0  0.81500  0.25000  0.51800  1.0000
  O   O14       1.0  0.35200  0.04170  0.61200  1.0000
  O   O15       1.0  0.35200  0.45800  0.61200  1.0000
  O   O16       1.0  0.80000  0.75000  0.64300  1.0000
  O   O17       1.0  0.58900  0.25000  0.68200  1.0000
  O   O18       1.0  0.52900  0.75000  0.68800  1.0000
  O   O19       1.0  0.02950  0.75000  0.81200  1.0000
  O   O20       1.0  0.08900  0.25000  0.81800  1.0000
  O   O21       1.0  0.30000  0.75000  0.85700  1.0000
  O   O22       1.0  0.85200  0.04170  0.88800  1.0000
  O   O23       1.0  0.85200  0.45800  0.88800  1.0000
  O   O24       1.0  0.31500  0.25000  0.98200  1.0000
