data_image0
_chemical_formula_structural       Ge16Y20
_chemical_formula_sum              "Ge16 Y20"
_cell_length_a       7.66203
_cell_length_b       14.7339
_cell_length_c       7.73415
_cell_angle_alpha    90
_cell_angle_beta     90
_cell_angle_gamma    90

_space_group_name_H-M_alt    "P 1"
_space_group_IT_number       1

loop_
  _space_group_symop_operation_xyz
  'x, y, z'

loop_
  _atom_site_type_symbol
  _atom_site_label
  _atom_site_symmetry_multiplicity
  _atom_site_fract_x
  _atom_site_fract_y
  _atom_site_fract_z
  _atom_site_occupancy
  Ge  Ge1       1.0  0.72100  0.54400  0.03140  1.0000
  Ge  Ge2       1.0  0.72100  0.95600  0.03140  1.0000
  Ge  Ge3       1.0  0.08370  0.75000  0.11700  1.0000
  Ge  Ge4       1.0  0.66400  0.25000  0.13700  1.0000
  Ge  Ge5       1.0  0.16400  0.25000  0.36300  1.0000
  Ge  Ge6       1.0  0.58400  0.75000  0.38300  1.0000
  Ge  Ge7       1.0  0.22100  0.54400  0.46900  1.0000
  Ge  Ge8       1.0  0.22100  0.95600  0.46900  1.0000
  Ge  Ge9       1.0  0.77900  0.04440  0.53100  1.0000
  Ge  Ge10      1.0  0.77900  0.45600  0.53100  1.0000
  Ge  Ge11      1.0  0.41600  0.25000  0.61700  1.0000
  Ge  Ge12      1.0  0.83600  0.75000  0.63700  1.0000
  Ge  Ge13      1.0  0.33600  0.75000  0.86300  1.0000
  Ge  Ge14      1.0  0.91600  0.25000  0.88300  1.0000
  Ge  Ge15      1.0  0.27900  0.04440  0.96900  1.0000
  Ge  Ge16      1.0  0.27900  0.45600  0.96900  1.0000
  Y   Y1        1.0  0.71500  0.75000  0.00131  1.0000
  Y   Y2        1.0  0.38000  0.61700  0.16100  1.0000
  Y   Y3        1.0  0.38000  0.88300  0.16100  1.0000
  Y   Y4        1.0  0.97000  0.10100  0.17600  1.0000
  Y   Y5        1.0  0.97000  0.39900  0.17600  1.0000
  Y   Y6        1.0  0.47000  0.10100  0.32400  1.0000
  Y   Y7        1.0  0.47000  0.39900  0.32400  1.0000
  Y   Y8        1.0  0.88000  0.61700  0.33900  1.0000
  Y   Y9        1.0  0.88000  0.88300  0.33900  1.0000
  Y   Y10       1.0  0.21500  0.75000  0.49900  1.0000
  Y   Y11       1.0  0.78500  0.25000  0.50100  1.0000
  Y   Y12       1.0  0.12000  0.11700  0.66100  1.0000
  Y   Y13       1.0  0.12000  0.38300  0.66100  1.0000
  Y   Y14       1.0  0.53000  0.60100  0.67600  1.0000
  Y   Y15       1.0  0.53000  0.89900  0.67600  1.0000
  Y   Y16       1.0  0.03010  0.60100  0.82400  1.0000
  Y   Y17       1.0  0.03010  0.89900  0.82400  1.0000
  Y   Y18       1.0  0.62000  0.11700  0.83900  1.0000
  Y   Y19       1.0  0.62000  0.38300  0.83900  1.0000
  Y   Y20       1.0  0.28500  0.25000  0.99900  1.0000
