data_image0
_chemical_formula_structural       O4Rb20Tl12
_chemical_formula_sum              "O4 Rb20 Tl12"
_cell_length_a       8.806
_cell_length_b       9.2069
_cell_length_c       17.6876
_cell_angle_alpha    90
_cell_angle_beta     75.5857
_cell_angle_gamma    90

_space_group_name_H-M_alt    "P 1"
_space_group_IT_number       1

loop_
  _space_group_symop_operation_xyz
  'x, y, z'

loop_
  _atom_site_type_symbol
  _atom_site_label
  _atom_site_symmetry_multiplicity
  _atom_site_fract_x
  _atom_site_fract_y
  _atom_site_fract_z
  _atom_site_occupancy
  O   O1        1.0  0.49000  0.25000  0.02090  1.0000
  O   O2        1.0  0.32400  0.25000  0.35100  1.0000
  O   O3        1.0  0.67600  0.75000  0.64900  1.0000
  O   O4        1.0  0.51000  0.75000  0.97900  1.0000
  Rb  Rb1       1.0  0.19400  0.25000  0.01360  1.0000
  Rb  Rb2       1.0  0.79200  0.25000  0.01360  1.0000
  Rb  Rb3       1.0  0.44800  0.53400  0.10400  1.0000
  Rb  Rb4       1.0  0.44800  0.96600  0.10400  1.0000
  Rb  Rb5       1.0  0.11700  0.25000  0.25400  1.0000
  Rb  Rb6       1.0  0.62900  0.25000  0.25400  1.0000
  Rb  Rb7       1.0  0.32000  0.53600  0.36000  1.0000
  Rb  Rb8       1.0  0.32000  0.96400  0.36000  1.0000
  Rb  Rb9       1.0  0.04120  0.25000  0.46900  1.0000
  Rb  Rb10      1.0  0.49000  0.25000  0.46900  1.0000
  Rb  Rb11      1.0  0.51000  0.75000  0.53100  1.0000
  Rb  Rb12      1.0  0.95900  0.75000  0.53100  1.0000
  Rb  Rb13      1.0  0.68000  0.03630  0.64000  1.0000
  Rb  Rb14      1.0  0.68000  0.46400  0.64000  1.0000
  Rb  Rb15      1.0  0.37100  0.75000  0.74600  1.0000
  Rb  Rb16      1.0  0.88300  0.75000  0.74600  1.0000
  Rb  Rb17      1.0  0.55200  0.03450  0.89600  1.0000
  Rb  Rb18      1.0  0.55200  0.46600  0.89600  1.0000
  Rb  Rb19      1.0  0.20800  0.75000  0.98600  1.0000
  Rb  Rb20      1.0  0.80600  0.75000  0.98600  1.0000
  Tl  Tl1       1.0  0.92200  0.54400  0.15500  1.0000
  Tl  Tl2       1.0  0.92200  0.95600  0.15500  1.0000
  Tl  Tl3       1.0  0.07780  0.75000  0.25300  1.0000
  Tl  Tl4       1.0  0.66900  0.75000  0.25300  1.0000
  Tl  Tl5       1.0  0.81700  0.55900  0.36600  1.0000
  Tl  Tl6       1.0  0.81700  0.94100  0.36600  1.0000
  Tl  Tl7       1.0  0.18300  0.05850  0.63400  1.0000
  Tl  Tl8       1.0  0.18300  0.44100  0.63400  1.0000
  Tl  Tl9       1.0  0.33100  0.25000  0.74700  1.0000
  Tl  Tl10      1.0  0.92200  0.25000  0.74700  1.0000
  Tl  Tl11      1.0  0.07770  0.04440  0.84500  1.0000
  Tl  Tl12      1.0  0.07770  0.45600  0.84500  1.0000
