data_image0
_chemical_formula_structural       Li3MnO6Si
_chemical_formula_sum              "Li3 Mn1 O6 Si1"
_cell_length_a       4.80567
_cell_length_b       4.80567
_cell_length_c       4.93541
_cell_angle_alpha    99.6313
_cell_angle_beta     99.6313
_cell_angle_gamma    119.791

_space_group_name_H-M_alt    "P 1"
_space_group_IT_number       1

loop_
  _space_group_symop_operation_xyz
  'x, y, z'

loop_
  _atom_site_type_symbol
  _atom_site_label
  _atom_site_symmetry_multiplicity
  _atom_site_fract_x
  _atom_site_fract_y
  _atom_site_fract_z
  _atom_site_occupancy
  Li  Li1       1.0  0.35300  0.64700  0.50000  1.0000
  Li  Li2       1.0  0.99700  0.00340  0.50000  1.0000
  Li  Li3       1.0  0.65100  0.34900  0.50000  1.0000
  Mn  Mn1       1.0  0.83100  0.16900  0.00000  1.0000
  O   O1        1.0  0.95600  0.59200  0.22300  1.0000
  O   O2        1.0  0.21300  0.19700  0.22500  1.0000
  O   O3        1.0  0.56000  0.93900  0.22500  1.0000
  O   O4        1.0  0.06070  0.44000  0.77500  1.0000
  O   O5        1.0  0.80300  0.78700  0.77500  1.0000
  O   O6        1.0  0.40800  0.04370  0.77700  1.0000
  Si  Si1       1.0  0.16700  0.83300  0.00000  1.0000
