data_image0
_chemical_formula_structural       F16Na8O8W4
_chemical_formula_sum              "F16 Na8 O8 W4"
_cell_length_a       4.92224
_cell_length_b       17.8597
_cell_length_c       5.29073
_cell_angle_alpha    90
_cell_angle_beta     90
_cell_angle_gamma    90

_space_group_name_H-M_alt    "P 1"
_space_group_IT_number       1

loop_
  _space_group_symop_operation_xyz
  'x, y, z'

loop_
  _atom_site_type_symbol
  _atom_site_label
  _atom_site_symmetry_multiplicity
  _atom_site_fract_x
  _atom_site_fract_y
  _atom_site_fract_z
  _atom_site_occupancy
  F   F1        1.0  0.28300  0.37200  0.04820  1.0000
  F   F2        1.0  0.21700  0.87200  0.04820  1.0000
  F   F3        1.0  0.20800  0.19500  0.09980  1.0000
  F   F4        1.0  0.29200  0.69500  0.09980  1.0000
  F   F5        1.0  0.79200  0.19500  0.40000  1.0000
  F   F6        1.0  0.70800  0.69500  0.40000  1.0000
  F   F7        1.0  0.71700  0.37200  0.45200  1.0000
  F   F8        1.0  0.78300  0.87200  0.45200  1.0000
  F   F9        1.0  0.21700  0.12800  0.54800  1.0000
  F   F10       1.0  0.28300  0.62800  0.54800  1.0000
  F   F11       1.0  0.29200  0.30500  0.60000  1.0000
  F   F12       1.0  0.20800  0.80500  0.60000  1.0000
  F   F13       1.0  0.70800  0.30500  0.90000  1.0000
  F   F14       1.0  0.79200  0.80500  0.90000  1.0000
  F   F15       1.0  0.78300  0.12800  0.95200  1.0000
  F   F16       1.0  0.71700  0.62800  0.95200  1.0000
  Na  Na1       1.0  0.50000  0.27200  0.25000  1.0000
  Na  Na2       1.0  0.00000  0.44600  0.25000  1.0000
  Na  Na3       1.0  0.00000  0.77200  0.25000  1.0000
  Na  Na4       1.0  0.50000  0.94600  0.25000  1.0000
  Na  Na5       1.0  0.50000  0.05360  0.75000  1.0000
  Na  Na6       1.0  0.00000  0.22800  0.75000  1.0000
  Na  Na7       1.0  0.00000  0.55400  0.75000  1.0000
  Na  Na8       1.0  0.50000  0.72800  0.75000  1.0000
  O   O1        1.0  0.23300  0.04450  0.11000  1.0000
  O   O2        1.0  0.26700  0.54500  0.11000  1.0000
  O   O3        1.0  0.76700  0.04450  0.39000  1.0000
  O   O4        1.0  0.73300  0.54500  0.39000  1.0000
  O   O5        1.0  0.26700  0.45500  0.61000  1.0000
  O   O6        1.0  0.23300  0.95500  0.61000  1.0000
  O   O7        1.0  0.73300  0.45500  0.89000  1.0000
  O   O8        1.0  0.76700  0.95500  0.89000  1.0000
  W   W1        1.0  0.00000  0.10600  0.25000  1.0000
  W   W2        1.0  0.50000  0.60600  0.25000  1.0000
  W   W3        1.0  0.50000  0.39400  0.75000  1.0000
  W   W4        1.0  0.00000  0.89400  0.75000  1.0000
