data_image0
_chemical_formula_structural       Ga2K2O24P8
_chemical_formula_sum              "Ga2 K2 O24 P8"
_cell_length_a       5.08001
_cell_length_b       10.2978
_cell_length_c       10.2978
_cell_angle_alpha    72.2151
_cell_angle_beta     98.5656
_cell_angle_gamma    98.5656

_space_group_name_H-M_alt    "P 1"
_space_group_IT_number       1

loop_
  _space_group_symop_operation_xyz
  'x, y, z'

loop_
  _atom_site_type_symbol
  _atom_site_label
  _atom_site_symmetry_multiplicity
  _atom_site_fract_x
  _atom_site_fract_y
  _atom_site_fract_z
  _atom_site_occupancy
  Ga  Ga1       1.0  0.00000  0.50000  0.00000  1.0000
  Ga  Ga2       1.0  0.00000  0.00000  0.50000  1.0000
  K   K1        1.0  0.25400  0.40400  0.40400  1.0000
  K   K2        1.0  0.74600  0.59600  0.59600  1.0000
  O   O1        1.0  0.60400  0.70500  0.08270  1.0000
  O   O2        1.0  0.77400  0.33500  0.09440  1.0000
  O   O3        1.0  0.31500  0.40400  0.10000  1.0000
  O   O4        1.0  0.01430  0.57100  0.15300  1.0000
  O   O5        1.0  0.38500  0.15300  0.15300  1.0000
  O   O6        1.0  1.00000  0.78800  0.21200  1.0000
  O   O7        1.0  0.39600  0.91700  0.29500  1.0000
  O   O8        1.0  0.71200  0.56800  0.33200  1.0000
  O   O9        1.0  0.77400  0.09440  0.33500  1.0000
  O   O10       1.0  0.31500  0.10000  0.40400  1.0000
  O   O11       1.0  0.98600  0.84700  0.42900  1.0000
  O   O12       1.0  0.28800  0.66800  0.43200  1.0000
  O   O13       1.0  0.71200  0.33200  0.56800  1.0000
  O   O14       1.0  0.01430  0.15300  0.57100  1.0000
  O   O15       1.0  0.68500  0.90000  0.59600  1.0000
  O   O16       1.0  0.22600  0.90600  0.66500  1.0000
  O   O17       1.0  0.28800  0.43200  0.66800  1.0000
  O   O18       1.0  0.60400  0.08270  0.70500  1.0000
  O   O19       1.0  0.00000  0.21200  0.78800  1.0000
  O   O20       1.0  0.61500  0.84700  0.84700  1.0000
  O   O21       1.0  0.98600  0.42900  0.84700  1.0000
  O   O22       1.0  0.68500  0.59600  0.90000  1.0000
  O   O23       1.0  0.22600  0.66500  0.90600  1.0000
  O   O24       1.0  0.39600  0.29500  0.91700  1.0000
  P   P1        1.0  0.47500  0.30800  0.06820  1.0000
  P   P2        1.0  0.83200  0.64400  0.20400  1.0000
  P   P3        1.0  0.47500  0.06820  0.30800  1.0000
  P   P4        1.0  0.16800  0.79600  0.35600  1.0000
  P   P5        1.0  0.83200  0.20400  0.64400  1.0000
  P   P6        1.0  0.52500  0.93200  0.69200  1.0000
  P   P7        1.0  0.16800  0.35600  0.79600  1.0000
  P   P8        1.0  0.52500  0.69200  0.93200  1.0000
