data_image0
_chemical_formula_structural       As4Ce4Cl8Cs8S12
_chemical_formula_sum              "As4 Ce4 Cl8 Cs8 S12"
_cell_length_a       17.9822
_cell_length_b       6.71463
_cell_length_c       9.49873
_cell_angle_alpha    90
_cell_angle_beta     90
_cell_angle_gamma    90

_space_group_name_H-M_alt    "P 1"
_space_group_IT_number       1

loop_
  _space_group_symop_operation_xyz
  'x, y, z'

loop_
  _atom_site_type_symbol
  _atom_site_label
  _atom_site_symmetry_multiplicity
  _atom_site_fract_x
  _atom_site_fract_y
  _atom_site_fract_z
  _atom_site_occupancy
  As  As1       1.0  0.36400  0.25000  0.12300  1.0000
  As  As2       1.0  0.86400  0.25000  0.37700  1.0000
  As  As3       1.0  0.13600  0.75000  0.62300  1.0000
  As  As4       1.0  0.63600  0.75000  0.87700  1.0000
  Ce  Ce1       1.0  0.56000  0.25000  0.06910  1.0000
  Ce  Ce2       1.0  0.06020  0.25000  0.43100  1.0000
  Ce  Ce3       1.0  0.94000  0.75000  0.56900  1.0000
  Ce  Ce4       1.0  0.44000  0.75000  0.93100  1.0000
  Cl  Cl1       1.0  0.72000  0.25000  0.02950  1.0000
  Cl  Cl2       1.0  0.10600  0.25000  0.13900  1.0000
  Cl  Cl3       1.0  0.60600  0.25000  0.36100  1.0000
  Cl  Cl4       1.0  0.22000  0.25000  0.47000  1.0000
  Cl  Cl5       1.0  0.78000  0.75000  0.53000  1.0000
  Cl  Cl6       1.0  0.39400  0.75000  0.63900  1.0000
  Cl  Cl7       1.0  0.89400  0.75000  0.86100  1.0000
  Cl  Cl8       1.0  0.28000  0.75000  0.97000  1.0000
  Cs  Cs1       1.0  0.07230  0.75000  0.04020  1.0000
  Cs  Cs2       1.0  0.78100  0.75000  0.16200  1.0000
  Cs  Cs3       1.0  0.28100  0.75000  0.33800  1.0000
  Cs  Cs4       1.0  0.57200  0.75000  0.46000  1.0000
  Cs  Cs5       1.0  0.42800  0.25000  0.54000  1.0000
  Cs  Cs6       1.0  0.71900  0.25000  0.66200  1.0000
  Cs  Cs7       1.0  0.21900  0.25000  0.83800  1.0000
  Cs  Cs8       1.0  0.92800  0.25000  0.96000  1.0000
  S   S1        1.0  0.59200  0.75000  0.09940  1.0000
  S   S2        1.0  0.43900  0.50400  0.19600  1.0000
  S   S3        1.0  0.43900  0.99600  0.19600  1.0000
  S   S4        1.0  0.93900  0.50400  0.30400  1.0000
  S   S5        1.0  0.93900  0.99600  0.30400  1.0000
  S   S6        1.0  0.09170  0.75000  0.40100  1.0000
  S   S7        1.0  0.90800  0.25000  0.59900  1.0000
  S   S8        1.0  0.06130  0.00354  0.69600  1.0000
  S   S9        1.0  0.06130  0.49600  0.69600  1.0000
  S   S10       1.0  0.56100  0.00354  0.80400  1.0000
  S   S11       1.0  0.56100  0.49600  0.80400  1.0000
  S   S12       1.0  0.40800  0.25000  0.90100  1.0000
