data_image0
_chemical_formula_structural       H20Na4O10S2
_chemical_formula_sum              "H20 Na4 O10 S2"
_cell_length_a       6.30205
_cell_length_b       6.88541
_cell_length_c       8.47548
_cell_angle_alpha    90
_cell_angle_beta     90
_cell_angle_gamma    62.7652

_space_group_name_H-M_alt    "P 1"
_space_group_IT_number       1

loop_
  _space_group_symop_operation_xyz
  'x, y, z'

loop_
  _atom_site_type_symbol
  _atom_site_label
  _atom_site_symmetry_multiplicity
  _atom_site_fract_x
  _atom_site_fract_y
  _atom_site_fract_z
  _atom_site_occupancy
  H   H1        1.0  0.18100  0.30000  0.02440  1.0000
  H   H2        1.0  0.51800  0.30000  0.02440  1.0000
  H   H3        1.0  0.37300  0.62800  0.12200  1.0000
  H   H4        1.0  0.99900  0.62800  0.12200  1.0000
  H   H5        1.0  0.73300  0.28100  0.25000  1.0000
  H   H6        1.0  0.98600  0.28100  0.25000  1.0000
  H   H7        1.0  0.37300  0.62800  0.37800  1.0000
  H   H8        1.0  0.99900  0.62800  0.37800  1.0000
  H   H9        1.0  0.18100  0.30000  0.47600  1.0000
  H   H10       1.0  0.51800  0.30000  0.47600  1.0000
  H   H11       1.0  0.48200  0.70000  0.52400  1.0000
  H   H12       1.0  0.81900  0.70000  0.52400  1.0000
  H   H13       1.0  0.00095  0.37200  0.62200  1.0000
  H   H14       1.0  0.62700  0.37200  0.62200  1.0000
  H   H15       1.0  0.01380  0.71900  0.75000  1.0000
  H   H16       1.0  0.26700  0.71900  0.75000  1.0000
  H   H17       1.0  0.00095  0.37200  0.87800  1.0000
  H   H18       1.0  0.62700  0.37200  0.87800  1.0000
  H   H19       1.0  0.48200  0.70000  0.97600  1.0000
  H   H20       1.0  0.81900  0.70000  0.97600  1.0000
  Na  Na1       1.0  0.00000  0.00000  0.00000  1.0000
  Na  Na2       1.0  0.54200  0.91600  0.25000  1.0000
  Na  Na3       1.0  0.00000  0.00000  0.50000  1.0000
  Na  Na4       1.0  0.45800  0.08380  0.75000  1.0000
  O   O1        1.0  0.38500  0.75400  0.07310  1.0000
  O   O2        1.0  0.86100  0.75400  0.07310  1.0000
  O   O3        1.0  0.90700  0.18600  0.25000  1.0000
  O   O4        1.0  0.38500  0.75400  0.42700  1.0000
  O   O5        1.0  0.86100  0.75400  0.42700  1.0000
  O   O6        1.0  0.13900  0.24600  0.57300  1.0000
  O   O7        1.0  0.61500  0.24600  0.57300  1.0000
  O   O8        1.0  0.09280  0.81400  0.75000  1.0000
  O   O9        1.0  0.13900  0.24600  0.92700  1.0000
  O   O10       1.0  0.61500  0.24600  0.92700  1.0000
  S   S1        1.0  0.31100  0.37900  0.25000  1.0000
  S   S2        1.0  0.68900  0.62100  0.75000  1.0000
