data_image0
_chemical_formula_structural       Ba10Br4O18Ru4
_chemical_formula_sum              "Ba10 Br4 O18 Ru4"
_cell_length_a       5.84645
_cell_length_b       5.84645
_cell_length_c       25.5913
_cell_angle_alpha    90
_cell_angle_beta     90
_cell_angle_gamma    120

_space_group_name_H-M_alt    "P 1"
_space_group_IT_number       1

loop_
  _space_group_symop_operation_xyz
  'x, y, z'

loop_
  _atom_site_type_symbol
  _atom_site_label
  _atom_site_symmetry_multiplicity
  _atom_site_fract_x
  _atom_site_fract_y
  _atom_site_fract_z
  _atom_site_occupancy
  Ba  Ba1       1.0  0.66700  0.33300  0.08430  1.0000
  Ba  Ba2       1.0  0.33300  0.66700  0.17200  1.0000
  Ba  Ba3       1.0  0.66700  0.33300  0.25000  1.0000
  Ba  Ba4       1.0  0.33300  0.66700  0.32800  1.0000
  Ba  Ba5       1.0  0.66700  0.33300  0.41600  1.0000
  Ba  Ba6       1.0  0.33300  0.66700  0.58400  1.0000
  Ba  Ba7       1.0  0.66700  0.33300  0.67200  1.0000
  Ba  Ba8       1.0  0.33300  0.66700  0.75000  1.0000
  Ba  Ba9       1.0  0.66700  0.33300  0.82800  1.0000
  Ba  Ba10      1.0  0.33300  0.66700  0.91600  1.0000
  Br  Br1       1.0  0.33300  0.66700  0.04520  1.0000
  Br  Br2       1.0  0.33300  0.66700  0.45500  1.0000
  Br  Br3       1.0  0.66700  0.33300  0.54500  1.0000
  Br  Br4       1.0  0.66700  0.33300  0.95500  1.0000
  O   O1        1.0  0.32300  0.16100  0.15700  1.0000
  O   O2        1.0  0.83900  0.16100  0.15700  1.0000
  O   O3        1.0  0.83900  0.67700  0.15700  1.0000
  O   O4        1.0  0.15200  0.30400  0.25000  1.0000
  O   O5        1.0  0.15200  0.84800  0.25000  1.0000
  O   O6        1.0  0.69600  0.84800  0.25000  1.0000
  O   O7        1.0  0.32300  0.16100  0.34300  1.0000
  O   O8        1.0  0.83900  0.16100  0.34300  1.0000
  O   O9        1.0  0.83900  0.67700  0.34300  1.0000
  O   O10       1.0  0.16100  0.32300  0.65700  1.0000
  O   O11       1.0  0.16100  0.83900  0.65700  1.0000
  O   O12       1.0  0.67700  0.83900  0.65700  1.0000
  O   O13       1.0  0.30400  0.15200  0.75000  1.0000
  O   O14       1.0  0.84800  0.15200  0.75000  1.0000
  O   O15       1.0  0.84800  0.69600  0.75000  1.0000
  O   O16       1.0  0.16100  0.32300  0.84300  1.0000
  O   O17       1.0  0.16100  0.83900  0.84300  1.0000
  O   O18       1.0  0.67700  0.83900  0.84300  1.0000
  Ru  Ru1       1.0  0.00000  0.00000  0.19500  1.0000
  Ru  Ru2       1.0  0.00000  0.00000  0.30500  1.0000
  Ru  Ru3       1.0  0.00000  0.00000  0.69500  1.0000
  Ru  Ru4       1.0  0.00000  0.00000  0.80500  1.0000
