data_image0
_chemical_formula_structural       Al2K2O24P8
_chemical_formula_sum              "Al2 K2 O24 P8"
_cell_length_a       5.02337
_cell_length_b       10.2283
_cell_length_c       10.2283
_cell_angle_alpha    72.4447
_cell_angle_beta     98.1342
_cell_angle_gamma    98.1342

_space_group_name_H-M_alt    "P 1"
_space_group_IT_number       1

loop_
  _space_group_symop_operation_xyz
  'x, y, z'

loop_
  _atom_site_type_symbol
  _atom_site_label
  _atom_site_symmetry_multiplicity
  _atom_site_fract_x
  _atom_site_fract_y
  _atom_site_fract_z
  _atom_site_occupancy
  Al  Al1       1.0  0.00000  0.50000  0.00000  1.0000
  Al  Al2       1.0  0.00000  0.00000  0.50000  1.0000
  K   K1        1.0  0.24800  0.40400  0.40400  1.0000
  K   K2        1.0  0.75200  0.59600  0.59600  1.0000
  O   O1        1.0  0.59800  0.70700  0.08170  1.0000
  O   O2        1.0  0.77500  0.34400  0.09410  1.0000
  O   O3        1.0  0.30200  0.40600  0.09640  1.0000
  O   O4        1.0  0.01340  0.57400  0.14500  1.0000
  O   O5        1.0  0.39200  0.15600  0.15600  1.0000
  O   O6        1.0  0.00000  0.78900  0.21100  1.0000
  O   O7        1.0  0.40200  0.91800  0.29300  1.0000
  O   O8        1.0  0.71400  0.56700  0.33000  1.0000
  O   O9        1.0  0.77500  0.09410  0.34400  1.0000
  O   O10       1.0  0.30200  0.09640  0.40600  1.0000
  O   O11       1.0  0.98700  0.85500  0.42600  1.0000
  O   O12       1.0  0.28600  0.67000  0.43300  1.0000
  O   O13       1.0  0.71400  0.33000  0.56700  1.0000
  O   O14       1.0  0.01340  0.14500  0.57400  1.0000
  O   O15       1.0  0.69800  0.90400  0.59400  1.0000
  O   O16       1.0  0.22500  0.90600  0.65600  1.0000
  O   O17       1.0  0.28600  0.43300  0.67000  1.0000
  O   O18       1.0  0.59800  0.08170  0.70700  1.0000
  O   O19       1.0  0.00000  0.21100  0.78900  1.0000
  O   O20       1.0  0.60800  0.84400  0.84400  1.0000
  O   O21       1.0  0.98700  0.42600  0.85500  1.0000
  O   O22       1.0  0.69800  0.59400  0.90400  1.0000
  O   O23       1.0  0.22500  0.65600  0.90600  1.0000
  O   O24       1.0  0.40200  0.29300  0.91800  1.0000
  P   P1        1.0  0.47600  0.31100  0.06850  1.0000
  P   P2        1.0  0.83200  0.64500  0.20100  1.0000
  P   P3        1.0  0.47600  0.06850  0.31100  1.0000
  P   P4        1.0  0.16800  0.79900  0.35500  1.0000
  P   P5        1.0  0.83200  0.20100  0.64500  1.0000
  P   P6        1.0  0.52400  0.93200  0.68900  1.0000
  P   P7        1.0  0.16800  0.35500  0.79900  1.0000
  P   P8        1.0  0.52400  0.68900  0.93200  1.0000
