data_image0
_chemical_formula_structural       Br20Pb4Tl12
_chemical_formula_sum              "Br20 Pb4 Tl12"
_cell_length_a       8.87977
_cell_length_b       8.87977
_cell_length_c       15.4572
_cell_angle_alpha    90
_cell_angle_beta     90
_cell_angle_gamma    90

_space_group_name_H-M_alt    "P 1"
_space_group_IT_number       1

loop_
  _space_group_symop_operation_xyz
  'x, y, z'

loop_
  _atom_site_type_symbol
  _atom_site_label
  _atom_site_symmetry_multiplicity
  _atom_site_fract_x
  _atom_site_fract_y
  _atom_site_fract_z
  _atom_site_occupancy
  Br  Br1       1.0  0.48400  0.35900  0.00493  1.0000
  Br  Br2       1.0  0.01610  0.32900  0.10000  1.0000
  Br  Br3       1.0  0.49400  0.80000  0.10300  1.0000
  Br  Br4       1.0  0.02480  0.82700  0.20600  1.0000
  Br  Br5       1.0  0.35200  0.17400  0.22500  1.0000
  Br  Br6       1.0  0.64100  0.48400  0.25500  1.0000
  Br  Br7       1.0  0.67100  0.01610  0.35000  1.0000
  Br  Br8       1.0  0.20000  0.49400  0.35300  1.0000
  Br  Br9       1.0  0.17300  0.02480  0.45600  1.0000
  Br  Br10      1.0  0.82600  0.35200  0.47500  1.0000
  Br  Br11      1.0  0.51600  0.64100  0.50500  1.0000
  Br  Br12      1.0  0.98400  0.67100  0.60000  1.0000
  Br  Br13      1.0  0.50600  0.20000  0.60300  1.0000
  Br  Br14      1.0  0.97500  0.17300  0.70600  1.0000
  Br  Br15      1.0  0.64800  0.82600  0.72500  1.0000
  Br  Br16      1.0  0.35900  0.51600  0.75500  1.0000
  Br  Br17      1.0  0.32900  0.98400  0.85000  1.0000
  Br  Br18      1.0  0.80000  0.50600  0.85300  1.0000
  Br  Br19      1.0  0.82700  0.97500  0.95600  1.0000
  Br  Br20      1.0  0.17400  0.64800  0.97500  1.0000
  Pb  Pb1       1.0  0.30600  0.48600  0.14600  1.0000
  Pb  Pb2       1.0  0.51400  0.30600  0.39600  1.0000
  Pb  Pb3       1.0  0.69400  0.51400  0.64600  1.0000
  Pb  Pb4       1.0  0.48600  0.69400  0.89600  1.0000
  Tl  Tl1       1.0  0.18800  0.99700  0.05320  1.0000
  Tl  Tl2       1.0  0.82500  0.63900  0.06840  1.0000
  Tl  Tl3       1.0  0.68400  0.12000  0.13100  1.0000
  Tl  Tl4       1.0  0.00271  0.18800  0.30300  1.0000
  Tl  Tl5       1.0  0.36100  0.82500  0.31800  1.0000
  Tl  Tl6       1.0  0.88000  0.68400  0.38100  1.0000
  Tl  Tl7       1.0  0.81200  0.00271  0.55300  1.0000
  Tl  Tl8       1.0  0.17500  0.36100  0.56800  1.0000
  Tl  Tl9       1.0  0.31600  0.88000  0.63100  1.0000
  Tl  Tl10      1.0  0.99700  0.81200  0.80300  1.0000
  Tl  Tl11      1.0  0.63900  0.17500  0.81800  1.0000
  Tl  Tl12      1.0  0.12000  0.31600  0.88100  1.0000
