data_image0
_chemical_formula_structural       Bi12Cs4S20
_chemical_formula_sum              "Bi12 Cs4 S20"
_cell_length_a       4.11227
_cell_length_b       12.1949
_cell_length_c       21.4098
_cell_angle_alpha    90
_cell_angle_beta     90
_cell_angle_gamma    90

_space_group_name_H-M_alt    "P 1"
_space_group_IT_number       1

loop_
  _space_group_symop_operation_xyz
  'x, y, z'

loop_
  _atom_site_type_symbol
  _atom_site_label
  _atom_site_symmetry_multiplicity
  _atom_site_fract_x
  _atom_site_fract_y
  _atom_site_fract_z
  _atom_site_occupancy
  Bi  Bi1       1.0  0.25000  0.33300  0.02610  1.0000
  Bi  Bi2       1.0  0.25000  0.63000  0.14600  1.0000
  Bi  Bi3       1.0  0.75000  0.35300  0.19200  1.0000
  Bi  Bi4       1.0  0.75000  0.85300  0.30800  1.0000
  Bi  Bi5       1.0  0.25000  0.13000  0.35400  1.0000
  Bi  Bi6       1.0  0.25000  0.83300  0.47400  1.0000
  Bi  Bi7       1.0  0.75000  0.16700  0.52600  1.0000
  Bi  Bi8       1.0  0.75000  0.87000  0.64600  1.0000
  Bi  Bi9       1.0  0.25000  0.14700  0.69200  1.0000
  Bi  Bi10      1.0  0.25000  0.64700  0.80800  1.0000
  Bi  Bi11      1.0  0.75000  0.37000  0.85400  1.0000
  Bi  Bi12      1.0  0.75000  0.66700  0.97400  1.0000
  Cs  Cs1       1.0  0.75000  0.99500  0.11100  1.0000
  Cs  Cs2       1.0  0.75000  0.49500  0.38900  1.0000
  Cs  Cs3       1.0  0.25000  0.50500  0.61100  1.0000
  Cs  Cs4       1.0  0.25000  0.00455  0.88900  1.0000
  S   S1        1.0  0.25000  0.78400  0.02660  1.0000
  S   S2        1.0  0.75000  0.48900  0.08250  1.0000
  S   S3        1.0  0.25000  0.22500  0.13200  1.0000
  S   S4        1.0  0.75000  0.75100  0.19100  1.0000
  S   S5        1.0  0.25000  0.48700  0.24000  1.0000
  S   S6        1.0  0.25000  0.98700  0.26000  1.0000
  S   S7        1.0  0.75000  0.25100  0.30900  1.0000
  S   S8        1.0  0.25000  0.72500  0.36800  1.0000
  S   S9        1.0  0.75000  0.98900  0.41800  1.0000
  S   S10       1.0  0.25000  0.28300  0.47300  1.0000
  S   S11       1.0  0.75000  0.71700  0.52700  1.0000
  S   S12       1.0  0.25000  0.01140  0.58200  1.0000
  S   S13       1.0  0.75000  0.27500  0.63200  1.0000
  S   S14       1.0  0.25000  0.74900  0.69100  1.0000
  S   S15       1.0  0.75000  0.01340  0.74000  1.0000
  S   S16       1.0  0.75000  0.51300  0.76000  1.0000
  S   S17       1.0  0.25000  0.24900  0.80900  1.0000
  S   S18       1.0  0.75000  0.77500  0.86800  1.0000
  S   S19       1.0  0.25000  0.51100  0.91800  1.0000
  S   S20       1.0  0.75000  0.21600  0.97300  1.0000
