data_image0
_chemical_formula_structural       Ce8Cu4In4Se20
_chemical_formula_sum              "Ce8 Cu4 In4 Se20"
_cell_length_a       12.2355
_cell_length_b       4.12182
_cell_length_c       17.6466
_cell_angle_alpha    90
_cell_angle_beta     90
_cell_angle_gamma    90

_space_group_name_H-M_alt    "P 1"
_space_group_IT_number       1

loop_
  _space_group_symop_operation_xyz
  'x, y, z'

loop_
  _atom_site_type_symbol
  _atom_site_label
  _atom_site_symmetry_multiplicity
  _atom_site_fract_x
  _atom_site_fract_y
  _atom_site_fract_z
  _atom_site_occupancy
  Ce  Ce1       1.0  0.36400  0.75000  0.09390  1.0000
  Ce  Ce2       1.0  0.02170  0.75000  0.17900  1.0000
  Ce  Ce3       1.0  0.52200  0.75000  0.32100  1.0000
  Ce  Ce4       1.0  0.86400  0.75000  0.40600  1.0000
  Ce  Ce5       1.0  0.13600  0.25000  0.59400  1.0000
  Ce  Ce6       1.0  0.47800  0.25000  0.67900  1.0000
  Ce  Ce7       1.0  0.97800  0.25000  0.82100  1.0000
  Ce  Ce8       1.0  0.63600  0.25000  0.90600  1.0000
  Cu  Cu1       1.0  0.92500  0.75000  0.00365  1.0000
  Cu  Cu2       1.0  0.42500  0.75000  0.49600  1.0000
  Cu  Cu3       1.0  0.57500  0.25000  0.50400  1.0000
  Cu  Cu4       1.0  0.07530  0.25000  0.99600  1.0000
  In  In1       1.0  0.69200  0.25000  0.13900  1.0000
  In  In2       1.0  0.19200  0.25000  0.36100  1.0000
  In  In3       1.0  0.80800  0.75000  0.63900  1.0000
  In  In4       1.0  0.30800  0.75000  0.86100  1.0000
  Se  Se1       1.0  0.60800  0.75000  0.03700  1.0000
  Se  Se2       1.0  0.90000  0.25000  0.07810  1.0000
  Se  Se3       1.0  0.18100  0.25000  0.11200  1.0000
  Se  Se4       1.0  0.48600  0.25000  0.19400  1.0000
  Se  Se5       1.0  0.76000  0.75000  0.23000  1.0000
  Se  Se6       1.0  0.26000  0.75000  0.27000  1.0000
  Se  Se7       1.0  0.98600  0.25000  0.30600  1.0000
  Se  Se8       1.0  0.68100  0.25000  0.38800  1.0000
  Se  Se9       1.0  0.40000  0.25000  0.42200  1.0000
  Se  Se10      1.0  0.10800  0.75000  0.46300  1.0000
  Se  Se11      1.0  0.89200  0.25000  0.53700  1.0000
  Se  Se12      1.0  0.60000  0.75000  0.57800  1.0000
  Se  Se13      1.0  0.31900  0.75000  0.61200  1.0000
  Se  Se14      1.0  0.01410  0.75000  0.69400  1.0000
  Se  Se15      1.0  0.74000  0.25000  0.73000  1.0000
  Se  Se16      1.0  0.24000  0.25000  0.77000  1.0000
  Se  Se17      1.0  0.51400  0.75000  0.80600  1.0000
  Se  Se18      1.0  0.81900  0.75000  0.88800  1.0000
  Se  Se19      1.0  0.10000  0.75000  0.92200  1.0000
  Se  Se20      1.0  0.39200  0.25000  0.96300  1.0000
