data_image0
_chemical_formula_structural       Cl4F20K8Te4
_chemical_formula_sum              "Cl4 F20 K8 Te4"
_cell_length_a       4.39672
_cell_length_b       10.241
_cell_length_c       14.1806
_cell_angle_alpha    90
_cell_angle_beta     90.1623
_cell_angle_gamma    90

_space_group_name_H-M_alt    "P 1"
_space_group_IT_number       1

loop_
  _space_group_symop_operation_xyz
  'x, y, z'

loop_
  _atom_site_type_symbol
  _atom_site_label
  _atom_site_symmetry_multiplicity
  _atom_site_fract_x
  _atom_site_fract_y
  _atom_site_fract_z
  _atom_site_occupancy
  Cl  Cl1       1.0  0.26500  0.13100  0.10500  1.0000
  Cl  Cl2       1.0  0.23500  0.63100  0.39500  1.0000
  Cl  Cl3       1.0  0.76500  0.36900  0.60500  1.0000
  Cl  Cl4       1.0  0.73500  0.86900  0.89500  1.0000
  F   F1        1.0  0.22000  0.49500  0.08850  1.0000
  F   F2        1.0  0.67400  0.64000  0.09210  1.0000
  F   F3        1.0  0.22400  0.78400  0.09780  1.0000
  F   F4        1.0  0.61900  0.49200  0.23100  1.0000
  F   F5        1.0  0.63100  0.75900  0.24500  1.0000
  F   F6        1.0  0.86900  0.25900  0.25500  1.0000
  F   F7        1.0  0.88100  0.99200  0.26900  1.0000
  F   F8        1.0  0.27600  0.28400  0.40200  1.0000
  F   F9        1.0  0.82600  0.14000  0.40800  1.0000
  F   F10       1.0  0.28000  0.99500  0.41100  1.0000
  F   F11       1.0  0.72000  0.00471  0.58900  1.0000
  F   F12       1.0  0.17400  0.86000  0.59200  1.0000
  F   F13       1.0  0.72400  0.71600  0.59800  1.0000
  F   F14       1.0  0.11900  0.00803  0.73100  1.0000
  F   F15       1.0  0.13100  0.74100  0.74500  1.0000
  F   F16       1.0  0.36900  0.24100  0.75500  1.0000
  F   F17       1.0  0.38100  0.50800  0.76900  1.0000
  F   F18       1.0  0.77600  0.21600  0.90200  1.0000
  F   F19       1.0  0.32600  0.36000  0.90800  1.0000
  F   F20       1.0  0.78000  0.50500  0.91100  1.0000
  K   K1        1.0  0.74900  0.34300  0.07490  1.0000
  K   K2        1.0  0.74400  0.92500  0.10100  1.0000
  K   K3        1.0  0.75600  0.42500  0.39900  1.0000
  K   K4        1.0  0.75100  0.84300  0.42500  1.0000
  K   K5        1.0  0.24900  0.15700  0.57500  1.0000
  K   K6        1.0  0.24400  0.57500  0.60100  1.0000
  K   K7        1.0  0.25600  0.07530  0.89900  1.0000
  K   K8        1.0  0.25100  0.65700  0.92500  1.0000
  Te  Te1       1.0  0.34700  0.63200  0.18500  1.0000
  Te  Te2       1.0  0.15300  0.13200  0.31500  1.0000
  Te  Te3       1.0  0.84700  0.86800  0.68500  1.0000
  Te  Te4       1.0  0.65300  0.36800  0.81500  1.0000
