data_image0
_chemical_formula_structural       B2C4F8H12N10
_chemical_formula_sum              "B2 C4 F8 H12 N10"
_cell_length_a       4.93538
_cell_length_b       7.22205
_cell_length_c       8.72262
_cell_angle_alpha    75.0405
_cell_angle_beta     82.2623
_cell_angle_gamma    82.3126

_space_group_name_H-M_alt    "P 1"
_space_group_IT_number       1

loop_
  _space_group_symop_operation_xyz
  'x, y, z'

loop_
  _atom_site_type_symbol
  _atom_site_label
  _atom_site_symmetry_multiplicity
  _atom_site_fract_x
  _atom_site_fract_y
  _atom_site_fract_z
  _atom_site_occupancy
  B   B1        1.0  0.88800  0.87100  0.30500  1.0000
  B   B2        1.0  0.11200  0.12900  0.69500  1.0000
  C   C1        1.0  0.28300  0.56900  0.11200  1.0000
  C   C2        1.0  0.50200  0.39300  0.31300  1.0000
  C   C3        1.0  0.49800  0.60700  0.68700  1.0000
  C   C4        1.0  0.71700  0.43100  0.88800  1.0000
  F   F1        1.0  0.73100  0.89900  0.17400  1.0000
  F   F2        1.0  0.13700  0.95200  0.25500  1.0000
  F   F3        1.0  0.93700  0.67100  0.37200  1.0000
  F   F4        1.0  0.73400  0.95700  0.42100  1.0000
  F   F5        1.0  0.26600  0.04320  0.57900  1.0000
  F   F6        1.0  0.06270  0.32900  0.62800  1.0000
  F   F7        1.0  0.86300  0.04790  0.74500  1.0000
  F   F8        1.0  0.26900  0.10100  0.82600  1.0000
  H   H1        1.0  0.73500  0.14800  0.01300  1.0000
  H   H2        1.0  0.94900  0.29700  0.06580  1.0000
  H   H3        1.0  0.58400  0.68400  0.20500  1.0000
  H   H4        1.0  0.29600  0.15200  0.32000  1.0000
  H   H5        1.0  0.80300  0.42500  0.43700  1.0000
  H   H6        1.0  0.69600  0.19500  0.48100  1.0000
  H   H7        1.0  0.30400  0.80500  0.51900  1.0000
  H   H8        1.0  0.19700  0.57500  0.56300  1.0000
  H   H9        1.0  0.70400  0.84800  0.68000  1.0000
  H   H10       1.0  0.41600  0.31600  0.79500  1.0000
  H   H11       1.0  0.05120  0.70300  0.93400  1.0000
  H   H12       1.0  0.26500  0.85200  0.98700  1.0000
  N   N1        1.0  0.78900  0.28100  0.00602  1.0000
  N   N2        1.0  0.18700  0.39900  0.14800  1.0000
  N   N3        1.0  0.47800  0.57000  0.21000  1.0000
  N   N4        1.0  0.32400  0.29300  0.27500  1.0000
  N   N5        1.0  0.66100  0.33800  0.43200  1.0000
  N   N6        1.0  0.33900  0.66200  0.56800  1.0000
  N   N7        1.0  0.67600  0.70700  0.72500  1.0000
  N   N8        1.0  0.52200  0.43000  0.79000  1.0000
  N   N9        1.0  0.81300  0.60100  0.85200  1.0000
  N   N10       1.0  0.21100  0.71900  0.99400  1.0000
