data_image0
_chemical_formula_structural       Ba12Ge4Mg4N16
_chemical_formula_sum              "Ba12 Ge4 Mg4 N16"
_cell_length_a       6.24267
_cell_length_b       10.6181
_cell_length_c       10.1331
_cell_angle_alpha    90
_cell_angle_beta     90
_cell_angle_gamma    90

_space_group_name_H-M_alt    "P 1"
_space_group_IT_number       1

loop_
  _space_group_symop_operation_xyz
  'x, y, z'

loop_
  _atom_site_type_symbol
  _atom_site_label
  _atom_site_symmetry_multiplicity
  _atom_site_fract_x
  _atom_site_fract_y
  _atom_site_fract_z
  _atom_site_occupancy
  Ba  Ba1       1.0  0.61600  0.15600  0.08950  1.0000
  Ba  Ba2       1.0  0.88400  0.84400  0.08950  1.0000
  Ba  Ba3       1.0  0.75000  0.50000  0.09160  1.0000
  Ba  Ba4       1.0  0.75000  0.00000  0.40800  1.0000
  Ba  Ba5       1.0  0.61600  0.34400  0.41000  1.0000
  Ba  Ba6       1.0  0.88400  0.65600  0.41000  1.0000
  Ba  Ba7       1.0  0.11600  0.34400  0.59000  1.0000
  Ba  Ba8       1.0  0.38400  0.65600  0.59000  1.0000
  Ba  Ba9       1.0  0.25000  0.00000  0.59200  1.0000
  Ba  Ba10      1.0  0.25000  0.50000  0.90800  1.0000
  Ba  Ba11      1.0  0.11600  0.15600  0.91000  1.0000
  Ba  Ba12      1.0  0.38400  0.84400  0.91000  1.0000
  Ge  Ge1       1.0  0.25000  0.50000  0.23300  1.0000
  Ge  Ge2       1.0  0.25000  0.00000  0.26700  1.0000
  Ge  Ge3       1.0  0.75000  0.00000  0.73300  1.0000
  Ge  Ge4       1.0  0.75000  0.50000  0.76700  1.0000
  Mg  Mg1       1.0  0.16100  0.25000  0.25000  1.0000
  Mg  Mg2       1.0  0.33900  0.75000  0.25000  1.0000
  Mg  Mg3       1.0  0.66100  0.25000  0.75000  1.0000
  Mg  Mg4       1.0  0.83900  0.75000  0.75000  1.0000
  N   N1        1.0  0.36800  0.36400  0.13200  1.0000
  N   N2        1.0  0.13200  0.63600  0.13200  1.0000
  N   N3        1.0  0.02600  0.08420  0.16700  1.0000
  N   N4        1.0  0.47400  0.91600  0.16700  1.0000
  N   N5        1.0  0.02600  0.41600  0.33300  1.0000
  N   N6        1.0  0.47400  0.58400  0.33300  1.0000
  N   N7        1.0  0.36800  0.13600  0.36800  1.0000
  N   N8        1.0  0.13200  0.86400  0.36800  1.0000
  N   N9        1.0  0.86800  0.13600  0.63200  1.0000
  N   N10       1.0  0.63200  0.86400  0.63200  1.0000
  N   N11       1.0  0.52600  0.41600  0.66700  1.0000
  N   N12       1.0  0.97400  0.58400  0.66700  1.0000
  N   N13       1.0  0.52600  0.08420  0.83300  1.0000
  N   N14       1.0  0.97400  0.91600  0.83300  1.0000
  N   N15       1.0  0.86800  0.36400  0.86800  1.0000
  N   N16       1.0  0.63200  0.63600  0.86800  1.0000
