data_image0
_chemical_formula_structural       Mo4Na2O24P6
_chemical_formula_sum              "Mo4 Na2 O24 P6"
_cell_length_a       8.66654
_cell_length_b       8.66654
_cell_length_c       8.8568
_cell_angle_alpha    119.292
_cell_angle_beta     119.292
_cell_angle_gamma    60

_space_group_name_H-M_alt    "P 1"
_space_group_IT_number       1

loop_
  _space_group_symop_operation_xyz
  'x, y, z'

loop_
  _atom_site_type_symbol
  _atom_site_label
  _atom_site_symmetry_multiplicity
  _atom_site_fract_x
  _atom_site_fract_y
  _atom_site_fract_z
  _atom_site_occupancy
  Mo  Mo1       1.0  0.35700  0.35700  0.07220  1.0000
  Mo  Mo2       1.0  0.14300  0.14300  0.42800  1.0000
  Mo  Mo3       1.0  0.85700  0.85700  0.57200  1.0000
  Mo  Mo4       1.0  0.64300  0.64300  0.92800  1.0000
  Na  Na1       1.0  0.00000  0.00000  0.00000  1.0000
  Na  Na2       1.0  0.50000  0.50000  0.50000  1.0000
  O   O1        1.0  0.87700  0.49200  0.07520  1.0000
  O   O2        1.0  0.49200  0.70600  0.07520  1.0000
  O   O3        1.0  0.70600  0.87700  0.07520  1.0000
  O   O4        1.0  0.58300  0.22500  0.24800  1.0000
  O   O5        1.0  0.22500  0.44000  0.24800  1.0000
  O   O6        1.0  0.44000  0.58300  0.24800  1.0000
  O   O7        1.0  0.91700  0.05990  0.25200  1.0000
  O   O8        1.0  0.05990  0.27500  0.25200  1.0000
  O   O9        1.0  0.27500  0.91700  0.25200  1.0000
  O   O10       1.0  0.79400  0.00819  0.42500  1.0000
  O   O11       1.0  0.00819  0.62300  0.42500  1.0000
  O   O12       1.0  0.62300  0.79400  0.42500  1.0000
  O   O13       1.0  0.37700  0.20600  0.57500  1.0000
  O   O14       1.0  0.99200  0.37700  0.57500  1.0000
  O   O15       1.0  0.20600  0.99200  0.57500  1.0000
  O   O16       1.0  0.72500  0.08270  0.74800  1.0000
  O   O17       1.0  0.94000  0.72500  0.74800  1.0000
  O   O18       1.0  0.08270  0.94000  0.74800  1.0000
  O   O19       1.0  0.56000  0.41700  0.75200  1.0000
  O   O20       1.0  0.77500  0.56000  0.75200  1.0000
  O   O21       1.0  0.41700  0.77500  0.75200  1.0000
  O   O22       1.0  0.29400  0.12300  0.92500  1.0000
  O   O23       1.0  0.50800  0.29400  0.92500  1.0000
  O   O24       1.0  0.12300  0.50800  0.92500  1.0000
  P   P1        1.0  0.75000  0.03930  0.25000  1.0000
  P   P2        1.0  0.03930  0.46100  0.25000  1.0000
  P   P3        1.0  0.46100  0.75000  0.25000  1.0000
  P   P4        1.0  0.53900  0.25000  0.75000  1.0000
  P   P5        1.0  0.96100  0.53900  0.75000  1.0000
  P   P6        1.0  0.25000  0.96100  0.75000  1.0000
