data_image0
_chemical_formula_structural       Br20Cs12Hg4
_chemical_formula_sum              "Br20 Cs12 Hg4"
_cell_length_a       9.43763
_cell_length_b       11.307
_cell_length_c       14.1645
_cell_angle_alpha    90
_cell_angle_beta     90
_cell_angle_gamma    90

_space_group_name_H-M_alt    "P 1"
_space_group_IT_number       1

loop_
  _space_group_symop_operation_xyz
  'x, y, z'

loop_
  _atom_site_type_symbol
  _atom_site_label
  _atom_site_symmetry_multiplicity
  _atom_site_fract_x
  _atom_site_fract_y
  _atom_site_fract_z
  _atom_site_occupancy
  Br  Br1       1.0  0.45700  0.75000  0.00677  1.0000
  Br  Br2       1.0  0.81500  0.54800  0.06300  1.0000
  Br  Br3       1.0  0.81500  0.95200  0.06300  1.0000
  Br  Br4       1.0  0.12500  0.75000  0.20700  1.0000
  Br  Br5       1.0  0.17000  0.25000  0.23900  1.0000
  Br  Br6       1.0  0.67000  0.25000  0.26100  1.0000
  Br  Br7       1.0  0.62500  0.75000  0.29300  1.0000
  Br  Br8       1.0  0.31500  0.54800  0.43700  1.0000
  Br  Br9       1.0  0.31500  0.95200  0.43700  1.0000
  Br  Br10      1.0  0.95700  0.75000  0.49300  1.0000
  Br  Br11      1.0  0.04250  0.25000  0.50700  1.0000
  Br  Br12      1.0  0.68500  0.04820  0.56300  1.0000
  Br  Br13      1.0  0.68500  0.45200  0.56300  1.0000
  Br  Br14      1.0  0.37500  0.25000  0.70700  1.0000
  Br  Br15      1.0  0.33000  0.75000  0.73900  1.0000
  Br  Br16      1.0  0.83000  0.75000  0.76100  1.0000
  Br  Br17      1.0  0.87500  0.25000  0.79300  1.0000
  Br  Br18      1.0  0.18500  0.04820  0.93700  1.0000
  Br  Br19      1.0  0.18500  0.45200  0.93700  1.0000
  Br  Br20      1.0  0.54300  0.25000  0.99300  1.0000
  Cs  Cs1       1.0  0.92100  0.25000  0.05140  1.0000
  Cs  Cs2       1.0  0.41500  0.02060  0.16900  1.0000
  Cs  Cs3       1.0  0.41500  0.47900  0.16900  1.0000
  Cs  Cs4       1.0  0.91500  0.02060  0.33100  1.0000
  Cs  Cs5       1.0  0.91500  0.47900  0.33100  1.0000
  Cs  Cs6       1.0  0.42100  0.25000  0.44900  1.0000
  Cs  Cs7       1.0  0.57900  0.75000  0.55100  1.0000
  Cs  Cs8       1.0  0.08530  0.52100  0.66900  1.0000
  Cs  Cs9       1.0  0.08530  0.97900  0.66900  1.0000
  Cs  Cs10      1.0  0.58500  0.52100  0.83100  1.0000
  Cs  Cs11      1.0  0.58500  0.97900  0.83100  1.0000
  Cs  Cs12      1.0  0.07910  0.75000  0.94900  1.0000
  Hg  Hg1       1.0  0.69600  0.75000  0.11300  1.0000
  Hg  Hg2       1.0  0.19600  0.75000  0.38700  1.0000
  Hg  Hg3       1.0  0.80400  0.25000  0.61300  1.0000
  Hg  Hg4       1.0  0.30400  0.25000  0.88700  1.0000
