data_image0
_chemical_formula_structural       Li3MnO6Tc
_chemical_formula_sum              "Li3 Mn1 O6 Tc1"
_cell_length_a       5.04533
_cell_length_b       5.04532
_cell_length_c       5.0093
_cell_angle_alpha    100.035
_cell_angle_beta     100.035
_cell_angle_gamma    119.652

_space_group_name_H-M_alt    "P 1"
_space_group_IT_number       1

loop_
  _space_group_symop_operation_xyz
  'x, y, z'

loop_
  _atom_site_type_symbol
  _atom_site_label
  _atom_site_symmetry_multiplicity
  _atom_site_fract_x
  _atom_site_fract_y
  _atom_site_fract_z
  _atom_site_occupancy
  Li  Li1       1.0  0.99600  0.00418  0.50000  1.0000
  Li  Li2       1.0  0.65000  0.35000  0.50000  1.0000
  Li  Li3       1.0  0.35200  0.64800  0.50000  1.0000
  Mn  Mn1       1.0  0.83300  0.16700  0.00000  1.0000
  O   O1        1.0  0.58200  0.94900  0.23400  1.0000
  O   O2        1.0  0.94600  0.57700  0.23700  1.0000
  O   O3        1.0  0.21200  0.21400  0.24000  1.0000
  O   O4        1.0  0.78600  0.78800  0.76000  1.0000
  O   O5        1.0  0.42300  0.05410  0.76300  1.0000
  O   O6        1.0  0.05080  0.41800  0.76600  1.0000
  Tc  Tc1       1.0  0.17000  0.83000  0.00000  1.0000
