data_image0
_chemical_formula_structural       C10O10P8S6W2
_chemical_formula_sum              "C10 O10 P8 S6 W2"
_cell_length_a       6.94144
_cell_length_b       9.00233
_cell_length_c       11.573
_cell_angle_alpha    87.1649
_cell_angle_beta     82.7313
_cell_angle_gamma    81.1883

_space_group_name_H-M_alt    "P 1"
_space_group_IT_number       1

loop_
  _space_group_symop_operation_xyz
  'x, y, z'

loop_
  _atom_site_type_symbol
  _atom_site_label
  _atom_site_symmetry_multiplicity
  _atom_site_fract_x
  _atom_site_fract_y
  _atom_site_fract_z
  _atom_site_occupancy
  C   C1        1.0  0.28200  0.73900  0.04210  1.0000
  C   C2        1.0  0.99200  0.15300  0.11800  1.0000
  C   C3        1.0  0.79100  0.46200  0.12500  1.0000
  C   C4        1.0  0.62900  0.04310  0.13300  1.0000
  C   C5        1.0  0.41800  0.34800  0.15000  1.0000
  C   C6        1.0  0.58200  0.65200  0.85000  1.0000
  C   C7        1.0  0.37100  0.95700  0.86700  1.0000
  C   C8        1.0  0.20900  0.53800  0.87500  1.0000
  C   C9        1.0  0.00822  0.84700  0.88200  1.0000
  C   C10       1.0  0.71800  0.26100  0.95800  1.0000
  O   O1        1.0  0.15300  0.09200  0.11000  1.0000
  O   O2        1.0  0.83900  0.58000  0.11800  1.0000
  O   O3        1.0  0.59000  0.92200  0.13100  1.0000
  O   O4        1.0  0.27200  0.73700  0.14300  1.0000
  O   O5        1.0  0.25300  0.40100  0.16100  1.0000
  O   O6        1.0  0.74700  0.59900  0.83900  1.0000
  O   O7        1.0  0.72800  0.26300  0.85700  1.0000
  O   O8        1.0  0.41000  0.07750  0.86900  1.0000
  O   O9        1.0  0.16100  0.42000  0.88200  1.0000
  O   O10       1.0  0.84700  0.90800  0.89000  1.0000
  P   P1        1.0  0.69900  0.23800  0.34500  1.0000
  P   P2        1.0  0.48800  0.71200  0.38400  1.0000
  P   P3        1.0  0.26700  0.92600  0.39900  1.0000
  P   P4        1.0  0.16200  0.69900  0.40600  1.0000
  P   P5        1.0  0.83800  0.30100  0.59400  1.0000
  P   P6        1.0  0.73300  0.07420  0.60100  1.0000
  P   P7        1.0  0.51200  0.28800  0.61600  1.0000
  P   P8        1.0  0.30100  0.76200  0.65500  1.0000
  S   S1        1.0  0.90400  0.34700  0.41500  1.0000
  S   S2        1.0  0.75500  0.02220  0.42500  1.0000
  S   S3        1.0  0.43600  0.32500  0.44700  1.0000
  S   S4        1.0  0.56400  0.67500  0.55300  1.0000
  S   S5        1.0  0.24500  0.97800  0.57500  1.0000
  S   S6        1.0  0.09640  0.65300  0.58500  1.0000
  W   W1        1.0  0.70600  0.25300  0.13200  1.0000
  W   W2        1.0  0.29400  0.74700  0.86800  1.0000
