data_image0
_chemical_formula_structural       B4Mo4Nd4O24
_chemical_formula_sum              "B4 Mo4 Nd4 O24"
_cell_length_a       10.1269
_cell_length_b       4.12469
_cell_length_c       11.889
_cell_angle_alpha    90
_cell_angle_beta     116.901
_cell_angle_gamma    90

_space_group_name_H-M_alt    "P 1"
_space_group_IT_number       1

loop_
  _space_group_symop_operation_xyz
  'x, y, z'

loop_
  _atom_site_type_symbol
  _atom_site_label
  _atom_site_symmetry_multiplicity
  _atom_site_fract_x
  _atom_site_fract_y
  _atom_site_fract_z
  _atom_site_occupancy
  B   B1        1.0  0.99500  0.16800  0.19000  1.0000
  B   B2        1.0  0.00495  0.66800  0.31000  1.0000
  B   B3        1.0  0.99500  0.33200  0.69000  1.0000
  B   B4        1.0  0.00495  0.83200  0.81000  1.0000
  Mo  Mo1       1.0  0.64600  0.19800  0.18300  1.0000
  Mo  Mo2       1.0  0.35400  0.69800  0.31700  1.0000
  Mo  Mo3       1.0  0.64600  0.30200  0.68300  1.0000
  Mo  Mo4       1.0  0.35400  0.80200  0.81700  1.0000
  Nd  Nd1       1.0  0.19400  0.29000  0.02770  1.0000
  Nd  Nd2       1.0  0.80600  0.79000  0.47200  1.0000
  Nd  Nd3       1.0  0.19400  0.21000  0.52800  1.0000
  Nd  Nd4       1.0  0.80600  0.71000  0.97200  1.0000
  O   O1        1.0  0.99900  0.27500  0.08560  1.0000
  O   O2        1.0  0.74200  0.28200  0.08980  1.0000
  O   O3        1.0  0.45400  0.27500  0.10300  1.0000
  O   O4        1.0  0.25800  0.78500  0.14700  1.0000
  O   O5        1.0  0.96800  0.83900  0.19800  1.0000
  O   O6        1.0  0.66100  0.77000  0.19900  1.0000
  O   O7        1.0  0.33900  0.27000  0.30100  1.0000
  O   O8        1.0  0.03190  0.33900  0.30200  1.0000
  O   O9        1.0  0.74200  0.28500  0.35300  1.0000
  O   O10       1.0  0.54600  0.77500  0.39700  1.0000
  O   O11       1.0  0.25800  0.78200  0.41000  1.0000
  O   O12       1.0  0.00101  0.77500  0.41400  1.0000
  O   O13       1.0  0.99900  0.22500  0.58600  1.0000
  O   O14       1.0  0.74200  0.21800  0.59000  1.0000
  O   O15       1.0  0.45400  0.22500  0.60300  1.0000
  O   O16       1.0  0.25800  0.71500  0.64700  1.0000
  O   O17       1.0  0.96800  0.66100  0.69800  1.0000
  O   O18       1.0  0.66100  0.73000  0.69900  1.0000
  O   O19       1.0  0.33900  0.23000  0.80100  1.0000
  O   O20       1.0  0.03190  0.16100  0.80200  1.0000
  O   O21       1.0  0.74200  0.21500  0.85300  1.0000
  O   O22       1.0  0.54600  0.72500  0.89700  1.0000
  O   O23       1.0  0.25800  0.71800  0.91000  1.0000
  O   O24       1.0  0.00101  0.72500  0.91400  1.0000
