data_image0
_chemical_formula_structural       As4Mo4O24Rb4
_chemical_formula_sum              "As4 Mo4 O24 Rb4"
_cell_length_a       8.34328
_cell_length_b       8.34328
_cell_length_c       9.84814
_cell_angle_alpha    111.501
_cell_angle_beta     111.501
_cell_angle_gamma    97.744

_space_group_name_H-M_alt    "P 1"
_space_group_IT_number       1

loop_
  _space_group_symop_operation_xyz
  'x, y, z'

loop_
  _atom_site_type_symbol
  _atom_site_label
  _atom_site_symmetry_multiplicity
  _atom_site_fract_x
  _atom_site_fract_y
  _atom_site_fract_z
  _atom_site_occupancy
  As  As1       1.0  0.50300  0.75300  0.00569  1.0000
  As  As2       1.0  0.24700  0.49700  0.49400  1.0000
  As  As3       1.0  0.75300  0.50300  0.50600  1.0000
  As  As4       1.0  0.49700  0.24700  0.99400  1.0000
  Mo  Mo1       1.0  0.85000  0.15000  0.25000  1.0000
  Mo  Mo2       1.0  0.40000  0.60000  0.25000  1.0000
  Mo  Mo3       1.0  0.60000  0.40000  0.75000  1.0000
  Mo  Mo4       1.0  0.15000  0.85000  0.75000  1.0000
  O   O1        1.0  0.72100  0.28800  0.10000  1.0000
  O   O2        1.0  0.37900  0.31300  0.10000  1.0000
  O   O3        1.0  0.91500  0.03860  0.10300  1.0000
  O   O4        1.0  0.18800  0.56400  0.10300  1.0000
  O   O5        1.0  0.54300  0.65900  0.14200  1.0000
  O   O6        1.0  0.59900  0.98300  0.14200  1.0000
  O   O7        1.0  0.01680  0.40100  0.35800  1.0000
  O   O8        1.0  0.34100  0.45700  0.35800  1.0000
  O   O9        1.0  0.96100  0.08490  0.39700  1.0000
  O   O10       1.0  0.43600  0.81200  0.39700  1.0000
  O   O11       1.0  0.71200  0.27900  0.40000  1.0000
  O   O12       1.0  0.68700  0.62100  0.40000  1.0000
  O   O13       1.0  0.31300  0.37900  0.60000  1.0000
  O   O14       1.0  0.28800  0.72100  0.60000  1.0000
  O   O15       1.0  0.56400  0.18800  0.60300  1.0000
  O   O16       1.0  0.03860  0.91500  0.60300  1.0000
  O   O17       1.0  0.65900  0.54300  0.64200  1.0000
  O   O18       1.0  0.98300  0.59900  0.64200  1.0000
  O   O19       1.0  0.40100  0.01680  0.85800  1.0000
  O   O20       1.0  0.45700  0.34100  0.85800  1.0000
  O   O21       1.0  0.81200  0.43600  0.89700  1.0000
  O   O22       1.0  0.08490  0.96100  0.89700  1.0000
  O   O23       1.0  0.62100  0.68700  0.90000  1.0000
  O   O24       1.0  0.27900  0.71200  0.90000  1.0000
  Rb  Rb1       1.0  0.31600  0.06570  0.25000  1.0000
  Rb  Rb2       1.0  0.93400  0.68400  0.25000  1.0000
  Rb  Rb3       1.0  0.06570  0.31600  0.75000  1.0000
  Rb  Rb4       1.0  0.68400  0.93400  0.75000  1.0000
