data_image0
_chemical_formula_structural       Ba6U2
_chemical_formula_sum              "Ba6 U2"
_cell_length_a       8.31711
_cell_length_b       8.31711
_cell_length_c       6.63295
_cell_angle_alpha    90
_cell_angle_beta     90
_cell_angle_gamma    120

_space_group_name_H-M_alt    "P 1"
_space_group_IT_number       1

loop_
  _space_group_symop_operation_xyz
  'x, y, z'

loop_
  _atom_site_type_symbol
  _atom_site_label
  _atom_site_symmetry_multiplicity
  _atom_site_fract_x
  _atom_site_fract_y
  _atom_site_fract_z
  _atom_site_occupancy
  Ba  Ba1       1.0  0.17300  0.34700  0.25000  1.0000
  Ba  Ba2       1.0  0.65300  0.82700  0.25000  1.0000
  Ba  Ba3       1.0  0.17300  0.82700  0.25000  1.0000
  Ba  Ba4       1.0  0.82700  0.65300  0.75000  1.0000
  Ba  Ba5       1.0  0.34700  0.17300  0.75000  1.0000
  Ba  Ba6       1.0  0.82700  0.17300  0.75000  1.0000
  U   U1        1.0  0.33300  0.66700  0.75000  1.0000
  U   U2        1.0  0.66700  0.33300  0.25000  1.0000
