data_image0
_chemical_formula_structural       Ba4Ca4Cu6O19Tl3
_chemical_formula_sum              "Ba4 Ca4 Cu6 O19 Tl3"
_cell_length_a       3.82608
_cell_length_b       3.82608
_cell_length_c       33.8484
_cell_angle_alpha    93.24
_cell_angle_beta     93.24
_cell_angle_gamma    90

_space_group_name_H-M_alt    "P 1"
_space_group_IT_number       1

loop_
  _space_group_symop_operation_xyz
  'x, y, z'

loop_
  _atom_site_type_symbol
  _atom_site_label
  _atom_site_symmetry_multiplicity
  _atom_site_fract_x
  _atom_site_fract_y
  _atom_site_fract_z
  _atom_site_occupancy
  Ba  Ba1       1.0  0.54000  0.54000  0.07970  1.0000
  Ba  Ba2       1.0  0.69300  0.69300  0.38500  1.0000
  Ba  Ba3       1.0  0.30700  0.30700  0.61500  1.0000
  Ba  Ba4       1.0  0.46000  0.46000  0.92000  1.0000
  Ca  Ca1       1.0  0.59300  0.59300  0.18600  1.0000
  Ca  Ca2       1.0  0.64100  0.64100  0.28200  1.0000
  Ca  Ca3       1.0  0.35900  0.35900  0.71800  1.0000
  Ca  Ca4       1.0  0.40700  0.40700  0.81400  1.0000
  Cu  Cu1       1.0  0.06960  0.06960  0.13900  1.0000
  Cu  Cu2       1.0  0.11800  0.11800  0.23500  1.0000
  Cu  Cu3       1.0  0.16400  0.16400  0.32700  1.0000
  Cu  Cu4       1.0  0.83600  0.83600  0.67300  1.0000
  Cu  Cu5       1.0  0.88200  0.88200  0.76500  1.0000
  Cu  Cu6       1.0  0.93000  0.93000  0.86100  1.0000
  O   O1        1.0  0.50000  0.50000  0.00000  1.0000
  O   O2        1.0  0.03120  0.03120  0.06240  1.0000
  O   O3        1.0  0.57200  0.07170  0.14300  1.0000
  O   O4        1.0  0.07170  0.57200  0.14300  1.0000
  O   O5        1.0  0.61800  0.11800  0.23500  1.0000
  O   O6        1.0  0.11800  0.61800  0.23500  1.0000
  O   O7        1.0  0.66400  0.16400  0.32700  1.0000
  O   O8        1.0  0.16400  0.66400  0.32700  1.0000
  O   O9        1.0  0.20300  0.20300  0.40600  1.0000
  O   O10       1.0  0.73600  0.73600  0.47200  1.0000
  O   O11       1.0  0.26400  0.26400  0.52800  1.0000
  O   O12       1.0  0.79700  0.79700  0.59400  1.0000
  O   O13       1.0  0.83600  0.33600  0.67300  1.0000
  O   O14       1.0  0.33600  0.83600  0.67300  1.0000
  O   O15       1.0  0.88200  0.38200  0.76500  1.0000
  O   O16       1.0  0.38200  0.88200  0.76500  1.0000
  O   O17       1.0  0.92800  0.42800  0.85700  1.0000
  O   O18       1.0  0.42800  0.92800  0.85700  1.0000
  O   O19       1.0  0.96900  0.96900  0.93800  1.0000
  Tl  Tl1       1.0  0.00000  0.00000  0.00000  1.0000
  Tl  Tl2       1.0  0.23300  0.23300  0.46600  1.0000
  Tl  Tl3       1.0  0.76700  0.76700  0.53400  1.0000
