data_image0
_chemical_formula_structural       Li3MnO6Sn
_chemical_formula_sum              "Li3 Mn1 O6 Sn1"
_cell_length_a       5.17753
_cell_length_b       5.17764
_cell_length_c       5.07273
_cell_angle_alpha    100.444
_cell_angle_beta     100.447
_cell_angle_gamma    120.369

_space_group_name_H-M_alt    "P 1"
_space_group_IT_number       1

loop_
  _space_group_symop_operation_xyz
  'x, y, z'

loop_
  _atom_site_type_symbol
  _atom_site_label
  _atom_site_symmetry_multiplicity
  _atom_site_fract_x
  _atom_site_fract_y
  _atom_site_fract_z
  _atom_site_occupancy
  Li  Li1       1.0  0.50900  0.49100  0.00000  1.0000
  Li  Li2       1.0  0.34900  0.65100  0.50000  1.0000
  Li  Li3       1.0  0.98900  0.01080  0.50000  1.0000
  Mn  Mn1       1.0  0.82900  0.17100  0.00000  1.0000
  O   O1        1.0  0.59700  0.92700  0.21900  1.0000
  O   O2        1.0  0.92800  0.56900  0.23100  1.0000
  O   O3        1.0  0.20500  0.23800  0.23600  1.0000
  O   O4        1.0  0.76200  0.79500  0.76400  1.0000
  O   O5        1.0  0.43100  0.07200  0.76900  1.0000
  O   O6        1.0  0.07320  0.40300  0.78100  1.0000
  Sn  Sn1       1.0  0.16200  0.83800  0.00000  1.0000
