data_image0
_chemical_formula_structural       Cs4Hf2Mo6O24
_chemical_formula_sum              "Cs4 Hf2 Mo6 O24"
_cell_length_a       6.8477
_cell_length_b       10.0915
_cell_length_c       10.7707
_cell_angle_alpha    104.482
_cell_angle_beta     90
_cell_angle_gamma    109.833

_space_group_name_H-M_alt    "P 1"
_space_group_IT_number       1

loop_
  _space_group_symop_operation_xyz
  'x, y, z'

loop_
  _atom_site_type_symbol
  _atom_site_label
  _atom_site_symmetry_multiplicity
  _atom_site_fract_x
  _atom_site_fract_y
  _atom_site_fract_z
  _atom_site_occupancy
  Cs  Cs1       1.0  0.70500  0.33100  0.06310  1.0000
  Cs  Cs2       1.0  0.37000  0.67000  0.43600  1.0000
  Cs  Cs3       1.0  0.62600  0.33100  0.56300  1.0000
  Cs  Cs4       1.0  0.30000  0.67000  0.93600  1.0000
  Hf  Hf1       1.0  0.00104  0.00000  0.00000  1.0000
  Hf  Hf2       1.0  0.99900  0.00000  0.50000  1.0000
  Mo  Mo1       1.0  0.77000  0.73000  0.18000  1.0000
  Mo  Mo2       1.0  0.39400  0.99900  0.24900  1.0000
  Mo  Mo3       1.0  0.03860  0.27000  0.32100  1.0000
  Mo  Mo4       1.0  0.96100  0.73000  0.68000  1.0000
  Mo  Mo5       1.0  0.60500  0.99900  0.74900  1.0000
  Mo  Mo6       1.0  0.23100  0.27000  0.82100  1.0000
  O   O1        1.0  0.78200  0.84200  0.06630  1.0000
  O   O2        1.0  0.24000  0.97900  0.10300  1.0000
  O   O3        1.0  0.97100  0.66000  0.14800  1.0000
  O   O4        1.0  0.98700  0.16500  0.15100  1.0000
  O   O5        1.0  0.54000  0.57800  0.15200  1.0000
  O   O6        1.0  0.46400  0.84400  0.22900  1.0000
  O   O7        1.0  0.62100  0.15200  0.27100  1.0000
  O   O8        1.0  0.95800  0.42100  0.34600  1.0000
  O   O9        1.0  0.81700  0.83400  0.35100  1.0000
  O   O10       1.0  0.31000  0.34300  0.35500  1.0000
  O   O11       1.0  0.25600  0.02030  0.39400  1.0000
  O   O12       1.0  0.94000  0.16000  0.43600  1.0000
  O   O13       1.0  0.06000  0.84200  0.56600  1.0000
  O   O14       1.0  0.73900  0.97900  0.60300  1.0000
  O   O15       1.0  0.68900  0.66000  0.64800  1.0000
  O   O16       1.0  0.17800  0.16500  0.65100  1.0000
  O   O17       1.0  0.03830  0.57800  0.65200  1.0000
  O   O18       1.0  0.38100  0.84400  0.72900  1.0000
  O   O19       1.0  0.53200  0.15200  0.77100  1.0000
  O   O20       1.0  0.46300  0.42100  0.84600  1.0000
  O   O21       1.0  0.01630  0.83400  0.85100  1.0000
  O   O22       1.0  0.03330  0.34300  0.85500  1.0000
  O   O23       1.0  0.76500  0.02030  0.89400  1.0000
  O   O24       1.0  0.22000  0.16000  0.93600  1.0000
