data_image0
_chemical_formula_structural       H10K2O18P4Zn2
_chemical_formula_sum              "H10 K2 O18 P4 Zn2"
_cell_length_a       7.49801
_cell_length_b       7.65538
_cell_length_c       7.70272
_cell_angle_alpha    64.9705
_cell_angle_beta     84.9449
_cell_angle_gamma    72.8159

_space_group_name_H-M_alt    "P 1"
_space_group_IT_number       1

loop_
  _space_group_symop_operation_xyz
  'x, y, z'

loop_
  _atom_site_type_symbol
  _atom_site_label
  _atom_site_symmetry_multiplicity
  _atom_site_fract_x
  _atom_site_fract_y
  _atom_site_fract_z
  _atom_site_occupancy
  H   H1        1.0  0.54300  0.48600  0.26800  1.0000
  H   H2        1.0  0.44500  0.33000  0.27700  1.0000
  H   H3        1.0  0.14100  0.29000  0.43300  1.0000
  H   H4        1.0  0.79300  0.06910  0.44200  1.0000
  H   H5        1.0  0.53000  0.68900  0.46900  1.0000
  H   H6        1.0  0.47000  0.31100  0.53100  1.0000
  H   H7        1.0  0.20700  0.93100  0.55800  1.0000
  H   H8        1.0  0.85900  0.71000  0.56700  1.0000
  H   H9        1.0  0.55500  0.67000  0.72300  1.0000
  H   H10       1.0  0.45700  0.51400  0.73200  1.0000
  K   K1        1.0  0.13700  0.77300  0.21300  1.0000
  K   K2        1.0  0.86300  0.22700  0.78700  1.0000
  O   O1        1.0  0.74500  0.94100  0.09120  1.0000
  O   O2        1.0  0.74900  0.49600  0.14000  1.0000
  O   O3        1.0  0.02160  0.19700  0.15700  1.0000
  O   O4        1.0  0.47600  0.15800  0.19600  1.0000
  O   O5        1.0  0.51700  0.78200  0.32000  1.0000
  O   O6        1.0  0.43500  0.43500  0.32600  1.0000
  O   O7        1.0  0.04110  0.41100  0.33400  1.0000
  O   O8        1.0  0.74100  0.90800  0.43200  1.0000
  O   O9        1.0  0.83300  0.18600  0.45100  1.0000
  O   O10       1.0  0.16700  0.81400  0.54900  1.0000
  O   O11       1.0  0.25900  0.09200  0.56800  1.0000
  O   O12       1.0  0.95900  0.58900  0.66600  1.0000
  O   O13       1.0  0.56500  0.56500  0.67400  1.0000
  O   O14       1.0  0.48300  0.21800  0.68000  1.0000
  O   O15       1.0  0.52400  0.84200  0.80400  1.0000
  O   O16       1.0  0.97800  0.80300  0.84300  1.0000
  O   O17       1.0  0.25100  0.50400  0.86000  1.0000
  O   O18       1.0  0.25500  0.05880  0.90900  1.0000
  P   P1        1.0  0.62100  0.94900  0.26000  1.0000
  P   P2        1.0  0.91100  0.32200  0.26300  1.0000
  P   P3        1.0  0.08870  0.67800  0.73700  1.0000
  P   P4        1.0  0.37900  0.05110  0.74000  1.0000
  Zn  Zn1       1.0  0.25800  0.23100  0.03520  1.0000
  Zn  Zn2       1.0  0.74200  0.76900  0.96500  1.0000
