data_image0
_chemical_formula_structural       Eu4K8Se20Si4
_chemical_formula_sum              "Eu4 K8 Se20 Si4"
_cell_length_a       11.6862
_cell_length_b       9.94756
_cell_length_c       8.99896
_cell_angle_alpha    90
_cell_angle_beta     91.3852
_cell_angle_gamma    90

_space_group_name_H-M_alt    "P 1"
_space_group_IT_number       1

loop_
  _space_group_symop_operation_xyz
  'x, y, z'

loop_
  _atom_site_type_symbol
  _atom_site_label
  _atom_site_symmetry_multiplicity
  _atom_site_fract_x
  _atom_site_fract_y
  _atom_site_fract_z
  _atom_site_occupancy
  Eu  Eu1       1.0  0.98500  0.72800  0.09940  1.0000
  Eu  Eu2       1.0  0.01500  0.22800  0.40100  1.0000
  Eu  Eu3       1.0  0.98500  0.77200  0.59900  1.0000
  Eu  Eu4       1.0  0.01500  0.27200  0.90100  1.0000
  K   K1        1.0  0.56000  0.69700  0.04670  1.0000
  K   K2        1.0  0.30100  0.94200  0.13000  1.0000
  K   K3        1.0  0.69900  0.44200  0.37000  1.0000
  K   K4        1.0  0.44000  0.19700  0.45300  1.0000
  K   K5        1.0  0.56000  0.80300  0.54700  1.0000
  K   K6        1.0  0.30100  0.55800  0.63000  1.0000
  K   K7        1.0  0.69900  0.05830  0.87000  1.0000
  K   K8        1.0  0.44000  0.30300  0.95300  1.0000
  Se  Se1       1.0  0.24700  0.62800  0.00674  1.0000
  Se  Se2       1.0  0.90500  0.03490  0.14100  1.0000
  Se  Se3       1.0  0.21100  0.25900  0.14700  1.0000
  Se  Se4       1.0  0.92000  0.43800  0.16900  1.0000
  Se  Se5       1.0  0.57800  0.01260  0.19300  1.0000
  Se  Se6       1.0  0.42200  0.51300  0.30700  1.0000
  Se  Se7       1.0  0.08000  0.93800  0.33100  1.0000
  Se  Se8       1.0  0.78900  0.75900  0.35300  1.0000
  Se  Se9       1.0  0.09540  0.53500  0.35900  1.0000
  Se  Se10      1.0  0.75300  0.12800  0.49300  1.0000
  Se  Se11      1.0  0.24700  0.87200  0.50700  1.0000
  Se  Se12      1.0  0.90500  0.46500  0.64100  1.0000
  Se  Se13      1.0  0.21100  0.24100  0.64700  1.0000
  Se  Se14      1.0  0.92000  0.06160  0.66900  1.0000
  Se  Se15      1.0  0.57800  0.48700  0.69300  1.0000
  Se  Se16      1.0  0.42200  0.98700  0.80700  1.0000
  Se  Se17      1.0  0.08000  0.56200  0.83100  1.0000
  Se  Se18      1.0  0.78900  0.74100  0.85300  1.0000
  Se  Se19      1.0  0.09540  0.96500  0.85900  1.0000
  Se  Se20      1.0  0.75300  0.37200  0.99300  1.0000
  Si  Si1       1.0  0.24400  0.47700  0.20700  1.0000
  Si  Si2       1.0  0.75600  0.97700  0.29300  1.0000
  Si  Si3       1.0  0.24400  0.02250  0.70700  1.0000
  Si  Si4       1.0  0.75600  0.52300  0.79300  1.0000
