data_image0
_chemical_formula_structural       H16I12N4Pb4
_chemical_formula_sum              "H16 I12 N4 Pb4"
_cell_length_a       10.6352
_cell_length_b       4.8264
_cell_length_c       16.8523
_cell_angle_alpha    90
_cell_angle_beta     90
_cell_angle_gamma    90

_space_group_name_H-M_alt    "P 1"
_space_group_IT_number       1

loop_
  _space_group_symop_operation_xyz
  'x, y, z'

loop_
  _atom_site_type_symbol
  _atom_site_label
  _atom_site_symmetry_multiplicity
  _atom_site_fract_x
  _atom_site_fract_y
  _atom_site_fract_z
  _atom_site_occupancy
  H   H1        1.0  0.52800  0.25000  0.12600  1.0000
  H   H2        1.0  0.63800  0.07590  0.18200  1.0000
  H   H3        1.0  0.63800  0.42400  0.18200  1.0000
  H   H4        1.0  0.52100  0.25000  0.22700  1.0000
  H   H5        1.0  0.02070  0.25000  0.27300  1.0000
  H   H6        1.0  0.13800  0.07590  0.31800  1.0000
  H   H7        1.0  0.13800  0.42400  0.31800  1.0000
  H   H8        1.0  0.02790  0.25000  0.37400  1.0000
  H   H9        1.0  0.97200  0.75000  0.62600  1.0000
  H   H10       1.0  0.86200  0.57600  0.68200  1.0000
  H   H11       1.0  0.86200  0.92400  0.68200  1.0000
  H   H12       1.0  0.97900  0.75000  0.72700  1.0000
  H   H13       1.0  0.47900  0.75000  0.77300  1.0000
  H   H14       1.0  0.36200  0.57600  0.81800  1.0000
  H   H15       1.0  0.36200  0.92400  0.81800  1.0000
  H   H16       1.0  0.47200  0.75000  0.87400  1.0000
  I   I1        1.0  0.34900  0.25000  0.00137  1.0000
  I   I2        1.0  0.97700  0.25000  0.11400  1.0000
  I   I3        1.0  0.29000  0.75000  0.23100  1.0000
  I   I4        1.0  0.79000  0.75000  0.26900  1.0000
  I   I5        1.0  0.47700  0.25000  0.38600  1.0000
  I   I6        1.0  0.84900  0.25000  0.49900  1.0000
  I   I7        1.0  0.15100  0.75000  0.50100  1.0000
  I   I8        1.0  0.52300  0.75000  0.61400  1.0000
  I   I9        1.0  0.21000  0.25000  0.73100  1.0000
  I   I10       1.0  0.71000  0.25000  0.76900  1.0000
  I   I11       1.0  0.02280  0.75000  0.88600  1.0000
  I   I12       1.0  0.65100  0.75000  0.99900  1.0000
  N   N1        1.0  0.58000  0.25000  0.17800  1.0000
  N   N2        1.0  0.08020  0.25000  0.32200  1.0000
  N   N3        1.0  0.92000  0.75000  0.67800  1.0000
  N   N4        1.0  0.42000  0.75000  0.82200  1.0000
  Pb  Pb1       1.0  0.17000  0.75000  0.06320  1.0000
  Pb  Pb2       1.0  0.67000  0.75000  0.43700  1.0000
  Pb  Pb3       1.0  0.33000  0.25000  0.56300  1.0000
  Pb  Pb4       1.0  0.83000  0.25000  0.93700  1.0000
