data_image0
_chemical_formula_structural       As12Na20Si4
_chemical_formula_sum              "As12 Na20 Si4"
_cell_length_a       13.3493
_cell_length_b       7.45288
_cell_length_c       8.17167
_cell_angle_alpha    90
_cell_angle_beta     89.9584
_cell_angle_gamma    90

_space_group_name_H-M_alt    "P 1"
_space_group_IT_number       1

loop_
  _space_group_symop_operation_xyz
  'x, y, z'

loop_
  _atom_site_type_symbol
  _atom_site_label
  _atom_site_symmetry_multiplicity
  _atom_site_fract_x
  _atom_site_fract_y
  _atom_site_fract_z
  _atom_site_occupancy
  As  As1       1.0  0.72700  0.26400  0.08310  1.0000
  As  As2       1.0  0.43400  0.31300  0.08930  1.0000
  As  As3       1.0  0.08040  0.26100  0.15700  1.0000
  As  As4       1.0  0.42000  0.76100  0.34300  1.0000
  As  As5       1.0  0.06600  0.81300  0.41100  1.0000
  As  As6       1.0  0.77300  0.76400  0.41700  1.0000
  As  As7       1.0  0.22700  0.23600  0.58300  1.0000
  As  As8       1.0  0.93400  0.18700  0.58900  1.0000
  As  As9       1.0  0.58000  0.23900  0.65700  1.0000
  As  As10      1.0  0.92000  0.73900  0.84300  1.0000
  As  As11      1.0  0.56600  0.68700  0.91100  1.0000
  As  As12      1.0  0.27300  0.73600  0.91700  1.0000
  Na  Na1       1.0  0.75900  0.65200  0.07570  1.0000
  Na  Na2       1.0  0.08040  0.66400  0.07740  1.0000
  Na  Na3       1.0  0.58400  0.96900  0.16700  1.0000
  Na  Na4       1.0  0.91100  0.98400  0.17400  1.0000
  Na  Na5       1.0  0.25700  0.99600  0.18500  1.0000
  Na  Na6       1.0  0.24300  0.49600  0.31500  1.0000
  Na  Na7       1.0  0.58900  0.48400  0.32600  1.0000
  Na  Na8       1.0  0.91600  0.46900  0.33300  1.0000
  Na  Na9       1.0  0.42000  0.16400  0.42300  1.0000
  Na  Na10      1.0  0.74100  0.15200  0.42400  1.0000
  Na  Na11      1.0  0.25900  0.84800  0.57600  1.0000
  Na  Na12      1.0  0.58000  0.83600  0.57700  1.0000
  Na  Na13      1.0  0.08400  0.53100  0.66700  1.0000
  Na  Na14      1.0  0.41100  0.51600  0.67400  1.0000
  Na  Na15      1.0  0.75700  0.50400  0.68500  1.0000
  Na  Na16      1.0  0.74300  0.00401  0.81500  1.0000
  Na  Na17      1.0  0.08870  0.01600  0.82600  1.0000
  Na  Na18      1.0  0.41600  0.03090  0.83300  1.0000
  Na  Na19      1.0  0.92000  0.33600  0.92300  1.0000
  Na  Na20      1.0  0.24100  0.34800  0.92400  1.0000
  Si  Si1       1.0  0.41500  0.64100  0.07100  1.0000
  Si  Si2       1.0  0.08540  0.14100  0.42900  1.0000
  Si  Si3       1.0  0.91500  0.85900  0.57100  1.0000
  Si  Si4       1.0  0.58500  0.35900  0.92900  1.0000
