data_image0
_chemical_formula_structural       Li3MnMoO6
_chemical_formula_sum              "Li3 Mn1 Mo1 O6"
_cell_length_a       5.06428
_cell_length_b       5.06386
_cell_length_c       5.08746
_cell_angle_alpha    100.535
_cell_angle_beta     100.525
_cell_angle_gamma    118.177

_space_group_name_H-M_alt    "P 1"
_space_group_IT_number       1

loop_
  _space_group_symop_operation_xyz
  'x, y, z'

loop_
  _atom_site_type_symbol
  _atom_site_label
  _atom_site_symmetry_multiplicity
  _atom_site_fract_x
  _atom_site_fract_y
  _atom_site_fract_z
  _atom_site_occupancy
  Li  Li1       1.0  0.50300  0.49700  0.00000  1.0000
  Li  Li2       1.0  0.99700  0.00269  0.50000  1.0000
  Li  Li3       1.0  0.64300  0.35700  0.50000  1.0000
  Mn  Mn1       1.0  0.83800  0.16200  0.00000  1.0000
  Mo  Mo1       1.0  0.18300  0.81800  0.00000  1.0000
  O   O1        1.0  0.91900  0.57800  0.21200  1.0000
  O   O2        1.0  0.21100  0.20200  0.23100  1.0000
  O   O3        1.0  0.56200  0.92000  0.24300  1.0000
  O   O4        1.0  0.08020  0.43800  0.75700  1.0000
  O   O5        1.0  0.79800  0.78900  0.76900  1.0000
  O   O6        1.0  0.42200  0.08050  0.78700  1.0000
