data_image0
_chemical_formula_structural       F24O4W4Xe4
_chemical_formula_sum              "F24 O4 W4 Xe4"
_cell_length_a       4.96715
_cell_length_b       9.22695
_cell_length_c       11.5462
_cell_angle_alpha    89.9979
_cell_angle_beta     90.8689
_cell_angle_gamma    89.9996

_space_group_name_H-M_alt    "P 1"
_space_group_IT_number       1

loop_
  _space_group_symop_operation_xyz
  'x, y, z'

loop_
  _atom_site_type_symbol
  _atom_site_label
  _atom_site_symmetry_multiplicity
  _atom_site_fract_x
  _atom_site_fract_y
  _atom_site_fract_z
  _atom_site_occupancy
  F   F1        1.0  0.21800  0.42600  0.04700  1.0000
  F   F2        1.0  0.22100  0.92900  0.07360  1.0000
  F   F3        1.0  0.50100  0.15300  0.11200  1.0000
  F   F4        1.0  0.77900  0.37000  0.20000  1.0000
  F   F5        1.0  0.68200  0.90400  0.20000  1.0000
  F   F6        1.0  0.05210  0.11900  0.22600  1.0000
  F   F7        1.0  0.94800  0.61900  0.27400  1.0000
  F   F8        1.0  0.31800  0.40400  0.30000  1.0000
  F   F9        1.0  0.22100  0.87000  0.30000  1.0000
  F   F10       1.0  0.49900  0.65300  0.38800  1.0000
  F   F11       1.0  0.77900  0.42900  0.42600  1.0000
  F   F12       1.0  0.78300  0.92600  0.45300  1.0000
  F   F13       1.0  0.21700  0.07420  0.54700  1.0000
  F   F14       1.0  0.22100  0.57100  0.57400  1.0000
  F   F15       1.0  0.50100  0.34700  0.61200  1.0000
  F   F16       1.0  0.77900  0.13000  0.70000  1.0000
  F   F17       1.0  0.68200  0.59600  0.70000  1.0000
  F   F18       1.0  0.05210  0.38100  0.72600  1.0000
  F   F19       1.0  0.94800  0.88100  0.77400  1.0000
  F   F20       1.0  0.31800  0.09610  0.80000  1.0000
  F   F21       1.0  0.22100  0.63000  0.80000  1.0000
  F   F22       1.0  0.49900  0.84700  0.88800  1.0000
  F   F23       1.0  0.77900  0.07120  0.92600  1.0000
  F   F24       1.0  0.78200  0.57400  0.95300  1.0000
  O   O1        1.0  0.48400  0.62100  0.15100  1.0000
  O   O2        1.0  0.51600  0.12000  0.34900  1.0000
  O   O3        1.0  0.48400  0.88000  0.65100  1.0000
  O   O4        1.0  0.51600  0.37900  0.84900  1.0000
  W   W1        1.0  0.39300  0.02810  0.23200  1.0000
  W   W2        1.0  0.60700  0.52800  0.26800  1.0000
  W   W3        1.0  0.39300  0.47200  0.73200  1.0000
  W   W4        1.0  0.60700  0.97200  0.76800  1.0000
  Xe  Xe1       1.0  0.99800  0.74100  0.01740  1.0000
  Xe  Xe2       1.0  0.00189  0.24100  0.48300  1.0000
  Xe  Xe3       1.0  0.99800  0.75900  0.51700  1.0000
  Xe  Xe4       1.0  0.00195  0.25900  0.98300  1.0000
