data_image0
_chemical_formula_structural       Gd8O24S4
_chemical_formula_sum              "Gd8 O24 S4"
_cell_length_a       12.8741
_cell_length_b       8.00816
_cell_length_c       4.15454
_cell_angle_alpha    90
_cell_angle_beta     90
_cell_angle_gamma    90

_space_group_name_H-M_alt    "P 1"
_space_group_IT_number       1

loop_
  _space_group_symop_operation_xyz
  'x, y, z'

loop_
  _atom_site_type_symbol
  _atom_site_label
  _atom_site_symmetry_multiplicity
  _atom_site_fract_x
  _atom_site_fract_y
  _atom_site_fract_z
  _atom_site_occupancy
  Gd  Gd1       1.0  0.58000  0.12500  0.24100  1.0000
  Gd  Gd2       1.0  0.92000  0.12500  0.24100  1.0000
  Gd  Gd3       1.0  0.58000  0.62500  0.25900  1.0000
  Gd  Gd4       1.0  0.92000  0.62500  0.25900  1.0000
  Gd  Gd5       1.0  0.08020  0.37500  0.74100  1.0000
  Gd  Gd6       1.0  0.42000  0.37500  0.74100  1.0000
  Gd  Gd7       1.0  0.08020  0.87500  0.75900  1.0000
  Gd  Gd8       1.0  0.42000  0.87500  0.75900  1.0000
  O   O1        1.0  0.75000  0.22500  0.01410  1.0000
  O   O2        1.0  0.75000  0.52500  0.01770  1.0000
  O   O3        1.0  0.15600  0.12400  0.10300  1.0000
  O   O4        1.0  0.34400  0.12400  0.10300  1.0000
  O   O5        1.0  0.00496  0.37500  0.23300  1.0000
  O   O6        1.0  0.49500  0.37500  0.23300  1.0000
  O   O7        1.0  0.00496  0.87500  0.26700  1.0000
  O   O8        1.0  0.49500  0.87500  0.26700  1.0000
  O   O9        1.0  0.15600  0.62400  0.39700  1.0000
  O   O10       1.0  0.34400  0.62400  0.39700  1.0000
  O   O11       1.0  0.75000  0.02500  0.48200  1.0000
  O   O12       1.0  0.75000  0.72500  0.48600  1.0000
  O   O13       1.0  0.25000  0.27500  0.51400  1.0000
  O   O14       1.0  0.25000  0.97500  0.51800  1.0000
  O   O15       1.0  0.65600  0.37600  0.60300  1.0000
  O   O16       1.0  0.84400  0.37600  0.60300  1.0000
  O   O17       1.0  0.50500  0.12500  0.73300  1.0000
  O   O18       1.0  0.99500  0.12500  0.73300  1.0000
  O   O19       1.0  0.50500  0.62500  0.76700  1.0000
  O   O20       1.0  0.99500  0.62500  0.76700  1.0000
  O   O21       1.0  0.65600  0.87600  0.89700  1.0000
  O   O22       1.0  0.84400  0.87600  0.89700  1.0000
  O   O23       1.0  0.25000  0.47500  0.98200  1.0000
  O   O24       1.0  0.25000  0.77500  0.98600  1.0000
  S   S1        1.0  0.25000  0.62400  0.19700  1.0000
  S   S2        1.0  0.25000  0.12400  0.30300  1.0000
  S   S3        1.0  0.75000  0.87600  0.69700  1.0000
  S   S4        1.0  0.75000  0.37600  0.80300  1.0000
