data_image0
_chemical_formula_structural       Cs4Na12O16Pb4
_chemical_formula_sum              "Cs4 Na12 O16 Pb4"
_cell_length_a       11.9463
_cell_length_b       8.68052
_cell_length_c       6.7392
_cell_angle_alpha    100.792
_cell_angle_beta     109.372
_cell_angle_gamma    91.5426

_space_group_name_H-M_alt    "P 1"
_space_group_IT_number       1

loop_
  _space_group_symop_operation_xyz
  'x, y, z'

loop_
  _atom_site_type_symbol
  _atom_site_label
  _atom_site_symmetry_multiplicity
  _atom_site_fract_x
  _atom_site_fract_y
  _atom_site_fract_z
  _atom_site_occupancy
  Cs  Cs1       1.0  0.11900  0.38200  0.11500  1.0000
  Cs  Cs2       1.0  0.37500  0.14300  0.33200  1.0000
  Cs  Cs3       1.0  0.62500  0.85700  0.66800  1.0000
  Cs  Cs4       1.0  0.88100  0.61800  0.88500  1.0000
  Na  Na1       1.0  0.89400  0.05170  0.07470  1.0000
  Na  Na2       1.0  0.61400  0.67500  0.09320  1.0000
  Na  Na3       1.0  0.62400  0.04260  0.19400  1.0000
  Na  Na4       1.0  0.87400  0.43000  0.33600  1.0000
  Na  Na5       1.0  0.14700  0.82100  0.34200  1.0000
  Na  Na6       1.0  0.60200  0.44100  0.41400  1.0000
  Na  Na7       1.0  0.39800  0.55900  0.58600  1.0000
  Na  Na8       1.0  0.85300  0.17900  0.65800  1.0000
  Na  Na9       1.0  0.12600  0.57000  0.66400  1.0000
  Na  Na10      1.0  0.37600  0.95700  0.80600  1.0000
  Na  Na11      1.0  0.38600  0.32500  0.90700  1.0000
  Na  Na12      1.0  0.10600  0.94800  0.92500  1.0000
  O   O1        1.0  0.17000  0.71000  0.00185  1.0000
  O   O2        1.0  0.46800  0.84100  0.09070  1.0000
  O   O3        1.0  0.77300  0.88800  0.16000  1.0000
  O   O4        1.0  0.41100  0.48700  0.22500  1.0000
  O   O5        1.0  0.09280  0.05970  0.26900  1.0000
  O   O6        1.0  0.00588  0.66500  0.38300  1.0000
  O   O7        1.0  0.74300  0.61000  0.40300  1.0000
  O   O8        1.0  0.35200  0.80200  0.48800  1.0000
  O   O9        1.0  0.64800  0.19800  0.51200  1.0000
  O   O10       1.0  0.25700  0.39000  0.59700  1.0000
  O   O11       1.0  0.99400  0.33500  0.61700  1.0000
  O   O12       1.0  0.90700  0.94000  0.73100  1.0000
  O   O13       1.0  0.58900  0.51300  0.77500  1.0000
  O   O14       1.0  0.22700  0.11200  0.84000  1.0000
  O   O15       1.0  0.53200  0.15900  0.90900  1.0000
  O   O16       1.0  0.83000  0.29000  0.99800  1.0000
  Pb  Pb1       1.0  0.35100  0.70600  0.17500  1.0000
  Pb  Pb2       1.0  0.86900  0.79700  0.42700  1.0000
  Pb  Pb3       1.0  0.13100  0.20300  0.57300  1.0000
  Pb  Pb4       1.0  0.64900  0.29400  0.82500  1.0000
