data_image0
_chemical_formula_structural       H2O24P8Sm2
_chemical_formula_sum              "H2 O24 P8 Sm2"
_cell_length_a       7.0613
_cell_length_b       8.48399
_cell_length_c       8.79492
_cell_angle_alpha    99.3402
_cell_angle_beta     112.131
_cell_angle_gamma    107.722

_space_group_name_H-M_alt    "P 1"
_space_group_IT_number       1

loop_
  _space_group_symop_operation_xyz
  'x, y, z'

loop_
  _atom_site_type_symbol
  _atom_site_label
  _atom_site_symmetry_multiplicity
  _atom_site_fract_x
  _atom_site_fract_y
  _atom_site_fract_z
  _atom_site_occupancy
  H   H1        1.0  0.52500  0.14900  0.25400  1.0000
  H   H2        1.0  0.47500  0.85100  0.74600  1.0000
  O   O1        1.0  0.18400  0.80300  0.03250  1.0000
  O   O2        1.0  0.24000  0.21100  0.07200  1.0000
  O   O3        1.0  0.53700  0.76100  0.09070  1.0000
  O   O4        1.0  0.81700  0.63400  0.15000  1.0000
  O   O5        1.0  0.56700  0.06630  0.18800  1.0000
  O   O6        1.0  0.94800  0.96700  0.25000  1.0000
  O   O7        1.0  0.31400  0.54000  0.30000  1.0000
  O   O8        1.0  0.89000  0.42400  0.30500  1.0000
  O   O9        1.0  0.47200  0.86500  0.34400  1.0000
  O   O10       1.0  0.44500  0.23000  0.39400  1.0000
  O   O11       1.0  0.17100  0.74400  0.42600  1.0000
  O   O12       1.0  0.81300  0.67800  0.44300  1.0000
  O   O13       1.0  0.18700  0.32200  0.55700  1.0000
  O   O14       1.0  0.82900  0.25600  0.57400  1.0000
  O   O15       1.0  0.55500  0.77000  0.60600  1.0000
  O   O16       1.0  0.52800  0.13500  0.65600  1.0000
  O   O17       1.0  0.11000  0.57600  0.69500  1.0000
  O   O18       1.0  0.68600  0.46000  0.70000  1.0000
  O   O19       1.0  0.05200  0.03320  0.75000  1.0000
  O   O20       1.0  0.43300  0.93400  0.81200  1.0000
  O   O21       1.0  0.18300  0.36600  0.85000  1.0000
  O   O22       1.0  0.46300  0.23900  0.90900  1.0000
  O   O23       1.0  0.76000  0.78900  0.92800  1.0000
  O   O24       1.0  0.81600  0.19700  0.96800  1.0000
  P   P1        1.0  0.78400  0.80100  0.10500  1.0000
  P   P2        1.0  0.42500  0.87200  0.15500  1.0000
  P   P3        1.0  0.91300  0.60900  0.33800  1.0000
  P   P4        1.0  0.38300  0.71500  0.42100  1.0000
  P   P5        1.0  0.61700  0.28500  0.57900  1.0000
  P   P6        1.0  0.08700  0.39100  0.66200  1.0000
  P   P7        1.0  0.57500  0.12800  0.84500  1.0000
  P   P8        1.0  0.21600  0.19900  0.89500  1.0000
  Sm  Sm1       1.0  0.08840  0.25700  0.25900  1.0000
  Sm  Sm2       1.0  0.91200  0.74300  0.74100  1.0000
