data_image0
_chemical_formula_structural       As12Cu16Yb8
_chemical_formula_sum              "As12 Cu16 Yb8"
_cell_length_a       13.2543
_cell_length_b       13.2543
_cell_length_c       4.05111
_cell_angle_alpha    90
_cell_angle_beta     90
_cell_angle_gamma    120

_space_group_name_H-M_alt    "P 1"
_space_group_IT_number       1

loop_
  _space_group_symop_operation_xyz
  'x, y, z'

loop_
  _atom_site_type_symbol
  _atom_site_label
  _atom_site_symmetry_multiplicity
  _atom_site_fract_x
  _atom_site_fract_y
  _atom_site_fract_z
  _atom_site_occupancy
  As  As1       1.0  0.35500  0.00000  0.00000  1.0000
  As  As2       1.0  0.82300  0.00000  0.00000  1.0000
  As  As3       1.0  0.17700  0.17700  0.00000  1.0000
  As  As4       1.0  0.00000  0.35500  0.00000  1.0000
  As  As5       1.0  0.64500  0.64500  0.00000  1.0000
  As  As6       1.0  0.00000  0.82300  0.00000  1.0000
  As  As7       1.0  0.69200  0.17500  0.50000  1.0000
  As  As8       1.0  0.48300  0.30800  0.50000  1.0000
  As  As9       1.0  0.30800  0.48300  0.50000  1.0000
  As  As10      1.0  0.82500  0.51700  0.50000  1.0000
  As  As11      1.0  0.17500  0.69200  0.50000  1.0000
  As  As12      1.0  0.51700  0.82500  0.50000  1.0000
  Cu  Cu1       1.0  0.00000  0.00000  0.00000  1.0000
  Cu  Cu2       1.0  0.80900  0.18400  0.00000  1.0000
  Cu  Cu3       1.0  0.37500  0.19100  0.00000  1.0000
  Cu  Cu4       1.0  0.19100  0.37500  0.00000  1.0000
  Cu  Cu5       1.0  0.81600  0.62500  0.00000  1.0000
  Cu  Cu6       1.0  0.18400  0.80900  0.00000  1.0000
  Cu  Cu7       1.0  0.62500  0.81600  0.00000  1.0000
  Cu  Cu8       1.0  0.72300  0.00000  0.50000  1.0000
  Cu  Cu9       1.0  0.47900  0.11900  0.50000  1.0000
  Cu  Cu10      1.0  0.27700  0.27700  0.50000  1.0000
  Cu  Cu11      1.0  0.88100  0.35900  0.50000  1.0000
  Cu  Cu12      1.0  0.11900  0.47900  0.50000  1.0000
  Cu  Cu13      1.0  0.64100  0.52100  0.50000  1.0000
  Cu  Cu14      1.0  0.52100  0.64100  0.50000  1.0000
  Cu  Cu15      1.0  0.00000  0.72300  0.50000  1.0000
  Cu  Cu16      1.0  0.35900  0.88100  0.50000  1.0000
  Yb  Yb1       1.0  0.56700  0.00000  0.00000  1.0000
  Yb  Yb2       1.0  0.66700  0.33300  0.00000  1.0000
  Yb  Yb3       1.0  0.43300  0.43300  0.00000  1.0000
  Yb  Yb4       1.0  0.00000  0.56700  0.00000  1.0000
  Yb  Yb5       1.0  0.33300  0.66700  0.00000  1.0000
  Yb  Yb6       1.0  0.18700  0.00000  0.50000  1.0000
  Yb  Yb7       1.0  0.00000  0.18700  0.50000  1.0000
  Yb  Yb8       1.0  0.81300  0.81300  0.50000  1.0000
