data_image0
_chemical_formula_structural       H12Na6Np2O16
_chemical_formula_sum              "H12 Na6 Np2 O16"
_cell_length_a       7.70555
_cell_length_b       7.63966
_cell_length_c       6.72797
_cell_angle_alpha    90
_cell_angle_beta     113.146
_cell_angle_gamma    90

_space_group_name_H-M_alt    "P 1"
_space_group_IT_number       1

loop_
  _space_group_symop_operation_xyz
  'x, y, z'

loop_
  _atom_site_type_symbol
  _atom_site_label
  _atom_site_symmetry_multiplicity
  _atom_site_fract_x
  _atom_site_fract_y
  _atom_site_fract_z
  _atom_site_occupancy
  H   H1        1.0  0.90900  0.93000  0.11600  1.0000
  H   H2        1.0  0.28900  0.22100  0.16300  1.0000
  H   H3        1.0  0.12200  0.00836  0.20900  1.0000
  H   H4        1.0  0.87800  0.50800  0.29100  1.0000
  H   H5        1.0  0.71100  0.72100  0.33700  1.0000
  H   H6        1.0  0.09100  0.43000  0.38400  1.0000
  H   H7        1.0  0.90900  0.57000  0.61600  1.0000
  H   H8        1.0  0.28900  0.27900  0.66300  1.0000
  H   H9        1.0  0.12200  0.49200  0.70900  1.0000
  H   H10       1.0  0.87800  0.99200  0.79100  1.0000
  H   H11       1.0  0.71100  0.77900  0.83700  1.0000
  H   H12       1.0  0.09100  0.07020  0.88400  1.0000
  Na  Na1       1.0  0.50000  0.50000  0.00000  1.0000
  Na  Na2       1.0  0.12900  0.67800  0.09580  1.0000
  Na  Na3       1.0  0.87100  0.17800  0.40400  1.0000
  Na  Na4       1.0  0.50000  0.00000  0.50000  1.0000
  Na  Na5       1.0  0.12900  0.82200  0.59600  1.0000
  Na  Na6       1.0  0.87100  0.32200  0.90400  1.0000
  Np  Np1       1.0  0.50000  0.00000  0.00000  1.0000
  Np  Np2       1.0  0.50000  0.50000  0.50000  1.0000
  O   O1        1.0  0.62500  0.21700  0.04440  1.0000
  O   O2        1.0  0.27100  0.09390  0.12900  1.0000
  O   O3        1.0  0.33700  0.43500  0.21200  1.0000
  O   O4        1.0  0.97400  0.44500  0.24800  1.0000
  O   O5        1.0  0.02590  0.94500  0.25200  1.0000
  O   O6        1.0  0.66300  0.93500  0.28800  1.0000
  O   O7        1.0  0.72900  0.59400  0.37100  1.0000
  O   O8        1.0  0.37500  0.71700  0.45600  1.0000
  O   O9        1.0  0.62500  0.28300  0.54400  1.0000
  O   O10       1.0  0.27100  0.40600  0.62900  1.0000
  O   O11       1.0  0.33700  0.06510  0.71200  1.0000
  O   O12       1.0  0.97400  0.05540  0.74800  1.0000
  O   O13       1.0  0.02590  0.55500  0.75200  1.0000
  O   O14       1.0  0.66300  0.56500  0.78800  1.0000
  O   O15       1.0  0.72900  0.90600  0.87100  1.0000
  O   O16       1.0  0.37500  0.78300  0.95600  1.0000
