data_image0
_chemical_formula_structural       B2Fe4O24P6
_chemical_formula_sum              "B2 Fe4 O24 P6"
_cell_length_a       7.95783
_cell_length_b       7.95787
_cell_length_c       7.3785
_cell_angle_alpha    90
_cell_angle_beta     90
_cell_angle_gamma    120

_space_group_name_H-M_alt    "P 1"
_space_group_IT_number       1

loop_
  _space_group_symop_operation_xyz
  'x, y, z'

loop_
  _atom_site_type_symbol
  _atom_site_label
  _atom_site_symmetry_multiplicity
  _atom_site_fract_x
  _atom_site_fract_y
  _atom_site_fract_z
  _atom_site_occupancy
  B   B1        1.0  0.00000  0.00000  0.25000  1.0000
  B   B2        1.0  0.00000  0.00000  0.75000  1.0000
  Fe  Fe1       1.0  0.66700  0.33300  0.04980  1.0000
  Fe  Fe2       1.0  0.66700  0.33300  0.45000  1.0000
  Fe  Fe3       1.0  0.33300  0.66700  0.55000  1.0000
  Fe  Fe4       1.0  0.33300  0.66700  0.95000  1.0000
  O   O1        1.0  0.26300  0.43000  0.07760  1.0000
  O   O2        1.0  0.16600  0.73700  0.07760  1.0000
  O   O3        1.0  0.57000  0.83400  0.07760  1.0000
  O   O4        1.0  0.87100  0.06550  0.25000  1.0000
  O   O5        1.0  0.59500  0.12100  0.25000  1.0000
  O   O6        1.0  0.19400  0.12900  0.25000  1.0000
  O   O7        1.0  0.52600  0.40500  0.25000  1.0000
  O   O8        1.0  0.87900  0.47400  0.25000  1.0000
  O   O9        1.0  0.93500  0.80600  0.25000  1.0000
  O   O10       1.0  0.57000  0.83400  0.42200  1.0000
  O   O11       1.0  0.26300  0.43000  0.42200  1.0000
  O   O12       1.0  0.16600  0.73700  0.42200  1.0000
  O   O13       1.0  0.83400  0.26300  0.57800  1.0000
  O   O14       1.0  0.73700  0.57000  0.57800  1.0000
  O   O15       1.0  0.43000  0.16600  0.57800  1.0000
  O   O16       1.0  0.06550  0.19400  0.75000  1.0000
  O   O17       1.0  0.12100  0.52600  0.75000  1.0000
  O   O18       1.0  0.47400  0.59500  0.75000  1.0000
  O   O19       1.0  0.80600  0.87100  0.75000  1.0000
  O   O20       1.0  0.40500  0.87900  0.75000  1.0000
  O   O21       1.0  0.12900  0.93500  0.75000  1.0000
  O   O22       1.0  0.43000  0.16600  0.92200  1.0000
  O   O23       1.0  0.83400  0.26300  0.92200  1.0000
  O   O24       1.0  0.73700  0.57000  0.92200  1.0000
  P   P1        1.0  0.31400  0.36000  0.25000  1.0000
  P   P2        1.0  0.04640  0.68600  0.25000  1.0000
  P   P3        1.0  0.64000  0.95400  0.25000  1.0000
  P   P4        1.0  0.36000  0.04640  0.75000  1.0000
  P   P5        1.0  0.95400  0.31400  0.75000  1.0000
  P   P6        1.0  0.68600  0.64000  0.75000  1.0000
