data_image0
_chemical_formula_structural       As4H4Mn8O20
_chemical_formula_sum              "As4 H4 Mn8 O20"
_cell_length_a       8.4688
_cell_length_b       8.72666
_cell_length_c       6.30308
_cell_angle_alpha    90
_cell_angle_beta     90
_cell_angle_gamma    90

_space_group_name_H-M_alt    "P 1"
_space_group_IT_number       1

loop_
  _space_group_symop_operation_xyz
  'x, y, z'

loop_
  _atom_site_type_symbol
  _atom_site_label
  _atom_site_symmetry_multiplicity
  _atom_site_fract_x
  _atom_site_fract_y
  _atom_site_fract_z
  _atom_site_occupancy
  As  As1       1.0  0.24800  0.25200  0.00000  1.0000
  As  As2       1.0  0.75200  0.74800  0.00000  1.0000
  As  As3       1.0  0.74800  0.24800  0.50000  1.0000
  As  As4       1.0  0.25200  0.75200  0.50000  1.0000
  H   H1        1.0  0.77800  0.08180  0.00000  1.0000
  H   H2        1.0  0.22200  0.91800  0.00000  1.0000
  H   H3        1.0  0.27800  0.41800  0.50000  1.0000
  H   H4        1.0  0.72200  0.58200  0.50000  1.0000
  Mn  Mn1       1.0  0.85900  0.36700  0.00000  1.0000
  Mn  Mn2       1.0  0.14100  0.63300  0.00000  1.0000
  Mn  Mn3       1.0  0.00000  0.00000  0.24800  1.0000
  Mn  Mn4       1.0  0.50000  0.50000  0.25200  1.0000
  Mn  Mn5       1.0  0.35900  0.13300  0.50000  1.0000
  Mn  Mn6       1.0  0.64100  0.86700  0.50000  1.0000
  Mn  Mn7       1.0  0.50000  0.50000  0.74800  1.0000
  Mn  Mn8       1.0  0.00000  0.00000  0.75200  1.0000
  O   O1        1.0  0.88300  0.12800  0.00000  1.0000
  O   O2        1.0  0.42600  0.34700  0.00000  1.0000
  O   O3        1.0  0.10600  0.39100  0.00000  1.0000
  O   O4        1.0  0.89400  0.60900  0.00000  1.0000
  O   O5        1.0  0.57400  0.65300  0.00000  1.0000
  O   O6        1.0  0.11700  0.87200  0.00000  1.0000
  O   O7        1.0  0.22500  0.13500  0.21800  1.0000
  O   O8        1.0  0.77500  0.86500  0.21800  1.0000
  O   O9        1.0  0.72500  0.36500  0.28200  1.0000
  O   O10       1.0  0.27500  0.63500  0.28200  1.0000
  O   O11       1.0  0.60600  0.10900  0.50000  1.0000
  O   O12       1.0  0.92600  0.15300  0.50000  1.0000
  O   O13       1.0  0.38300  0.37200  0.50000  1.0000
  O   O14       1.0  0.61700  0.62800  0.50000  1.0000
  O   O15       1.0  0.07380  0.84700  0.50000  1.0000
  O   O16       1.0  0.39400  0.89100  0.50000  1.0000
  O   O17       1.0  0.72500  0.36500  0.71800  1.0000
  O   O18       1.0  0.27500  0.63500  0.71800  1.0000
  O   O19       1.0  0.22500  0.13500  0.78200  1.0000
  O   O20       1.0  0.77500  0.86500  0.78200  1.0000
