data_image0
_chemical_formula_structural       O24Te4Y8
_chemical_formula_sum              "O24 Te4 Y8"
_cell_length_a       5.26251
_cell_length_b       9.05688
_cell_length_c       9.93559
_cell_angle_alpha    90
_cell_angle_beta     90
_cell_angle_gamma    90

_space_group_name_H-M_alt    "P 1"
_space_group_IT_number       1

loop_
  _space_group_symop_operation_xyz
  'x, y, z'

loop_
  _atom_site_type_symbol
  _atom_site_label
  _atom_site_symmetry_multiplicity
  _atom_site_fract_x
  _atom_site_fract_y
  _atom_site_fract_z
  _atom_site_occupancy
  O   O1        1.0  0.24600  0.91300  0.00533  1.0000
  O   O2        1.0  0.91800  0.15500  0.02600  1.0000
  O   O3        1.0  0.76700  0.88600  0.06890  1.0000
  O   O4        1.0  0.31900  0.14300  0.17900  1.0000
  O   O5        1.0  0.17000  0.55200  0.20100  1.0000
  O   O6        1.0  0.81000  0.35900  0.23700  1.0000
  O   O7        1.0  0.19000  0.85900  0.26300  1.0000
  O   O8        1.0  0.83000  0.05160  0.29900  1.0000
  O   O9        1.0  0.68100  0.64300  0.32100  1.0000
  O   O10       1.0  0.23300  0.38600  0.43100  1.0000
  O   O11       1.0  0.08230  0.65500  0.47400  1.0000
  O   O12       1.0  0.75400  0.41300  0.49500  1.0000
  O   O13       1.0  0.25400  0.08710  0.50500  1.0000
  O   O14       1.0  0.58200  0.84500  0.52600  1.0000
  O   O15       1.0  0.73300  0.11400  0.56900  1.0000
  O   O16       1.0  0.18100  0.85700  0.67900  1.0000
  O   O17       1.0  0.33000  0.44800  0.70100  1.0000
  O   O18       1.0  0.69000  0.64100  0.73700  1.0000
  O   O19       1.0  0.31000  0.14100  0.76300  1.0000
  O   O20       1.0  0.67000  0.94800  0.79900  1.0000
  O   O21       1.0  0.81900  0.35700  0.82100  1.0000
  O   O22       1.0  0.26700  0.61400  0.93100  1.0000
  O   O23       1.0  0.41800  0.34500  0.97400  1.0000
  O   O24       1.0  0.74600  0.58700  0.99500  1.0000
  Te  Te1       1.0  0.03980  0.00501  0.14800  1.0000
  Te  Te2       1.0  0.96000  0.50500  0.35200  1.0000
  Te  Te3       1.0  0.46000  0.99500  0.64800  1.0000
  Te  Te4       1.0  0.54000  0.49500  0.85200  1.0000
  Y   Y1        1.0  0.02140  0.39600  0.03770  1.0000
  Y   Y2        1.0  0.46300  0.71800  0.13500  1.0000
  Y   Y3        1.0  0.53700  0.21800  0.36500  1.0000
  Y   Y4        1.0  0.97900  0.89600  0.46200  1.0000
  Y   Y5        1.0  0.47900  0.60400  0.53800  1.0000
  Y   Y6        1.0  0.03730  0.28200  0.63500  1.0000
  Y   Y7        1.0  0.96300  0.78200  0.86500  1.0000
  Y   Y8        1.0  0.52100  0.10400  0.96200  1.0000
