data_image0
_chemical_formula_structural       Pb16Y20
_chemical_formula_sum              "Pb16 Y20"
_cell_length_a       8.18927
_cell_length_b       15.6192
_cell_length_c       8.26827
_cell_angle_alpha    90
_cell_angle_beta     90
_cell_angle_gamma    90

_space_group_name_H-M_alt    "P 1"
_space_group_IT_number       1

loop_
  _space_group_symop_operation_xyz
  'x, y, z'

loop_
  _atom_site_type_symbol
  _atom_site_label
  _atom_site_symmetry_multiplicity
  _atom_site_fract_x
  _atom_site_fract_y
  _atom_site_fract_z
  _atom_site_occupancy
  Pb  Pb1       1.0  0.28200  0.04270  0.03430  1.0000
  Pb  Pb2       1.0  0.28200  0.45700  0.03430  1.0000
  Pb  Pb3       1.0  0.93000  0.25000  0.12400  1.0000
  Pb  Pb4       1.0  0.34600  0.75000  0.15200  1.0000
  Pb  Pb5       1.0  0.84600  0.75000  0.34800  1.0000
  Pb  Pb6       1.0  0.43000  0.25000  0.37600  1.0000
  Pb  Pb7       1.0  0.78200  0.04270  0.46600  1.0000
  Pb  Pb8       1.0  0.78200  0.45700  0.46600  1.0000
  Pb  Pb9       1.0  0.21800  0.54300  0.53400  1.0000
  Pb  Pb10      1.0  0.21800  0.95700  0.53400  1.0000
  Pb  Pb11      1.0  0.57000  0.75000  0.62400  1.0000
  Pb  Pb12      1.0  0.15400  0.25000  0.65200  1.0000
  Pb  Pb13      1.0  0.65400  0.25000  0.84800  1.0000
  Pb  Pb14      1.0  0.07050  0.75000  0.87600  1.0000
  Pb  Pb15      1.0  0.71800  0.54300  0.96600  1.0000
  Pb  Pb16      1.0  0.71800  0.95700  0.96600  1.0000
  Y   Y1        1.0  0.29200  0.25000  0.00315  1.0000
  Y   Y2        1.0  0.62500  0.12100  0.15800  1.0000
  Y   Y3        1.0  0.62500  0.37900  0.15800  1.0000
  Y   Y4        1.0  0.03450  0.59900  0.17600  1.0000
  Y   Y5        1.0  0.03450  0.90100  0.17600  1.0000
  Y   Y6        1.0  0.53400  0.59900  0.32400  1.0000
  Y   Y7        1.0  0.53400  0.90100  0.32400  1.0000
  Y   Y8        1.0  0.12500  0.12100  0.34200  1.0000
  Y   Y9        1.0  0.12500  0.37900  0.34200  1.0000
  Y   Y10       1.0  0.79200  0.25000  0.49700  1.0000
  Y   Y11       1.0  0.20800  0.75000  0.50300  1.0000
  Y   Y12       1.0  0.87500  0.62100  0.65800  1.0000
  Y   Y13       1.0  0.87500  0.87900  0.65800  1.0000
  Y   Y14       1.0  0.46600  0.09930  0.67600  1.0000
  Y   Y15       1.0  0.46600  0.40100  0.67600  1.0000
  Y   Y16       1.0  0.96600  0.09930  0.82400  1.0000
  Y   Y17       1.0  0.96600  0.40100  0.82400  1.0000
  Y   Y18       1.0  0.37500  0.62100  0.84200  1.0000
  Y   Y19       1.0  0.37500  0.87900  0.84200  1.0000
  Y   Y20       1.0  0.70800  0.75000  0.99700  1.0000
