data_image0
_chemical_formula_structural       AlLi3MnO6
_chemical_formula_sum              "Al1 Li3 Mn1 O6"
_cell_length_a       4.87529
_cell_length_b       4.87529
_cell_length_c       4.93576
_cell_angle_alpha    99.5527
_cell_angle_beta     99.5527
_cell_angle_gamma    120.078

_space_group_name_H-M_alt    "P 1"
_space_group_IT_number       1

loop_
  _space_group_symop_operation_xyz
  'x, y, z'

loop_
  _atom_site_type_symbol
  _atom_site_label
  _atom_site_symmetry_multiplicity
  _atom_site_fract_x
  _atom_site_fract_y
  _atom_site_fract_z
  _atom_site_occupancy
  Al  Al1       1.0  0.16500  0.83500  0.00000  1.0000
  Li  Li1       1.0  0.99600  0.00431  0.50000  1.0000
  Li  Li2       1.0  0.65000  0.35000  0.50000  1.0000
  Li  Li3       1.0  0.35400  0.64600  0.50000  1.0000
  Mn  Mn1       1.0  0.83200  0.16800  0.00000  1.0000
  O   O1        1.0  0.57700  0.94000  0.23100  1.0000
  O   O2        1.0  0.21600  0.21500  0.23100  1.0000
  O   O3        1.0  0.94100  0.57700  0.23300  1.0000
  O   O4        1.0  0.42300  0.05870  0.76700  1.0000
  O   O5        1.0  0.78500  0.78400  0.76900  1.0000
  O   O6        1.0  0.06030  0.42300  0.76900  1.0000
