data_image0
_chemical_formula_structural       Ba8Bi4Fe4S20
_chemical_formula_sum              "Ba8 Bi4 Fe4 S20"
_cell_length_a       12.1871
_cell_length_b       8.92745
_cell_length_c       8.96334
_cell_angle_alpha    90
_cell_angle_beta     90
_cell_angle_gamma    90

_space_group_name_H-M_alt    "P 1"
_space_group_IT_number       1

loop_
  _space_group_symop_operation_xyz
  'x, y, z'

loop_
  _atom_site_type_symbol
  _atom_site_label
  _atom_site_symmetry_multiplicity
  _atom_site_fract_x
  _atom_site_fract_y
  _atom_site_fract_z
  _atom_site_occupancy
  Ba  Ba1       1.0  0.82300  0.00887  0.11700  1.0000
  Ba  Ba2       1.0  0.82300  0.49100  0.11700  1.0000
  Ba  Ba3       1.0  0.32300  0.00887  0.38300  1.0000
  Ba  Ba4       1.0  0.32300  0.49100  0.38300  1.0000
  Ba  Ba5       1.0  0.67700  0.50900  0.61700  1.0000
  Ba  Ba6       1.0  0.67700  0.99100  0.61700  1.0000
  Ba  Ba7       1.0  0.17700  0.50900  0.88300  1.0000
  Ba  Ba8       1.0  0.17700  0.99100  0.88300  1.0000
  Bi  Bi1       1.0  0.48500  0.75000  0.03250  1.0000
  Bi  Bi2       1.0  0.98500  0.75000  0.46700  1.0000
  Bi  Bi3       1.0  0.01480  0.25000  0.53300  1.0000
  Bi  Bi4       1.0  0.51500  0.25000  0.96700  1.0000
  Fe  Fe1       1.0  0.09500  0.25000  0.17400  1.0000
  Fe  Fe2       1.0  0.59500  0.25000  0.32600  1.0000
  Fe  Fe3       1.0  0.40500  0.75000  0.67400  1.0000
  Fe  Fe4       1.0  0.90500  0.75000  0.82600  1.0000
  S   S1        1.0  0.00425  0.75000  0.03110  1.0000
  S   S2        1.0  0.27400  0.25000  0.11700  1.0000
  S   S3        1.0  0.28600  0.75000  0.12800  1.0000
  S   S4        1.0  0.55500  0.04580  0.18300  1.0000
  S   S5        1.0  0.55500  0.45400  0.18300  1.0000
  S   S6        1.0  0.05510  0.04580  0.31700  1.0000
  S   S7        1.0  0.05510  0.45400  0.31700  1.0000
  S   S8        1.0  0.78600  0.75000  0.37200  1.0000
  S   S9        1.0  0.77400  0.25000  0.38300  1.0000
  S   S10       1.0  0.50400  0.75000  0.46900  1.0000
  S   S11       1.0  0.49600  0.25000  0.53100  1.0000
  S   S12       1.0  0.22600  0.75000  0.61700  1.0000
  S   S13       1.0  0.21400  0.25000  0.62800  1.0000
  S   S14       1.0  0.94500  0.54600  0.68300  1.0000
  S   S15       1.0  0.94500  0.95400  0.68300  1.0000
  S   S16       1.0  0.44500  0.54600  0.81700  1.0000
  S   S17       1.0  0.44500  0.95400  0.81700  1.0000
  S   S18       1.0  0.71400  0.25000  0.87200  1.0000
  S   S19       1.0  0.72600  0.75000  0.88300  1.0000
  S   S20       1.0  0.99600  0.25000  0.96900  1.0000
