data_image0
_chemical_formula_structural       In6Na14Se16
_chemical_formula_sum              "In6 Na14 Se16"
_cell_length_a       13.582
_cell_length_b       6.69939
_cell_length_c       10.4808
_cell_angle_alpha    90.3705
_cell_angle_beta     91.7683
_cell_angle_gamma    90.1553

_space_group_name_H-M_alt    "P 1"
_space_group_IT_number       1

loop_
  _space_group_symop_operation_xyz
  'x, y, z'

loop_
  _atom_site_type_symbol
  _atom_site_label
  _atom_site_symmetry_multiplicity
  _atom_site_fract_x
  _atom_site_fract_y
  _atom_site_fract_z
  _atom_site_occupancy
  In  In1       1.0  0.07400  0.86500  0.11200  1.0000
  In  In2       1.0  0.69500  0.12700  0.15600  1.0000
  In  In3       1.0  0.43400  0.13700  0.38200  1.0000
  In  In4       1.0  0.56600  0.86300  0.61800  1.0000
  In  In5       1.0  0.30500  0.87300  0.84400  1.0000
  In  In6       1.0  0.92600  0.13500  0.88800  1.0000
  Na  Na1       1.0  0.27400  0.27900  0.11000  1.0000
  Na  Na2       1.0  0.48400  0.74500  0.12900  1.0000
  Na  Na3       1.0  0.87500  0.52200  0.14000  1.0000
  Na  Na4       1.0  0.01980  0.25500  0.36100  1.0000
  Na  Na5       1.0  0.82200  0.85300  0.37400  1.0000
  Na  Na6       1.0  0.63400  0.51800  0.37700  1.0000
  Na  Na7       1.0  0.23400  0.73200  0.38600  1.0000
  Na  Na8       1.0  0.76600  0.26800  0.61400  1.0000
  Na  Na9       1.0  0.36600  0.48200  0.62300  1.0000
  Na  Na10      1.0  0.17800  0.14700  0.62600  1.0000
  Na  Na11      1.0  0.98000  0.74500  0.63900  1.0000
  Na  Na12      1.0  0.12500  0.47800  0.86000  1.0000
  Na  Na13      1.0  0.51600  0.25500  0.87100  1.0000
  Na  Na14      1.0  0.72600  0.72100  0.89000  1.0000
  Se  Se1       1.0  0.25700  0.74500  0.07650  1.0000
  Se  Se2       1.0  0.04780  0.25400  0.07790  1.0000
  Se  Se3       1.0  0.69300  0.74600  0.15700  1.0000
  Se  Se4       1.0  0.50900  0.26000  0.16600  1.0000
  Se  Se5       1.0  0.02300  0.74300  0.33400  1.0000
  Se  Se6       1.0  0.80500  0.27500  0.33900  1.0000
  Se  Se7       1.0  0.25600  0.26200  0.38500  1.0000
  Se  Se8       1.0  0.45300  0.74700  0.41800  1.0000
  Se  Se9       1.0  0.54700  0.25300  0.58200  1.0000
  Se  Se10      1.0  0.74400  0.73800  0.61500  1.0000
  Se  Se11      1.0  0.19500  0.72500  0.66100  1.0000
  Se  Se12      1.0  0.97700  0.25700  0.66600  1.0000
  Se  Se13      1.0  0.49100  0.74000  0.83400  1.0000
  Se  Se14      1.0  0.30700  0.25400  0.84300  1.0000
  Se  Se15      1.0  0.95200  0.74600  0.92200  1.0000
  Se  Se16      1.0  0.74300  0.25500  0.92400  1.0000
