data_image0
_chemical_formula_structural       Cs4I4Mo4O24
_chemical_formula_sum              "Cs4 I4 Mo4 O24"
_cell_length_a       7.74755
_cell_length_b       10.3649
_cell_length_c       7.38044
_cell_angle_alpha    90
_cell_angle_beta     90
_cell_angle_gamma    90

_space_group_name_H-M_alt    "P 1"
_space_group_IT_number       1

loop_
  _space_group_symop_operation_xyz
  'x, y, z'

loop_
  _atom_site_type_symbol
  _atom_site_label
  _atom_site_symmetry_multiplicity
  _atom_site_fract_x
  _atom_site_fract_y
  _atom_site_fract_z
  _atom_site_occupancy
  Cs  Cs1       1.0  0.48600  0.11800  0.36500  1.0000
  Cs  Cs2       1.0  0.98600  0.38200  0.36500  1.0000
  Cs  Cs3       1.0  0.01390  0.61800  0.86500  1.0000
  Cs  Cs4       1.0  0.51400  0.88200  0.86500  1.0000
  I   I1        1.0  0.27900  0.74100  0.42300  1.0000
  I   I2        1.0  0.77900  0.75900  0.42300  1.0000
  I   I3        1.0  0.22100  0.24100  0.92300  1.0000
  I   I4        1.0  0.72100  0.25900  0.92300  1.0000
  Mo  Mo1       1.0  0.50700  0.52900  0.09710  1.0000
  Mo  Mo2       1.0  0.00730  0.97100  0.09710  1.0000
  Mo  Mo3       1.0  0.99300  0.02900  0.59700  1.0000
  Mo  Mo4       1.0  0.49300  0.47100  0.59700  1.0000
  O   O1        1.0  0.36200  0.65000  0.03560  1.0000
  O   O2        1.0  0.86200  0.85000  0.03560  1.0000
  O   O3        1.0  0.78000  0.11100  0.04360  1.0000
  O   O4        1.0  0.28000  0.38900  0.04360  1.0000
  O   O5        1.0  0.14200  0.15700  0.13100  1.0000
  O   O6        1.0  0.64200  0.34300  0.13100  1.0000
  O   O7        1.0  0.69900  0.61500  0.13900  1.0000
  O   O8        1.0  0.19900  0.88500  0.13900  1.0000
  O   O9        1.0  0.43300  0.51300  0.33900  1.0000
  O   O10       1.0  0.93300  0.98700  0.33900  1.0000
  O   O11       1.0  0.06690  0.66000  0.41100  1.0000
  O   O12       1.0  0.56700  0.84000  0.41100  1.0000
  O   O13       1.0  0.13800  0.15000  0.53600  1.0000
  O   O14       1.0  0.63800  0.35000  0.53600  1.0000
  O   O15       1.0  0.72000  0.61100  0.54400  1.0000
  O   O16       1.0  0.22000  0.88900  0.54400  1.0000
  O   O17       1.0  0.35800  0.65700  0.63100  1.0000
  O   O18       1.0  0.85800  0.84300  0.63100  1.0000
  O   O19       1.0  0.80100  0.11500  0.63900  1.0000
  O   O20       1.0  0.30100  0.38500  0.63900  1.0000
  O   O21       1.0  0.06700  0.01280  0.83900  1.0000
  O   O22       1.0  0.56700  0.48700  0.83900  1.0000
  O   O23       1.0  0.43300  0.16000  0.91100  1.0000
  O   O24       1.0  0.93300  0.34000  0.91100  1.0000
