data_image0
_chemical_formula_structural       Eu4Ge4K8Se20
_chemical_formula_sum              "Eu4 Ge4 K8 Se20"
_cell_length_a       11.8122
_cell_length_b       10.0529
_cell_length_c       9.00852
_cell_angle_alpha    90
_cell_angle_beta     90.9532
_cell_angle_gamma    90

_space_group_name_H-M_alt    "P 1"
_space_group_IT_number       1

loop_
  _space_group_symop_operation_xyz
  'x, y, z'

loop_
  _atom_site_type_symbol
  _atom_site_label
  _atom_site_symmetry_multiplicity
  _atom_site_fract_x
  _atom_site_fract_y
  _atom_site_fract_z
  _atom_site_occupancy
  Eu  Eu1       1.0  0.48500  0.72600  0.10200  1.0000
  Eu  Eu2       1.0  0.51500  0.22600  0.39800  1.0000
  Eu  Eu3       1.0  0.48500  0.77400  0.60200  1.0000
  Eu  Eu4       1.0  0.51500  0.27400  0.89800  1.0000
  Ge  Ge1       1.0  0.74400  0.47900  0.20400  1.0000
  Ge  Ge2       1.0  0.25600  0.97900  0.29600  1.0000
  Ge  Ge3       1.0  0.74400  0.02110  0.70400  1.0000
  Ge  Ge4       1.0  0.25600  0.52100  0.79600  1.0000
  K   K1        1.0  0.05480  0.70000  0.03950  1.0000
  K   K2        1.0  0.79900  0.94400  0.12900  1.0000
  K   K3        1.0  0.20100  0.44400  0.37100  1.0000
  K   K4        1.0  0.94500  0.20000  0.46100  1.0000
  K   K5        1.0  0.05480  0.80000  0.53900  1.0000
  K   K6        1.0  0.79900  0.55600  0.62900  1.0000
  K   K7        1.0  0.20100  0.05560  0.87100  1.0000
  K   K8        1.0  0.94500  0.30000  0.96100  1.0000
  Se  Se1       1.0  0.25800  0.36200  0.00000  1.0000
  Se  Se2       1.0  0.74200  0.63800  0.00000  1.0000
  Se  Se3       1.0  0.41100  0.03350  0.13700  1.0000
  Se  Se4       1.0  0.70800  0.25500  0.13900  1.0000
  Se  Se5       1.0  0.42100  0.43600  0.17200  1.0000
  Se  Se6       1.0  0.07170  0.01100  0.19400  1.0000
  Se  Se7       1.0  0.92800  0.51100  0.30600  1.0000
  Se  Se8       1.0  0.57900  0.93600  0.32800  1.0000
  Se  Se9       1.0  0.29200  0.75500  0.36100  1.0000
  Se  Se10      1.0  0.58900  0.53300  0.36300  1.0000
  Se  Se11      1.0  0.74200  0.86200  0.50000  1.0000
  Se  Se12      1.0  0.25800  0.13800  0.50000  1.0000
  Se  Se13      1.0  0.41100  0.46700  0.63700  1.0000
  Se  Se14      1.0  0.70800  0.24500  0.63900  1.0000
  Se  Se15      1.0  0.42100  0.06360  0.67200  1.0000
  Se  Se16      1.0  0.07170  0.48900  0.69400  1.0000
  Se  Se17      1.0  0.92800  0.98900  0.80600  1.0000
  Se  Se18      1.0  0.57900  0.56400  0.82800  1.0000
  Se  Se19      1.0  0.29200  0.74500  0.86100  1.0000
  Se  Se20      1.0  0.58900  0.96700  0.86300  1.0000
