data_image0
_chemical_formula_structural       Li2O24Te4V6
_chemical_formula_sum              "Li2 O24 Te4 V6"
_cell_length_a       6.14847
_cell_length_b       7.01557
_cell_length_c       10.6823
_cell_angle_alpha    92.2114
_cell_angle_beta     92.9367
_cell_angle_gamma    105.682

_space_group_name_H-M_alt    "P 1"
_space_group_IT_number       1

loop_
  _space_group_symop_operation_xyz
  'x, y, z'

loop_
  _atom_site_type_symbol
  _atom_site_label
  _atom_site_symmetry_multiplicity
  _atom_site_fract_x
  _atom_site_fract_y
  _atom_site_fract_z
  _atom_site_occupancy
  Li  Li1       1.0  0.79000  0.77800  0.10800  1.0000
  Li  Li2       1.0  0.21000  0.22200  0.89200  1.0000
  O   O1        1.0  0.30200  0.23300  0.06800  1.0000
  O   O2        1.0  0.41800  0.84100  0.08140  1.0000
  O   O3        1.0  0.74900  0.46800  0.09520  1.0000
  O   O4        1.0  0.85600  0.12300  0.11800  1.0000
  O   O5        1.0  0.08830  0.90200  0.21600  1.0000
  O   O6        1.0  0.16800  0.56200  0.23900  1.0000
  O   O7        1.0  0.51500  0.16100  0.25500  1.0000
  O   O8        1.0  0.62100  0.71500  0.26700  1.0000
  O   O9        1.0  0.85700  0.05790  0.40300  1.0000
  O   O10       1.0  0.37900  0.88300  0.40800  1.0000
  O   O11       1.0  0.80100  0.41200  0.42600  1.0000
  O   O12       1.0  0.35600  0.27500  0.45900  1.0000
  O   O13       1.0  0.64400  0.72500  0.54100  1.0000
  O   O14       1.0  0.19900  0.58800  0.57400  1.0000
  O   O15       1.0  0.62100  0.11700  0.59200  1.0000
  O   O16       1.0  0.14300  0.94200  0.59700  1.0000
  O   O17       1.0  0.37900  0.28500  0.73300  1.0000
  O   O18       1.0  0.48500  0.83900  0.74500  1.0000
  O   O19       1.0  0.83200  0.43800  0.76100  1.0000
  O   O20       1.0  0.91200  0.09750  0.78400  1.0000
  O   O21       1.0  0.14400  0.87700  0.88200  1.0000
  O   O22       1.0  0.25100  0.53200  0.90500  1.0000
  O   O23       1.0  0.58200  0.15900  0.91900  1.0000
  O   O24       1.0  0.69800  0.76700  0.93200  1.0000
  Te  Te1       1.0  0.14500  0.19100  0.21800  1.0000
  Te  Te2       1.0  0.84300  0.77500  0.40600  1.0000
  Te  Te3       1.0  0.15700  0.22500  0.59400  1.0000
  Te  Te4       1.0  0.85500  0.80900  0.78200  1.0000
  V   V1        1.0  0.62100  0.23300  0.08560  1.0000
  V   V2        1.0  0.34100  0.78500  0.24200  1.0000
  V   V3        1.0  0.61600  0.19300  0.42300  1.0000
  V   V4        1.0  0.38400  0.80700  0.57700  1.0000
  V   V5        1.0  0.65900  0.21500  0.75800  1.0000
  V   V6        1.0  0.37900  0.76700  0.91400  1.0000
