data_image0
_chemical_formula_structural       B4Co8Fe4O20
_chemical_formula_sum              "B4 Co8 Fe4 O20"
_cell_length_a       9.33578
_cell_length_b       12.3101
_cell_length_c       3.01423
_cell_angle_alpha    90
_cell_angle_beta     90
_cell_angle_gamma    90

_space_group_name_H-M_alt    "P 1"
_space_group_IT_number       1

loop_
  _space_group_symop_operation_xyz
  'x, y, z'

loop_
  _atom_site_type_symbol
  _atom_site_label
  _atom_site_symmetry_multiplicity
  _atom_site_fract_x
  _atom_site_fract_y
  _atom_site_fract_z
  _atom_site_occupancy
  B   B1        1.0  0.77200  0.13900  0.50000  1.0000
  B   B2        1.0  0.27200  0.36100  0.50000  1.0000
  B   B3        1.0  0.72800  0.63900  0.50000  1.0000
  B   B4        1.0  0.22800  0.86100  0.50000  1.0000
  Co  Co1       1.0  0.00000  0.00000  0.00000  1.0000
  Co  Co2       1.0  0.49900  0.21800  0.00000  1.0000
  Co  Co3       1.0  0.99900  0.28200  0.00000  1.0000
  Co  Co4       1.0  0.50000  0.50000  0.00000  1.0000
  Co  Co5       1.0  0.00070  0.71800  0.00000  1.0000
  Co  Co6       1.0  0.50100  0.78200  0.00000  1.0000
  Co  Co7       1.0  0.50000  0.00000  0.50000  1.0000
  Co  Co8       1.0  0.00000  0.50000  0.50000  1.0000
  Fe  Fe1       1.0  0.23900  0.11600  0.50000  1.0000
  Fe  Fe2       1.0  0.73900  0.38400  0.50000  1.0000
  Fe  Fe3       1.0  0.26100  0.61600  0.50000  1.0000
  Fe  Fe4       1.0  0.76100  0.88400  0.50000  1.0000
  O   O1        1.0  0.38000  0.07720  0.00000  1.0000
  O   O2        1.0  0.10700  0.14400  0.00000  1.0000
  O   O3        1.0  0.60700  0.35600  0.00000  1.0000
  O   O4        1.0  0.88000  0.42300  0.00000  1.0000
  O   O5        1.0  0.12000  0.57700  0.00000  1.0000
  O   O6        1.0  0.39300  0.64400  0.00000  1.0000
  O   O7        1.0  0.89300  0.85600  0.00000  1.0000
  O   O8        1.0  0.62000  0.92300  0.00000  1.0000
  O   O9        1.0  0.84700  0.04220  0.50000  1.0000
  O   O10       1.0  0.62400  0.14100  0.50000  1.0000
  O   O11       1.0  0.84600  0.23700  0.50000  1.0000
  O   O12       1.0  0.34600  0.26300  0.50000  1.0000
  O   O13       1.0  0.12400  0.35900  0.50000  1.0000
  O   O14       1.0  0.34700  0.45800  0.50000  1.0000
  O   O15       1.0  0.65300  0.54200  0.50000  1.0000
  O   O16       1.0  0.87600  0.64100  0.50000  1.0000
  O   O17       1.0  0.65400  0.73700  0.50000  1.0000
  O   O18       1.0  0.15400  0.76300  0.50000  1.0000
  O   O19       1.0  0.37600  0.85900  0.50000  1.0000
  O   O20       1.0  0.15300  0.95800  0.50000  1.0000
