data_image0
_chemical_formula_structural       K8Na12P12Si4
_chemical_formula_sum              "K8 Na12 P12 Si4"
_cell_length_a       14.5817
_cell_length_b       4.74695
_cell_length_c       13.1384
_cell_angle_alpha    90
_cell_angle_beta     90
_cell_angle_gamma    90

_space_group_name_H-M_alt    "P 1"
_space_group_IT_number       1

loop_
  _space_group_symop_operation_xyz
  'x, y, z'

loop_
  _atom_site_type_symbol
  _atom_site_label
  _atom_site_symmetry_multiplicity
  _atom_site_fract_x
  _atom_site_fract_y
  _atom_site_fract_z
  _atom_site_occupancy
  K   K1        1.0  0.70000  0.75000  0.05960  1.0000
  K   K2        1.0  0.51100  0.25000  0.13800  1.0000
  K   K3        1.0  0.01090  0.25000  0.36200  1.0000
  K   K4        1.0  0.20000  0.75000  0.44000  1.0000
  K   K5        1.0  0.80000  0.25000  0.56000  1.0000
  K   K6        1.0  0.98900  0.75000  0.63800  1.0000
  K   K7        1.0  0.48900  0.75000  0.86200  1.0000
  K   K8        1.0  0.30000  0.25000  0.94000  1.0000
  Na  Na1       1.0  0.05870  0.25000  0.07080  1.0000
  Na  Na2       1.0  0.91500  0.75000  0.18100  1.0000
  Na  Na3       1.0  0.25800  0.25000  0.23300  1.0000
  Na  Na4       1.0  0.75800  0.25000  0.26700  1.0000
  Na  Na5       1.0  0.41500  0.75000  0.31900  1.0000
  Na  Na6       1.0  0.55900  0.25000  0.42900  1.0000
  Na  Na7       1.0  0.44100  0.75000  0.57100  1.0000
  Na  Na8       1.0  0.58500  0.25000  0.68100  1.0000
  Na  Na9       1.0  0.24200  0.75000  0.73300  1.0000
  Na  Na10      1.0  0.74200  0.75000  0.76700  1.0000
  Na  Na11      1.0  0.08510  0.25000  0.81900  1.0000
  Na  Na12      1.0  0.94100  0.75000  0.92900  1.0000
  P   P1        1.0  0.85900  0.25000  0.06790  1.0000
  P   P2        1.0  0.35200  0.75000  0.10600  1.0000
  P   P3        1.0  0.11200  0.75000  0.21700  1.0000
  P   P4        1.0  0.61200  0.75000  0.28300  1.0000
  P   P5        1.0  0.85200  0.75000  0.39400  1.0000
  P   P6        1.0  0.35900  0.25000  0.43200  1.0000
  P   P7        1.0  0.64100  0.75000  0.56800  1.0000
  P   P8        1.0  0.14800  0.25000  0.60600  1.0000
  P   P9        1.0  0.38800  0.25000  0.71700  1.0000
  P   P10       1.0  0.88800  0.25000  0.78300  1.0000
  P   P11       1.0  0.64800  0.25000  0.89400  1.0000
  P   P12       1.0  0.14100  0.75000  0.93200  1.0000
  Si  Si1       1.0  0.20300  0.75000  0.08510  1.0000
  Si  Si2       1.0  0.70300  0.75000  0.41500  1.0000
  Si  Si3       1.0  0.29700  0.25000  0.58500  1.0000
  Si  Si4       1.0  0.79700  0.25000  0.91500  1.0000
