data_image0
_chemical_formula_structural       Br4Cu4P16S12
_chemical_formula_sum              "Br4 Cu4 P16 S12"
_cell_length_a       6.43165
_cell_length_b       9.33028
_cell_length_c       15.7074
_cell_angle_alpha    98.5269
_cell_angle_beta     97.8697
_cell_angle_gamma    106.581

_space_group_name_H-M_alt    "P 1"
_space_group_IT_number       1

loop_
  _space_group_symop_operation_xyz
  'x, y, z'

loop_
  _atom_site_type_symbol
  _atom_site_label
  _atom_site_symmetry_multiplicity
  _atom_site_fract_x
  _atom_site_fract_y
  _atom_site_fract_z
  _atom_site_occupancy
  Br  Br1       1.0  0.75100  0.69400  0.08420  1.0000
  Br  Br2       1.0  0.37500  0.88500  0.19400  1.0000
  Br  Br3       1.0  0.62500  0.11500  0.80600  1.0000
  Br  Br4       1.0  0.24900  0.30600  0.91600  1.0000
  Cu  Cu1       1.0  0.35700  0.65900  0.08350  1.0000
  Cu  Cu2       1.0  0.00539  0.89200  0.20900  1.0000
  Cu  Cu3       1.0  0.99500  0.10800  0.79100  1.0000
  Cu  Cu4       1.0  0.64300  0.34100  0.91700  1.0000
  P   P1        1.0  0.80600  0.31500  0.04990  1.0000
  P   P2        1.0  0.15000  0.44700  0.12100  1.0000
  P   P3        1.0  0.98700  0.11600  0.17600  1.0000
  P   P4        1.0  0.86300  0.43600  0.19300  1.0000
  P   P5        1.0  0.53500  0.65700  0.31500  1.0000
  P   P6        1.0  0.88000  0.81600  0.32700  1.0000
  P   P7        1.0  0.65000  0.88600  0.40900  1.0000
  P   P8        1.0  0.86000  0.64100  0.49400  1.0000
  P   P9        1.0  0.14000  0.35900  0.50600  1.0000
  P   P10       1.0  0.35000  0.11400  0.59100  1.0000
  P   P11       1.0  0.12000  0.18400  0.67300  1.0000
  P   P12       1.0  0.46500  0.34300  0.68500  1.0000
  P   P13       1.0  0.13700  0.56400  0.80700  1.0000
  P   P14       1.0  0.01280  0.88400  0.82400  1.0000
  P   P15       1.0  0.85000  0.55300  0.87900  1.0000
  P   P16       1.0  0.19400  0.68500  0.95000  1.0000
  S   S1        1.0  0.77900  0.08820  0.05480  1.0000
  S   S2        1.0  0.27900  0.27800  0.15900  1.0000
  S   S3        1.0  0.86600  0.25800  0.26100  1.0000
  S   S4        1.0  0.58800  0.50400  0.39400  1.0000
  S   S5        1.0  0.07850  0.73300  0.41200  1.0000
  S   S6        1.0  0.25300  0.17000  0.47100  1.0000
  S   S7        1.0  0.74700  0.83000  0.52900  1.0000
  S   S8        1.0  0.92200  0.26700  0.58800  1.0000
  S   S9        1.0  0.41200  0.49600  0.60600  1.0000
  S   S10       1.0  0.13400  0.74200  0.73900  1.0000
  S   S11       1.0  0.72100  0.72200  0.84100  1.0000
  S   S12       1.0  0.22100  0.91200  0.94500  1.0000
