data_image0
_chemical_formula_structural       Ba8Fe4S20Sb4
_chemical_formula_sum              "Ba8 Fe4 S20 Sb4"
_cell_length_a       12.1723
_cell_length_b       8.8807
_cell_length_c       9.00249
_cell_angle_alpha    90
_cell_angle_beta     90
_cell_angle_gamma    90

_space_group_name_H-M_alt    "P 1"
_space_group_IT_number       1

loop_
  _space_group_symop_operation_xyz
  'x, y, z'

loop_
  _atom_site_type_symbol
  _atom_site_label
  _atom_site_symmetry_multiplicity
  _atom_site_fract_x
  _atom_site_fract_y
  _atom_site_fract_z
  _atom_site_occupancy
  Ba  Ba1       1.0  0.82300  0.00721  0.12200  1.0000
  Ba  Ba2       1.0  0.82300  0.49300  0.12200  1.0000
  Ba  Ba3       1.0  0.32300  0.00721  0.37800  1.0000
  Ba  Ba4       1.0  0.32300  0.49300  0.37800  1.0000
  Ba  Ba5       1.0  0.67700  0.50700  0.62200  1.0000
  Ba  Ba6       1.0  0.67700  0.99300  0.62200  1.0000
  Ba  Ba7       1.0  0.17700  0.50700  0.87800  1.0000
  Ba  Ba8       1.0  0.17700  0.99300  0.87800  1.0000
  Fe  Fe1       1.0  0.09480  0.25000  0.17100  1.0000
  Fe  Fe2       1.0  0.59500  0.25000  0.32900  1.0000
  Fe  Fe3       1.0  0.40500  0.75000  0.67100  1.0000
  Fe  Fe4       1.0  0.90500  0.75000  0.82900  1.0000
  S   S1        1.0  0.00610  0.75000  0.03180  1.0000
  S   S2        1.0  0.27300  0.25000  0.11400  1.0000
  S   S3        1.0  0.28900  0.75000  0.11700  1.0000
  S   S4        1.0  0.55400  0.04860  0.17900  1.0000
  S   S5        1.0  0.55400  0.45100  0.17900  1.0000
  S   S6        1.0  0.05440  0.04860  0.32100  1.0000
  S   S7        1.0  0.05440  0.45100  0.32100  1.0000
  S   S8        1.0  0.78900  0.75000  0.38300  1.0000
  S   S9        1.0  0.77300  0.25000  0.38600  1.0000
  S   S10       1.0  0.50600  0.75000  0.46800  1.0000
  S   S11       1.0  0.49400  0.25000  0.53200  1.0000
  S   S12       1.0  0.22700  0.75000  0.61400  1.0000
  S   S13       1.0  0.21100  0.25000  0.61700  1.0000
  S   S14       1.0  0.94600  0.54900  0.67900  1.0000
  S   S15       1.0  0.94600  0.95100  0.67900  1.0000
  S   S16       1.0  0.44600  0.54900  0.82100  1.0000
  S   S17       1.0  0.44600  0.95100  0.82100  1.0000
  S   S18       1.0  0.71100  0.25000  0.88300  1.0000
  S   S19       1.0  0.72700  0.75000  0.88600  1.0000
  S   S20       1.0  0.99400  0.25000  0.96800  1.0000
  Sb  Sb1       1.0  0.47900  0.75000  0.01840  1.0000
  Sb  Sb2       1.0  0.97900  0.75000  0.48200  1.0000
  Sb  Sb3       1.0  0.02150  0.25000  0.51800  1.0000
  Sb  Sb4       1.0  0.52100  0.25000  0.98200  1.0000
