data_image0
_chemical_formula_structural       IrLi3MnO6
_chemical_formula_sum              "Ir1 Li3 Mn1 O6"
_cell_length_a       5.06732
_cell_length_b       5.06732
_cell_length_c       4.97496
_cell_angle_alpha    99.0481
_cell_angle_beta     99.0481
_cell_angle_gamma    120.936

_space_group_name_H-M_alt    "P 1"
_space_group_IT_number       1

loop_
  _space_group_symop_operation_xyz
  'x, y, z'

loop_
  _atom_site_type_symbol
  _atom_site_label
  _atom_site_symmetry_multiplicity
  _atom_site_fract_x
  _atom_site_fract_y
  _atom_site_fract_z
  _atom_site_occupancy
  Ir  Ir1       1.0  0.16300  0.83700  0.00000  1.0000
  Li  Li1       1.0  0.50000  0.50000  0.00000  1.0000
  Li  Li2       1.0  0.65900  0.34100  0.50000  1.0000
  Li  Li3       1.0  0.34400  0.65600  0.50000  1.0000
  Mn  Mn1       1.0  0.83600  0.16400  0.00000  1.0000
  O   O1        1.0  0.23000  0.23800  0.22300  1.0000
  O   O2        1.0  0.57200  0.92900  0.22700  1.0000
  O   O3        1.0  0.92200  0.55800  0.22800  1.0000
  O   O4        1.0  0.44200  0.07830  0.77200  1.0000
  O   O5        1.0  0.07120  0.42800  0.77300  1.0000
  O   O6        1.0  0.76200  0.77000  0.77700  1.0000
