data_image0
_chemical_formula_structural       Li3MnO6W
_chemical_formula_sum              "Li3 Mn1 O6 W1"
_cell_length_a       5.06455
_cell_length_b       5.06455
_cell_length_c       5.15773
_cell_angle_alpha    101.73
_cell_angle_beta     101.73
_cell_angle_gamma    116.806

_space_group_name_H-M_alt    "P 1"
_space_group_IT_number       1

loop_
  _space_group_symop_operation_xyz
  'x, y, z'

loop_
  _atom_site_type_symbol
  _atom_site_label
  _atom_site_symmetry_multiplicity
  _atom_site_fract_x
  _atom_site_fract_y
  _atom_site_fract_z
  _atom_site_occupancy
  Li  Li1       1.0  0.50600  0.49400  0.00000  1.0000
  Li  Li2       1.0  0.35100  0.64900  0.50000  1.0000
  Li  Li3       1.0  0.99200  0.00813  0.50000  1.0000
  Mn  Mn1       1.0  0.83100  0.16900  0.00000  1.0000
  O   O1        1.0  0.93700  0.59500  0.21300  1.0000
  O   O2        1.0  0.20800  0.21600  0.22900  1.0000
  O   O3        1.0  0.55300  0.90500  0.24300  1.0000
  O   O4        1.0  0.09500  0.44700  0.75700  1.0000
  O   O5        1.0  0.78400  0.79200  0.77100  1.0000
  O   O6        1.0  0.40500  0.06260  0.78700  1.0000
  W   W1        1.0  0.17600  0.82400  0.00000  1.0000
