data_image0
_chemical_formula_structural       F16H8Mn4O4Tl4
_chemical_formula_sum              "F16 H8 Mn4 O4 Tl4"
_cell_length_a       6.3511
_cell_length_b       7.40491
_cell_length_c       9.87565
_cell_angle_alpha    100.07
_cell_angle_beta     90
_cell_angle_gamma    115.394

_space_group_name_H-M_alt    "P 1"
_space_group_IT_number       1

loop_
  _space_group_symop_operation_xyz
  'x, y, z'

loop_
  _atom_site_type_symbol
  _atom_site_label
  _atom_site_symmetry_multiplicity
  _atom_site_fract_x
  _atom_site_fract_y
  _atom_site_fract_z
  _atom_site_occupancy
  F   F1        1.0  0.78500  0.50100  0.03390  1.0000
  F   F2        1.0  0.65300  0.81300  0.05480  1.0000
  F   F3        1.0  0.04030  0.15800  0.18500  1.0000
  F   F4        1.0  0.62800  0.16500  0.19100  1.0000
  F   F5        1.0  0.46200  0.83500  0.30900  1.0000
  F   F6        1.0  0.88200  0.84200  0.31500  1.0000
  F   F7        1.0  0.84000  0.18700  0.44500  1.0000
  F   F8        1.0  0.28400  0.49900  0.46600  1.0000
  F   F9        1.0  0.71600  0.50100  0.53400  1.0000
  F   F10       1.0  0.16000  0.81300  0.55500  1.0000
  F   F11       1.0  0.11800  0.15800  0.68500  1.0000
  F   F12       1.0  0.53800  0.16500  0.69100  1.0000
  F   F13       1.0  0.37200  0.83500  0.80900  1.0000
  F   F14       1.0  0.96000  0.84200  0.81500  1.0000
  F   F15       1.0  0.34700  0.18700  0.94500  1.0000
  F   F16       1.0  0.21500  0.49900  0.96600  1.0000
  H   H1        1.0  0.27200  0.35800  0.19900  1.0000
  H   H2        1.0  0.82300  0.40400  0.24700  1.0000
  H   H3        1.0  0.41900  0.59600  0.25300  1.0000
  H   H4        1.0  0.91400  0.64200  0.30100  1.0000
  H   H5        1.0  0.08580  0.35800  0.69900  1.0000
  H   H6        1.0  0.58100  0.40400  0.74700  1.0000
  H   H7        1.0  0.17700  0.59600  0.75300  1.0000
  H   H8        1.0  0.72800  0.64200  0.80100  1.0000
  Mn  Mn1       1.0  0.50000  0.50000  0.00000  1.0000
  Mn  Mn2       1.0  0.75300  0.00000  0.25000  1.0000
  Mn  Mn3       1.0  0.00000  0.50000  0.50000  1.0000
  Mn  Mn4       1.0  0.24700  0.00000  0.75000  1.0000
  O   O1        1.0  0.42900  0.47400  0.19900  1.0000
  O   O2        1.0  0.95500  0.52600  0.30100  1.0000
  O   O3        1.0  0.04460  0.47400  0.69900  1.0000
  O   O4        1.0  0.57100  0.52600  0.80100  1.0000
  Tl  Tl1       1.0  0.18200  0.84400  0.07200  1.0000
  Tl  Tl2       1.0  0.33900  0.15600  0.42800  1.0000
  Tl  Tl3       1.0  0.66100  0.84400  0.57200  1.0000
  Tl  Tl4       1.0  0.81800  0.15600  0.92800  1.0000
