data_image0
_chemical_formula_structural       Li3MnO6Ti
_chemical_formula_sum              "Li3 Mn1 O6 Ti1"
_cell_length_a       4.98613
_cell_length_b       4.98613
_cell_length_c       5.00147
_cell_angle_alpha    99.7573
_cell_angle_beta     99.7573
_cell_angle_gamma    119.994

_space_group_name_H-M_alt    "P 1"
_space_group_IT_number       1

loop_
  _space_group_symop_operation_xyz
  'x, y, z'

loop_
  _atom_site_type_symbol
  _atom_site_label
  _atom_site_symmetry_multiplicity
  _atom_site_fract_x
  _atom_site_fract_y
  _atom_site_fract_z
  _atom_site_occupancy
  Li  Li1       1.0  0.64900  0.35100  0.50000  1.0000
  Li  Li2       1.0  0.34900  0.65100  0.50000  1.0000
  Li  Li3       1.0  0.00572  0.99400  0.50000  1.0000
  Mn  Mn1       1.0  0.16800  0.83200  0.00000  1.0000
  O   O1        1.0  0.95000  0.58800  0.23400  1.0000
  O   O2        1.0  0.57000  0.94500  0.23700  1.0000
  O   O3        1.0  0.21600  0.21000  0.23900  1.0000
  O   O4        1.0  0.79000  0.78400  0.76100  1.0000
  O   O5        1.0  0.05500  0.43000  0.76300  1.0000
  O   O6        1.0  0.41200  0.05020  0.76600  1.0000
  Ti  Ti1       1.0  0.83500  0.16500  0.00000  1.0000
