data_image0
_chemical_formula_structural       As4F28Xe4
_chemical_formula_sum              "As4 F28 Xe4"
_cell_length_a       5.89904
_cell_length_b       5.83956
_cell_length_c       15.155
_cell_angle_alpha    90
_cell_angle_beta     100.194
_cell_angle_gamma    90

_space_group_name_H-M_alt    "P 1"
_space_group_IT_number       1

loop_
  _space_group_symop_operation_xyz
  'x, y, z'

loop_
  _atom_site_type_symbol
  _atom_site_label
  _atom_site_symmetry_multiplicity
  _atom_site_fract_x
  _atom_site_fract_y
  _atom_site_fract_z
  _atom_site_occupancy
  As  As1       1.0  0.26300  0.79600  0.11500  1.0000
  As  As2       1.0  0.23700  0.29600  0.38500  1.0000
  As  As3       1.0  0.76300  0.70400  0.61500  1.0000
  As  As4       1.0  0.73700  0.20400  0.88500  1.0000
  F   F1        1.0  0.85500  0.14400  0.00719  1.0000
  F   F2        1.0  0.53700  0.79800  0.08450  1.0000
  F   F3        1.0  0.24200  0.50500  0.08590  1.0000
  F   F4        1.0  0.27700  0.09210  0.12700  1.0000
  F   F5        1.0  0.97500  0.79300  0.12800  1.0000
  F   F6        1.0  0.35900  0.74900  0.22800  1.0000
  F   F7        1.0  0.68600  0.44500  0.23700  1.0000
  F   F8        1.0  0.81400  0.94500  0.26300  1.0000
  F   F9        1.0  0.14100  0.24900  0.27200  1.0000
  F   F10       1.0  0.52500  0.29300  0.37200  1.0000
  F   F11       1.0  0.22300  0.59200  0.37300  1.0000
  F   F12       1.0  0.25800  0.00473  0.41400  1.0000
  F   F13       1.0  0.96300  0.29800  0.41500  1.0000
  F   F14       1.0  0.64500  0.64400  0.49300  1.0000
  F   F15       1.0  0.35500  0.35600  0.50700  1.0000
  F   F16       1.0  0.03710  0.70200  0.58500  1.0000
  F   F17       1.0  0.74200  0.99500  0.58600  1.0000
  F   F18       1.0  0.77700  0.40800  0.62700  1.0000
  F   F19       1.0  0.47500  0.70700  0.62800  1.0000
  F   F20       1.0  0.85900  0.75100  0.72800  1.0000
  F   F21       1.0  0.18600  0.05500  0.73700  1.0000
  F   F22       1.0  0.31400  0.55500  0.76300  1.0000
  F   F23       1.0  0.64100  0.25100  0.77200  1.0000
  F   F24       1.0  0.02480  0.20700  0.87200  1.0000
  F   F25       1.0  0.72300  0.90800  0.87300  1.0000
  F   F26       1.0  0.75800  0.49500  0.91400  1.0000
  F   F27       1.0  0.46300  0.20200  0.91500  1.0000
  F   F28       1.0  0.14500  0.85600  0.99300  1.0000
  Xe  Xe1       1.0  0.75600  0.30900  0.12500  1.0000
  Xe  Xe2       1.0  0.74400  0.80900  0.37500  1.0000
  Xe  Xe3       1.0  0.25600  0.19100  0.62500  1.0000
  Xe  Xe4       1.0  0.24400  0.69100  0.87500  1.0000
