data_image0
_chemical_formula_structural       Ca16Ge4N16
_chemical_formula_sum              "Ca16 Ge4 N16"
_cell_length_a       9.22265
_cell_length_b       6.02112
_cell_length_c       11.1101
_cell_angle_alpha    90
_cell_angle_beta     116.358
_cell_angle_gamma    90

_space_group_name_H-M_alt    "P 1"
_space_group_IT_number       1

loop_
  _space_group_symop_operation_xyz
  'x, y, z'

loop_
  _atom_site_type_symbol
  _atom_site_label
  _atom_site_symmetry_multiplicity
  _atom_site_fract_x
  _atom_site_fract_y
  _atom_site_fract_z
  _atom_site_occupancy
  Ca  Ca1       1.0  0.07740  0.75600  0.04410  1.0000
  Ca  Ca2       1.0  0.45200  0.92300  0.12100  1.0000
  Ca  Ca3       1.0  0.65700  0.41400  0.15500  1.0000
  Ca  Ca4       1.0  0.85300  0.84500  0.22900  1.0000
  Ca  Ca5       1.0  0.14700  0.34500  0.27100  1.0000
  Ca  Ca6       1.0  0.34300  0.91400  0.34500  1.0000
  Ca  Ca7       1.0  0.54800  0.42300  0.37900  1.0000
  Ca  Ca8       1.0  0.92300  0.25600  0.45600  1.0000
  Ca  Ca9       1.0  0.07740  0.74400  0.54400  1.0000
  Ca  Ca10      1.0  0.45200  0.57700  0.62100  1.0000
  Ca  Ca11      1.0  0.65700  0.08600  0.65500  1.0000
  Ca  Ca12      1.0  0.85300  0.65500  0.72900  1.0000
  Ca  Ca13      1.0  0.14700  0.15500  0.77100  1.0000
  Ca  Ca14      1.0  0.34300  0.58600  0.84500  1.0000
  Ca  Ca15      1.0  0.54800  0.07690  0.87900  1.0000
  Ca  Ca16      1.0  0.92300  0.24400  0.95600  1.0000
  Ge  Ge1       1.0  0.27100  0.36000  0.05450  1.0000
  Ge  Ge2       1.0  0.72900  0.86000  0.44600  1.0000
  Ge  Ge3       1.0  0.27100  0.14000  0.55400  1.0000
  Ge  Ge4       1.0  0.72900  0.64000  0.94600  1.0000
  N   N1        1.0  0.58800  0.74700  0.01460  1.0000
  N   N2        1.0  0.90400  0.51700  0.11000  1.0000
  N   N3        1.0  0.19700  0.11100  0.11800  1.0000
  N   N4        1.0  0.33600  0.58700  0.18900  1.0000
  N   N5        1.0  0.66400  0.08750  0.31100  1.0000
  N   N6        1.0  0.80300  0.61100  0.38200  1.0000
  N   N7        1.0  0.09640  0.01690  0.39000  1.0000
  N   N8        1.0  0.41200  0.24700  0.48500  1.0000
  N   N9        1.0  0.58800  0.75300  0.51500  1.0000
  N   N10       1.0  0.90400  0.98300  0.61000  1.0000
  N   N11       1.0  0.19700  0.38900  0.61800  1.0000
  N   N12       1.0  0.33600  0.91300  0.68900  1.0000
  N   N13       1.0  0.66400  0.41300  0.81100  1.0000
  N   N14       1.0  0.80300  0.88900  0.88200  1.0000
  N   N15       1.0  0.09640  0.48300  0.89000  1.0000
  N   N16       1.0  0.41200  0.25300  0.98500  1.0000
