data_image0
_chemical_formula_structural       Cr4K4O24U4
_chemical_formula_sum              "Cr4 K4 O24 U4"
_cell_length_a       6.3977
_cell_length_b       8.38343
_cell_length_c       10.4549
_cell_angle_alpha    90
_cell_angle_beta     105.467
_cell_angle_gamma    90

_space_group_name_H-M_alt    "P 1"
_space_group_IT_number       1

loop_
  _space_group_symop_operation_xyz
  'x, y, z'

loop_
  _atom_site_type_symbol
  _atom_site_label
  _atom_site_symmetry_multiplicity
  _atom_site_fract_x
  _atom_site_fract_y
  _atom_site_fract_z
  _atom_site_occupancy
  Cr  Cr1       1.0  0.62600  0.35700  0.05330  1.0000
  Cr  Cr2       1.0  0.37400  0.85700  0.44700  1.0000
  Cr  Cr3       1.0  0.62600  0.14300  0.55300  1.0000
  Cr  Cr4       1.0  0.37400  0.64300  0.94700  1.0000
  K   K1        1.0  0.95600  0.73600  0.14400  1.0000
  K   K2        1.0  0.04360  0.23600  0.35600  1.0000
  K   K3        1.0  0.95600  0.76400  0.64400  1.0000
  K   K4        1.0  0.04360  0.26400  0.85600  1.0000
  O   O1        1.0  0.47100  0.84100  0.00941  1.0000
  O   O2        1.0  0.87900  0.36500  0.05760  1.0000
  O   O3        1.0  0.55700  0.56400  0.10500  1.0000
  O   O4        1.0  0.19400  0.06450  0.11900  1.0000
  O   O5        1.0  0.59600  0.29100  0.21500  1.0000
  O   O6        1.0  0.76900  0.98100  0.23800  1.0000
  O   O7        1.0  0.23100  0.48100  0.26200  1.0000
  O   O8        1.0  0.40400  0.79100  0.28500  1.0000
  O   O9        1.0  0.80600  0.56500  0.38100  1.0000
  O   O10       1.0  0.44300  0.06390  0.39500  1.0000
  O   O11       1.0  0.12100  0.86500  0.44200  1.0000
  O   O12       1.0  0.52900  0.34100  0.49100  1.0000
  O   O13       1.0  0.47100  0.65900  0.50900  1.0000
  O   O14       1.0  0.87900  0.13500  0.55800  1.0000
  O   O15       1.0  0.55700  0.93600  0.60500  1.0000
  O   O16       1.0  0.19400  0.43500  0.61900  1.0000
  O   O17       1.0  0.59600  0.20900  0.71500  1.0000
  O   O18       1.0  0.76900  0.51900  0.73800  1.0000
  O   O19       1.0  0.23100  0.01910  0.76200  1.0000
  O   O20       1.0  0.40400  0.70900  0.78500  1.0000
  O   O21       1.0  0.80600  0.93500  0.88100  1.0000
  O   O22       1.0  0.44300  0.43600  0.89500  1.0000
  O   O23       1.0  0.12100  0.63500  0.94200  1.0000
  O   O24       1.0  0.52900  0.15900  0.99100  1.0000
  U   U1        1.0  0.48200  0.02260  0.17800  1.0000
  U   U2        1.0  0.51800  0.52300  0.32200  1.0000
  U   U3        1.0  0.48200  0.47700  0.67800  1.0000
  U   U4        1.0  0.51800  0.97700  0.82200  1.0000
