data_image0
_chemical_formula_structural       Ba8Bi4Ga4S20
_chemical_formula_sum              "Ba8 Bi4 Ga4 S20"
_cell_length_a       12.2918
_cell_length_b       8.95915
_cell_length_c       9.06663
_cell_angle_alpha    90
_cell_angle_beta     90
_cell_angle_gamma    90

_space_group_name_H-M_alt    "P 1"
_space_group_IT_number       1

loop_
  _space_group_symop_operation_xyz
  'x, y, z'

loop_
  _atom_site_type_symbol
  _atom_site_label
  _atom_site_symmetry_multiplicity
  _atom_site_fract_x
  _atom_site_fract_y
  _atom_site_fract_z
  _atom_site_occupancy
  Ba  Ba1       1.0  0.82200  0.00817  0.11700  1.0000
  Ba  Ba2       1.0  0.82200  0.49200  0.11700  1.0000
  Ba  Ba3       1.0  0.32200  0.00817  0.38300  1.0000
  Ba  Ba4       1.0  0.32200  0.49200  0.38300  1.0000
  Ba  Ba5       1.0  0.67800  0.50800  0.61700  1.0000
  Ba  Ba6       1.0  0.67800  0.99200  0.61700  1.0000
  Ba  Ba7       1.0  0.17800  0.50800  0.88300  1.0000
  Ba  Ba8       1.0  0.17800  0.99200  0.88300  1.0000
  Bi  Bi1       1.0  0.48200  0.75000  0.03760  1.0000
  Bi  Bi2       1.0  0.98200  0.75000  0.46200  1.0000
  Bi  Bi3       1.0  0.01770  0.25000  0.53800  1.0000
  Bi  Bi4       1.0  0.51800  0.25000  0.96200  1.0000
  Ga  Ga1       1.0  0.09510  0.25000  0.17200  1.0000
  Ga  Ga2       1.0  0.59500  0.25000  0.32800  1.0000
  Ga  Ga3       1.0  0.40500  0.75000  0.67200  1.0000
  Ga  Ga4       1.0  0.90500  0.75000  0.82800  1.0000
  S   S1        1.0  0.00630  0.75000  0.03160  1.0000
  S   S2        1.0  0.27500  0.25000  0.12000  1.0000
  S   S3        1.0  0.28500  0.75000  0.12900  1.0000
  S   S4        1.0  0.55500  0.04860  0.17500  1.0000
  S   S5        1.0  0.55500  0.45100  0.17500  1.0000
  S   S6        1.0  0.05520  0.04860  0.32500  1.0000
  S   S7        1.0  0.05520  0.45100  0.32500  1.0000
  S   S8        1.0  0.78500  0.75000  0.37100  1.0000
  S   S9        1.0  0.77500  0.25000  0.38000  1.0000
  S   S10       1.0  0.50600  0.75000  0.46800  1.0000
  S   S11       1.0  0.49400  0.25000  0.53200  1.0000
  S   S12       1.0  0.22500  0.75000  0.62000  1.0000
  S   S13       1.0  0.21500  0.25000  0.62900  1.0000
  S   S14       1.0  0.94500  0.54900  0.67500  1.0000
  S   S15       1.0  0.94500  0.95100  0.67500  1.0000
  S   S16       1.0  0.44500  0.54900  0.82500  1.0000
  S   S17       1.0  0.44500  0.95100  0.82500  1.0000
  S   S18       1.0  0.71500  0.25000  0.87100  1.0000
  S   S19       1.0  0.72500  0.75000  0.88000  1.0000
  S   S20       1.0  0.99400  0.25000  0.96800  1.0000
