data_image0
_chemical_formula_structural       CoLi3MnO6
_chemical_formula_sum              "Co1 Li3 Mn1 O6"
_cell_length_a       4.88857
_cell_length_b       4.88857
_cell_length_c       4.95095
_cell_angle_alpha    99.6906
_cell_angle_beta     99.6906
_cell_angle_gamma    119.881

_space_group_name_H-M_alt    "P 1"
_space_group_IT_number       1

loop_
  _space_group_symop_operation_xyz
  'x, y, z'

loop_
  _atom_site_type_symbol
  _atom_site_label
  _atom_site_symmetry_multiplicity
  _atom_site_fract_x
  _atom_site_fract_y
  _atom_site_fract_z
  _atom_site_occupancy
  Co  Co1       1.0  0.16800  0.83200  0.00000  1.0000
  Li  Li1       1.0  0.64900  0.35100  0.50000  1.0000
  Li  Li2       1.0  0.34700  0.65300  0.50000  1.0000
  Li  Li3       1.0  0.00697  0.99300  0.50000  1.0000
  Mn  Mn1       1.0  0.83300  0.16700  0.00000  1.0000
  O   O1        1.0  0.95000  0.58400  0.22800  1.0000
  O   O2        1.0  0.57100  0.94600  0.23200  1.0000
  O   O3        1.0  0.21200  0.20700  0.23300  1.0000
  O   O4        1.0  0.79300  0.78800  0.76700  1.0000
  O   O5        1.0  0.05430  0.42900  0.76800  1.0000
  O   O6        1.0  0.41600  0.05010  0.77200  1.0000
