data_image0
_chemical_formula_structural       As12Rb20Si4
_chemical_formula_sum              "As12 Rb20 Si4"
_cell_length_a       14.367
_cell_length_b       5.71811
_cell_length_c       15.7423
_cell_angle_alpha    90
_cell_angle_beta     90
_cell_angle_gamma    90

_space_group_name_H-M_alt    "P 1"
_space_group_IT_number       1

loop_
  _space_group_symop_operation_xyz
  'x, y, z'

loop_
  _atom_site_type_symbol
  _atom_site_label
  _atom_site_symmetry_multiplicity
  _atom_site_fract_x
  _atom_site_fract_y
  _atom_site_fract_z
  _atom_site_occupancy
  As  As1       1.0  0.81400  0.25000  0.06470  1.0000
  As  As2       1.0  0.39900  0.75000  0.09510  1.0000
  As  As3       1.0  0.13600  0.75000  0.18900  1.0000
  As  As4       1.0  0.63600  0.75000  0.31100  1.0000
  As  As5       1.0  0.89900  0.75000  0.40500  1.0000
  As  As6       1.0  0.31400  0.25000  0.43500  1.0000
  As  As7       1.0  0.68600  0.75000  0.56500  1.0000
  As  As8       1.0  0.10100  0.25000  0.59500  1.0000
  As  As9       1.0  0.36400  0.25000  0.68900  1.0000
  As  As10      1.0  0.86400  0.25000  0.81100  1.0000
  As  As11      1.0  0.60100  0.25000  0.90500  1.0000
  As  As12      1.0  0.18600  0.75000  0.93500  1.0000
  Rb  Rb1       1.0  0.64800  0.75000  0.04090  1.0000
  Rb  Rb2       1.0  0.06750  0.25000  0.05740  1.0000
  Rb  Rb3       1.0  0.55400  0.25000  0.15100  1.0000
  Rb  Rb4       1.0  0.88600  0.75000  0.18200  1.0000
  Rb  Rb5       1.0  0.27900  0.25000  0.21200  1.0000
  Rb  Rb6       1.0  0.77900  0.25000  0.28800  1.0000
  Rb  Rb7       1.0  0.38600  0.75000  0.31800  1.0000
  Rb  Rb8       1.0  0.05430  0.25000  0.34900  1.0000
  Rb  Rb9       1.0  0.56800  0.25000  0.44300  1.0000
  Rb  Rb10      1.0  0.14800  0.75000  0.45900  1.0000
  Rb  Rb11      1.0  0.85200  0.25000  0.54100  1.0000
  Rb  Rb12      1.0  0.43200  0.75000  0.55700  1.0000
  Rb  Rb13      1.0  0.94600  0.75000  0.65100  1.0000
  Rb  Rb14      1.0  0.61400  0.25000  0.68200  1.0000
  Rb  Rb15      1.0  0.22100  0.75000  0.71200  1.0000
  Rb  Rb16      1.0  0.72100  0.75000  0.78800  1.0000
  Rb  Rb17      1.0  0.11400  0.25000  0.81800  1.0000
  Rb  Rb18      1.0  0.44600  0.75000  0.84900  1.0000
  Rb  Rb19      1.0  0.93200  0.75000  0.94300  1.0000
  Rb  Rb20      1.0  0.35200  0.25000  0.95900  1.0000
  Si  Si1       1.0  0.23900  0.75000  0.07430  1.0000
  Si  Si2       1.0  0.73900  0.75000  0.42600  1.0000
  Si  Si3       1.0  0.26100  0.25000  0.57400  1.0000
  Si  Si4       1.0  0.76100  0.25000  0.92600  1.0000
