data_image0
_chemical_formula_structural       Al4Cs4Cu4F24
_chemical_formula_sum              "Al4 Cs4 Cu4 F24"
_cell_length_a       6.91489
_cell_length_b       7.02177
_cell_length_c       9.85573
_cell_angle_alpha    90
_cell_angle_beta     90
_cell_angle_gamma    90

_space_group_name_H-M_alt    "P 1"
_space_group_IT_number       1

loop_
  _space_group_symop_operation_xyz
  'x, y, z'

loop_
  _atom_site_type_symbol
  _atom_site_label
  _atom_site_symmetry_multiplicity
  _atom_site_fract_x
  _atom_site_fract_y
  _atom_site_fract_z
  _atom_site_occupancy
  Al  Al1       1.0  0.00000  0.00000  0.00000  1.0000
  Al  Al2       1.0  0.00000  0.50000  0.00000  1.0000
  Al  Al3       1.0  0.50000  0.00000  0.50000  1.0000
  Al  Al4       1.0  0.50000  0.50000  0.50000  1.0000
  Cs  Cs1       1.0  0.48500  0.25000  0.12800  1.0000
  Cs  Cs2       1.0  0.98500  0.25000  0.37200  1.0000
  Cs  Cs3       1.0  0.01520  0.75000  0.62800  1.0000
  Cs  Cs4       1.0  0.51500  0.75000  0.87200  1.0000
  Cu  Cu1       1.0  0.71000  0.75000  0.24000  1.0000
  Cu  Cu2       1.0  0.21000  0.75000  0.26000  1.0000
  Cu  Cu3       1.0  0.79000  0.25000  0.74000  1.0000
  Cu  Cu4       1.0  0.29000  0.25000  0.76000  1.0000
  F   F1        1.0  0.94900  0.25000  0.03420  1.0000
  F   F2        1.0  0.78200  0.55400  0.09130  1.0000
  F   F3        1.0  0.78200  0.94600  0.09130  1.0000
  F   F4        1.0  0.14100  0.50800  0.15300  1.0000
  F   F5        1.0  0.14100  0.99200  0.15300  1.0000
  F   F6        1.0  0.45300  0.75000  0.17100  1.0000
  F   F7        1.0  0.95300  0.75000  0.32900  1.0000
  F   F8        1.0  0.64100  0.50800  0.34700  1.0000
  F   F9        1.0  0.64100  0.99200  0.34700  1.0000
  F   F10       1.0  0.28200  0.55400  0.40900  1.0000
  F   F11       1.0  0.28200  0.94600  0.40900  1.0000
  F   F12       1.0  0.44900  0.25000  0.46600  1.0000
  F   F13       1.0  0.55100  0.75000  0.53400  1.0000
  F   F14       1.0  0.71800  0.05410  0.59100  1.0000
  F   F15       1.0  0.71800  0.44600  0.59100  1.0000
  F   F16       1.0  0.35900  0.00819  0.65300  1.0000
  F   F17       1.0  0.35900  0.49200  0.65300  1.0000
  F   F18       1.0  0.04690  0.25000  0.67100  1.0000
  F   F19       1.0  0.54700  0.25000  0.82900  1.0000
  F   F20       1.0  0.85900  0.00819  0.84700  1.0000
  F   F21       1.0  0.85900  0.49200  0.84700  1.0000
  F   F22       1.0  0.21800  0.05410  0.90900  1.0000
  F   F23       1.0  0.21800  0.44600  0.90900  1.0000
  F   F24       1.0  0.05080  0.75000  0.96600  1.0000
