data_image0
_chemical_formula_structural       As12Ge4Na20
_chemical_formula_sum              "As12 Ge4 Na20"
_cell_length_a       13.5655
_cell_length_b       7.57291
_cell_length_c       8.37649
_cell_angle_alpha    90
_cell_angle_beta     89.9086
_cell_angle_gamma    90

_space_group_name_H-M_alt    "P 1"
_space_group_IT_number       1

loop_
  _space_group_symop_operation_xyz
  'x, y, z'

loop_
  _atom_site_type_symbol
  _atom_site_label
  _atom_site_symmetry_multiplicity
  _atom_site_fract_x
  _atom_site_fract_y
  _atom_site_fract_z
  _atom_site_occupancy
  As  As1       1.0  0.73000  0.26000  0.08890  1.0000
  As  As2       1.0  0.43300  0.30800  0.09120  1.0000
  As  As3       1.0  0.08130  0.26500  0.15300  1.0000
  As  As4       1.0  0.41900  0.76500  0.34700  1.0000
  As  As5       1.0  0.06750  0.80800  0.40900  1.0000
  As  As6       1.0  0.77000  0.76000  0.41100  1.0000
  As  As7       1.0  0.23000  0.24000  0.58900  1.0000
  As  As8       1.0  0.93300  0.19200  0.59100  1.0000
  As  As9       1.0  0.58100  0.23500  0.65300  1.0000
  As  As10      1.0  0.91900  0.73500  0.84700  1.0000
  As  As11      1.0  0.56700  0.69200  0.90900  1.0000
  As  As12      1.0  0.27000  0.74000  0.91100  1.0000
  Ge  Ge1       1.0  0.41300  0.64400  0.07140  1.0000
  Ge  Ge2       1.0  0.08720  0.14400  0.42900  1.0000
  Ge  Ge3       1.0  0.91300  0.85600  0.57100  1.0000
  Ge  Ge4       1.0  0.58700  0.35600  0.92900  1.0000
  Na  Na1       1.0  0.75800  0.64800  0.07400  1.0000
  Na  Na2       1.0  0.08110  0.66400  0.07720  1.0000
  Na  Na3       1.0  0.58500  0.96700  0.17100  1.0000
  Na  Na4       1.0  0.91300  0.98200  0.17400  1.0000
  Na  Na5       1.0  0.25800  0.99500  0.17900  1.0000
  Na  Na6       1.0  0.24200  0.49500  0.32100  1.0000
  Na  Na7       1.0  0.58700  0.48200  0.32600  1.0000
  Na  Na8       1.0  0.91500  0.46700  0.32900  1.0000
  Na  Na9       1.0  0.41900  0.16400  0.42300  1.0000
  Na  Na10      1.0  0.74200  0.14800  0.42600  1.0000
  Na  Na11      1.0  0.25800  0.85200  0.57400  1.0000
  Na  Na12      1.0  0.58100  0.83600  0.57700  1.0000
  Na  Na13      1.0  0.08480  0.53300  0.67100  1.0000
  Na  Na14      1.0  0.41300  0.51800  0.67400  1.0000
  Na  Na15      1.0  0.75800  0.50500  0.67900  1.0000
  Na  Na16      1.0  0.74200  0.00454  0.82100  1.0000
  Na  Na17      1.0  0.08730  0.01790  0.82600  1.0000
  Na  Na18      1.0  0.41500  0.03310  0.82900  1.0000
  Na  Na19      1.0  0.91900  0.33600  0.92300  1.0000
  Na  Na20      1.0  0.24200  0.35200  0.92600  1.0000
