data_image0
_chemical_formula_structural       I24Mo12
_chemical_formula_sum              "I24 Mo12"
_cell_length_a       10.3838
_cell_length_b       10.3838
_cell_length_c       12.7717
_cell_angle_alpha    90
_cell_angle_beta     90
_cell_angle_gamma    104.057

_space_group_name_H-M_alt    "P 1"
_space_group_IT_number       1

loop_
  _space_group_symop_operation_xyz
  'x, y, z'

loop_
  _atom_site_type_symbol
  _atom_site_label
  _atom_site_symmetry_multiplicity
  _atom_site_fract_x
  _atom_site_fract_y
  _atom_site_fract_z
  _atom_site_occupancy
  I   I1        1.0  0.71000  0.29000  0.00000  1.0000
  I   I2        1.0  0.29000  0.71000  0.00000  1.0000
  I   I3        1.0  0.91300  0.67200  0.07030  1.0000
  I   I4        1.0  0.67200  0.91300  0.07030  1.0000
  I   I5        1.0  0.34600  0.34600  0.15400  1.0000
  I   I6        1.0  0.95000  0.19100  0.20800  1.0000
  I   I7        1.0  0.19100  0.95000  0.20800  1.0000
  I   I8        1.0  0.69100  0.45000  0.29200  1.0000
  I   I9        1.0  0.45000  0.69100  0.29200  1.0000
  I   I10       1.0  0.84600  0.84600  0.34600  1.0000
  I   I11       1.0  0.41300  0.17200  0.43000  1.0000
  I   I12       1.0  0.17200  0.41300  0.43000  1.0000
  I   I13       1.0  0.79000  0.21000  0.50000  1.0000
  I   I14       1.0  0.21000  0.79000  0.50000  1.0000
  I   I15       1.0  0.82800  0.58700  0.57000  1.0000
  I   I16       1.0  0.58700  0.82800  0.57000  1.0000
  I   I17       1.0  0.15400  0.15400  0.65400  1.0000
  I   I18       1.0  0.55000  0.30900  0.70800  1.0000
  I   I19       1.0  0.30900  0.55000  0.70800  1.0000
  I   I20       1.0  0.80900  0.05010  0.79200  1.0000
  I   I21       1.0  0.05010  0.80900  0.79200  1.0000
  I   I22       1.0  0.65400  0.65400  0.84600  1.0000
  I   I23       1.0  0.32800  0.08660  0.93000  1.0000
  I   I24       1.0  0.08660  0.32800  0.93000  1.0000
  Mo  Mo1       1.0  0.88400  0.11600  0.00000  1.0000
  Mo  Mo2       1.0  0.11600  0.88400  0.00000  1.0000
  Mo  Mo3       1.0  0.13400  0.13400  0.06620  1.0000
  Mo  Mo4       1.0  0.93400  0.93400  0.13400  1.0000
  Mo  Mo5       1.0  0.43400  0.43400  0.36600  1.0000
  Mo  Mo6       1.0  0.63400  0.63400  0.43400  1.0000
  Mo  Mo7       1.0  0.61600  0.38400  0.50000  1.0000
  Mo  Mo8       1.0  0.38400  0.61600  0.50000  1.0000
  Mo  Mo9       1.0  0.36600  0.36600  0.56600  1.0000
  Mo  Mo10      1.0  0.56600  0.56600  0.63400  1.0000
  Mo  Mo11      1.0  0.06630  0.06630  0.86600  1.0000
  Mo  Mo12      1.0  0.86600  0.86600  0.93400  1.0000
