data_image0
_chemical_formula_structural       H12K6O16Pu2
_chemical_formula_sum              "H12 K6 O16 Pu2"
_cell_length_a       7.54622
_cell_length_b       8.11181
_cell_length_c       7.62792
_cell_angle_alpha    90
_cell_angle_beta     117.397
_cell_angle_gamma    90

_space_group_name_H-M_alt    "P 1"
_space_group_IT_number       1

loop_
  _space_group_symop_operation_xyz
  'x, y, z'

loop_
  _atom_site_type_symbol
  _atom_site_label
  _atom_site_symmetry_multiplicity
  _atom_site_fract_x
  _atom_site_fract_y
  _atom_site_fract_z
  _atom_site_occupancy
  H   H1        1.0  0.92000  0.97500  0.12200  1.0000
  H   H2        1.0  0.32400  0.28500  0.17200  1.0000
  H   H3        1.0  0.14500  0.02950  0.17500  1.0000
  H   H4        1.0  0.85500  0.53000  0.32500  1.0000
  H   H5        1.0  0.67600  0.78500  0.32800  1.0000
  H   H6        1.0  0.08030  0.47500  0.37800  1.0000
  H   H7        1.0  0.92000  0.52500  0.62200  1.0000
  H   H8        1.0  0.32400  0.21500  0.67200  1.0000
  H   H9        1.0  0.14500  0.47000  0.67500  1.0000
  H   H10       1.0  0.85500  0.97000  0.82500  1.0000
  H   H11       1.0  0.67600  0.71500  0.82800  1.0000
  H   H12       1.0  0.08030  0.02550  0.87800  1.0000
  K   K1        1.0  0.50000  0.50000  0.00000  1.0000
  K   K2        1.0  0.08050  0.69300  0.03650  1.0000
  K   K3        1.0  0.91900  0.19300  0.46300  1.0000
  K   K4        1.0  0.50000  0.00000  0.50000  1.0000
  K   K5        1.0  0.08050  0.80700  0.53700  1.0000
  K   K6        1.0  0.91900  0.30700  0.96300  1.0000
  O   O1        1.0  0.63400  0.19600  0.07850  1.0000
  O   O2        1.0  0.29700  0.07730  0.08790  1.0000
  O   O3        1.0  0.30500  0.40300  0.19700  1.0000
  O   O4        1.0  0.05220  0.00569  0.23400  1.0000
  O   O5        1.0  0.94800  0.50600  0.26600  1.0000
  O   O6        1.0  0.69500  0.90300  0.30300  1.0000
  O   O7        1.0  0.70300  0.57700  0.41200  1.0000
  O   O8        1.0  0.36600  0.69600  0.42100  1.0000
  O   O9        1.0  0.63400  0.30400  0.57900  1.0000
  O   O10       1.0  0.29700  0.42300  0.58800  1.0000
  O   O11       1.0  0.30500  0.09720  0.69700  1.0000
  O   O12       1.0  0.05220  0.49400  0.73400  1.0000
  O   O13       1.0  0.94800  0.99400  0.76600  1.0000
  O   O14       1.0  0.69500  0.59700  0.80300  1.0000
  O   O15       1.0  0.70300  0.92300  0.91200  1.0000
  O   O16       1.0  0.36600  0.80400  0.92100  1.0000
  Pu  Pu1       1.0  0.50000  0.00000  0.00000  1.0000
  Pu  Pu2       1.0  0.50000  0.50000  0.50000  1.0000
