data_image0
_chemical_formula_structural       F24Fe4Na4Sr4
_chemical_formula_sum              "F24 Fe4 Na4 Sr4"
_cell_length_a       5.21885
_cell_length_b       8.95527
_cell_length_c       10.0911
_cell_angle_alpha    90
_cell_angle_beta     90
_cell_angle_gamma    90

_space_group_name_H-M_alt    "P 1"
_space_group_IT_number       1

loop_
  _space_group_symop_operation_xyz
  'x, y, z'

loop_
  _atom_site_type_symbol
  _atom_site_label
  _atom_site_symmetry_multiplicity
  _atom_site_fract_x
  _atom_site_fract_y
  _atom_site_fract_z
  _atom_site_occupancy
  F   F1        1.0  0.26500  0.15300  0.01980  1.0000
  F   F2        1.0  0.36300  0.51400  0.03660  1.0000
  F   F3        1.0  0.32300  0.84400  0.08320  1.0000
  F   F4        1.0  0.79800  0.11600  0.19700  1.0000
  F   F5        1.0  0.91000  0.84100  0.21500  1.0000
  F   F6        1.0  0.71700  0.55600  0.23000  1.0000
  F   F7        1.0  0.28300  0.05620  0.27000  1.0000
  F   F8        1.0  0.09020  0.34100  0.28500  1.0000
  F   F9        1.0  0.20200  0.61600  0.30300  1.0000
  F   F10       1.0  0.67700  0.34400  0.41700  1.0000
  F   F11       1.0  0.63700  0.01410  0.46300  1.0000
  F   F12       1.0  0.73500  0.65300  0.48000  1.0000
  F   F13       1.0  0.23500  0.84700  0.52000  1.0000
  F   F14       1.0  0.13700  0.48600  0.53700  1.0000
  F   F15       1.0  0.17700  0.15600  0.58300  1.0000
  F   F16       1.0  0.70200  0.88400  0.69700  1.0000
  F   F17       1.0  0.59000  0.15900  0.71500  1.0000
  F   F18       1.0  0.78300  0.44400  0.73000  1.0000
  F   F19       1.0  0.21700  0.94400  0.77000  1.0000
  F   F20       1.0  0.41000  0.65900  0.78500  1.0000
  F   F21       1.0  0.29800  0.38400  0.80300  1.0000
  F   F22       1.0  0.82300  0.65600  0.91700  1.0000
  F   F23       1.0  0.86300  0.98600  0.96300  1.0000
  F   F24       1.0  0.76500  0.34700  0.98000  1.0000
  Fe  Fe1       1.0  0.06880  0.00312  0.11800  1.0000
  Fe  Fe2       1.0  0.93100  0.50300  0.38200  1.0000
  Fe  Fe3       1.0  0.43100  0.99700  0.61800  1.0000
  Fe  Fe4       1.0  0.56900  0.49700  0.88200  1.0000
  Na  Na1       1.0  0.03590  0.64100  0.09790  1.0000
  Na  Na2       1.0  0.96400  0.14100  0.40200  1.0000
  Na  Na3       1.0  0.46400  0.35900  0.59800  1.0000
  Na  Na4       1.0  0.53600  0.85900  0.90200  1.0000
  Sr  Sr1       1.0  0.49900  0.31100  0.18500  1.0000
  Sr  Sr2       1.0  0.50100  0.81100  0.31500  1.0000
  Sr  Sr3       1.0  0.00148  0.68900  0.68500  1.0000
  Sr  Sr4       1.0  0.99900  0.18900  0.81500  1.0000
