data_image0
_chemical_formula_structural       Si16Y20
_chemical_formula_sum              "Si16 Y20"
_cell_length_a       14.6398
_cell_length_b       7.67447
_cell_length_c       7.49117
_cell_angle_alpha    90
_cell_angle_beta     93.5368
_cell_angle_gamma    90

_space_group_name_H-M_alt    "P 1"
_space_group_IT_number       1

loop_
  _space_group_symop_operation_xyz
  'x, y, z'

loop_
  _atom_site_type_symbol
  _atom_site_label
  _atom_site_symmetry_multiplicity
  _atom_site_fract_x
  _atom_site_fract_y
  _atom_site_fract_z
  _atom_site_occupancy
  Si  Si1       1.0  0.24800  0.10700  0.04610  1.0000
  Si  Si2       1.0  0.04130  0.47300  0.14500  1.0000
  Si  Si3       1.0  0.45800  0.46600  0.20400  1.0000
  Si  Si4       1.0  0.75200  0.37200  0.21300  1.0000
  Si  Si5       1.0  0.24800  0.87200  0.28700  1.0000
  Si  Si6       1.0  0.54200  0.96600  0.29600  1.0000
  Si  Si7       1.0  0.95900  0.97300  0.35500  1.0000
  Si  Si8       1.0  0.75200  0.60700  0.45400  1.0000
  Si  Si9       1.0  0.24800  0.39300  0.54600  1.0000
  Si  Si10      1.0  0.04130  0.02700  0.64500  1.0000
  Si  Si11      1.0  0.45800  0.03430  0.70400  1.0000
  Si  Si12      1.0  0.75200  0.12800  0.71300  1.0000
  Si  Si13      1.0  0.24800  0.62800  0.78700  1.0000
  Si  Si14      1.0  0.54200  0.53400  0.79600  1.0000
  Si  Si15      1.0  0.95900  0.52700  0.85500  1.0000
  Si  Si16      1.0  0.75200  0.89300  0.95400  1.0000
  Y   Y1        1.0  0.40100  0.81900  0.00368  1.0000
  Y   Y2        1.0  0.89900  0.18400  0.02450  1.0000
  Y   Y3        1.0  0.62000  0.66600  0.14500  1.0000
  Y   Y4        1.0  0.25400  0.50600  0.17300  1.0000
  Y   Y5        1.0  0.87800  0.67900  0.17300  1.0000
  Y   Y6        1.0  0.12200  0.17900  0.32700  1.0000
  Y   Y7        1.0  0.74600  0.00561  0.32700  1.0000
  Y   Y8        1.0  0.38000  0.16600  0.35500  1.0000
  Y   Y9        1.0  0.10100  0.68400  0.47600  1.0000
  Y   Y10       1.0  0.59900  0.31900  0.49600  1.0000
  Y   Y11       1.0  0.40100  0.68100  0.50400  1.0000
  Y   Y12       1.0  0.89900  0.31600  0.52400  1.0000
  Y   Y13       1.0  0.62000  0.83400  0.64500  1.0000
  Y   Y14       1.0  0.25400  0.99400  0.67300  1.0000
  Y   Y15       1.0  0.87800  0.82100  0.67300  1.0000
  Y   Y16       1.0  0.12200  0.32100  0.82700  1.0000
  Y   Y17       1.0  0.74600  0.49400  0.82700  1.0000
  Y   Y18       1.0  0.38000  0.33400  0.85500  1.0000
  Y   Y19       1.0  0.10100  0.81600  0.97600  1.0000
  Y   Y20       1.0  0.59900  0.18100  0.99600  1.0000
