data_image0
_chemical_formula_structural       GeLi3MnO6
_chemical_formula_sum              "Ge1 Li3 Mn1 O6"
_cell_length_a       4.939
_cell_length_b       4.93893
_cell_length_c       4.99621
_cell_angle_alpha    100.07
_cell_angle_beta     100.066
_cell_angle_gamma    119.193

_space_group_name_H-M_alt    "P 1"
_space_group_IT_number       1

loop_
  _space_group_symop_operation_xyz
  'x, y, z'

loop_
  _atom_site_type_symbol
  _atom_site_label
  _atom_site_symmetry_multiplicity
  _atom_site_fract_x
  _atom_site_fract_y
  _atom_site_fract_z
  _atom_site_occupancy
  Ge  Ge1       1.0  0.17300  0.82700  0.00000  1.0000
  Li  Li1       1.0  0.49400  0.50600  0.00000  1.0000
  Li  Li2       1.0  0.99200  0.00844  0.50000  1.0000
  Li  Li3       1.0  0.65300  0.34700  0.50000  1.0000
  Mn  Mn1       1.0  0.83600  0.16400  0.00000  1.0000
  O   O1        1.0  0.92600  0.57500  0.22000  1.0000
  O   O2        1.0  0.22300  0.21100  0.22300  1.0000
  O   O3        1.0  0.58400  0.93800  0.22400  1.0000
  O   O4        1.0  0.06230  0.41600  0.77600  1.0000
  O   O5        1.0  0.78900  0.77700  0.77700  1.0000
  O   O6        1.0  0.42500  0.07370  0.78000  1.0000
