data_image0
_chemical_formula_structural       B6H8Na6O16
_chemical_formula_sum              "B6 H8 Na6 O16"
_cell_length_a       6.81516
_cell_length_b       7.43414
_cell_length_c       7.43414
_cell_angle_alpha    61.8304
_cell_angle_beta     97.3238
_cell_angle_gamma    97.3238

_space_group_name_H-M_alt    "P 1"
_space_group_IT_number       1

loop_
  _space_group_symop_operation_xyz
  'x, y, z'

loop_
  _atom_site_type_symbol
  _atom_site_label
  _atom_site_symmetry_multiplicity
  _atom_site_fract_x
  _atom_site_fract_y
  _atom_site_fract_z
  _atom_site_occupancy
  B   B1        1.0  0.24500  0.53500  0.10100  1.0000
  B   B2        1.0  0.69000  0.87800  0.35400  1.0000
  B   B3        1.0  0.74500  0.10100  0.53500  1.0000
  B   B4        1.0  0.18700  0.74200  0.71400  1.0000
  B   B5        1.0  0.68700  0.71400  0.74200  1.0000
  B   B6        1.0  0.19000  0.35400  0.87800  1.0000
  H   H1        1.0  0.55100  0.53600  0.07810  1.0000
  H   H2        1.0  0.52100  0.73600  0.19500  1.0000
  H   H3        1.0  0.06110  0.40000  0.33400  1.0000
  H   H4        1.0  0.99700  0.88400  0.38700  1.0000
  H   H5        1.0  0.56100  0.33400  0.40000  1.0000
  H   H6        1.0  0.05130  0.07810  0.53600  1.0000
  H   H7        1.0  0.02060  0.19500  0.73600  1.0000
  H   H8        1.0  0.49700  0.38700  0.88400  1.0000
  Na  Na1       1.0  0.96000  0.83500  0.01840  1.0000
  Na  Na2       1.0  0.84400  0.25800  0.07550  1.0000
  Na  Na3       1.0  0.34400  0.07550  0.25800  1.0000
  Na  Na4       1.0  0.37700  0.52200  0.50400  1.0000
  Na  Na5       1.0  0.87700  0.50400  0.52200  1.0000
  Na  Na6       1.0  0.46000  0.01840  0.83500  1.0000
  O   O1        1.0  0.17500  0.35900  0.06910  1.0000
  O   O2        1.0  0.45800  0.52300  0.18500  1.0000
  O   O3        1.0  0.53400  0.86800  0.20300  1.0000
  O   O4        1.0  0.12600  0.54000  0.25200  1.0000
  O   O5        1.0  0.88500  0.86600  0.29200  1.0000
  O   O6        1.0  0.67500  0.06910  0.35900  1.0000
  O   O7        1.0  0.95800  0.18500  0.52300  1.0000
  O   O8        1.0  0.62600  0.25200  0.54000  1.0000
  O   O9        1.0  0.17700  0.92400  0.54400  1.0000
  O   O10       1.0  0.65900  0.69900  0.56100  1.0000
  O   O11       1.0  0.15900  0.56100  0.69900  1.0000
  O   O12       1.0  0.72600  0.90800  0.73300  1.0000
  O   O13       1.0  0.38500  0.29200  0.86600  1.0000
  O   O14       1.0  0.03360  0.20300  0.86800  1.0000
  O   O15       1.0  0.22600  0.73300  0.90800  1.0000
  O   O16       1.0  0.67700  0.54400  0.92400  1.0000
