data_image0
_chemical_formula_structural       H12K6Np2O16
_chemical_formula_sum              "H12 K6 Np2 O16"
_cell_length_a       7.50402
_cell_length_b       8.13841
_cell_length_c       7.60362
_cell_angle_alpha    90
_cell_angle_beta     116.714
_cell_angle_gamma    90

_space_group_name_H-M_alt    "P 1"
_space_group_IT_number       1

loop_
  _space_group_symop_operation_xyz
  'x, y, z'

loop_
  _atom_site_type_symbol
  _atom_site_label
  _atom_site_symmetry_multiplicity
  _atom_site_fract_x
  _atom_site_fract_y
  _atom_site_fract_z
  _atom_site_occupancy
  H   H1        1.0  0.42400  0.97400  0.12700  1.0000
  H   H2        1.0  0.82200  0.28700  0.16900  1.0000
  H   H3        1.0  0.64700  0.03220  0.17600  1.0000
  H   H4        1.0  0.35300  0.53200  0.32400  1.0000
  H   H5        1.0  0.17800  0.78700  0.33100  1.0000
  H   H6        1.0  0.57600  0.47400  0.37300  1.0000
  H   H7        1.0  0.42400  0.52600  0.62700  1.0000
  H   H8        1.0  0.82200  0.21300  0.66900  1.0000
  H   H9        1.0  0.64700  0.46800  0.67600  1.0000
  H   H10       1.0  0.35300  0.96800  0.82400  1.0000
  H   H11       1.0  0.17800  0.71300  0.83100  1.0000
  H   H12       1.0  0.57600  0.02610  0.87300  1.0000
  K   K1        1.0  0.00000  0.50000  0.00000  1.0000
  K   K2        1.0  0.58000  0.69400  0.03800  1.0000
  K   K3        1.0  0.42000  0.19400  0.46200  1.0000
  K   K4        1.0  0.00000  0.00000  0.50000  1.0000
  K   K5        1.0  0.58000  0.80600  0.53800  1.0000
  K   K6        1.0  0.42000  0.30600  0.96200  1.0000
  Np  Np1       1.0  0.00000  0.00000  0.00000  1.0000
  Np  Np2       1.0  0.00000  0.50000  0.50000  1.0000
  O   O1        1.0  0.13600  0.19700  0.07770  1.0000
  O   O2        1.0  0.79500  0.08060  0.08720  1.0000
  O   O3        1.0  0.80600  0.40400  0.19800  1.0000
  O   O4        1.0  0.55500  0.00533  0.23700  1.0000
  O   O5        1.0  0.44500  0.50500  0.26300  1.0000
  O   O6        1.0  0.19400  0.90400  0.30200  1.0000
  O   O7        1.0  0.20500  0.58100  0.41300  1.0000
  O   O8        1.0  0.86400  0.69700  0.42200  1.0000
  O   O9        1.0  0.13600  0.30300  0.57800  1.0000
  O   O10       1.0  0.79500  0.41900  0.58700  1.0000
  O   O11       1.0  0.80600  0.09610  0.69800  1.0000
  O   O12       1.0  0.55500  0.49500  0.73700  1.0000
  O   O13       1.0  0.44500  0.99500  0.76300  1.0000
  O   O14       1.0  0.19400  0.59600  0.80200  1.0000
  O   O15       1.0  0.20500  0.91900  0.91300  1.0000
  O   O16       1.0  0.86400  0.80300  0.92200  1.0000
