data_image0
_chemical_formula_structural       Ca4O24Ta8
_chemical_formula_sum              "Ca4 O24 Ta8"
_cell_length_a       11.0748
_cell_length_b       7.49863
_cell_length_c       5.33992
_cell_angle_alpha    90
_cell_angle_beta     90
_cell_angle_gamma    90

_space_group_name_H-M_alt    "P 1"
_space_group_IT_number       1

loop_
  _space_group_symop_operation_xyz
  'x, y, z'

loop_
  _atom_site_type_symbol
  _atom_site_label
  _atom_site_symmetry_multiplicity
  _atom_site_fract_x
  _atom_site_fract_y
  _atom_site_fract_z
  _atom_site_occupancy
  Ca  Ca1       1.0  0.45800  0.75000  0.04230  1.0000
  Ca  Ca2       1.0  0.95800  0.75000  0.45800  1.0000
  Ca  Ca3       1.0  0.04240  0.25000  0.54200  1.0000
  Ca  Ca4       1.0  0.54200  0.25000  0.95800  1.0000
  O   O1        1.0  0.85300  0.75000  0.05260  1.0000
  O   O2        1.0  0.71100  0.06360  0.12200  1.0000
  O   O3        1.0  0.71100  0.43600  0.12200  1.0000
  O   O4        1.0  0.12200  0.75000  0.17300  1.0000
  O   O5        1.0  0.97500  0.04340  0.23100  1.0000
  O   O6        1.0  0.97500  0.45700  0.23100  1.0000
  O   O7        1.0  0.47500  0.04340  0.26900  1.0000
  O   O8        1.0  0.47500  0.45700  0.26900  1.0000
  O   O9        1.0  0.62200  0.75000  0.32700  1.0000
  O   O10       1.0  0.21100  0.06360  0.37800  1.0000
  O   O11       1.0  0.21100  0.43600  0.37800  1.0000
  O   O12       1.0  0.35300  0.75000  0.44700  1.0000
  O   O13       1.0  0.64700  0.25000  0.55300  1.0000
  O   O14       1.0  0.78900  0.56400  0.62200  1.0000
  O   O15       1.0  0.78900  0.93600  0.62200  1.0000
  O   O16       1.0  0.37800  0.25000  0.67300  1.0000
  O   O17       1.0  0.52500  0.54300  0.73100  1.0000
  O   O18       1.0  0.52500  0.95700  0.73100  1.0000
  O   O19       1.0  0.02520  0.54300  0.76900  1.0000
  O   O20       1.0  0.02520  0.95700  0.76900  1.0000
  O   O21       1.0  0.87800  0.25000  0.82700  1.0000
  O   O22       1.0  0.28900  0.56400  0.87800  1.0000
  O   O23       1.0  0.28900  0.93600  0.87800  1.0000
  O   O24       1.0  0.14700  0.25000  0.94700  1.0000
  Ta  Ta1       1.0  0.14100  0.50600  0.04210  1.0000
  Ta  Ta2       1.0  0.14100  0.99400  0.04210  1.0000
  Ta  Ta3       1.0  0.64100  0.50600  0.45800  1.0000
  Ta  Ta4       1.0  0.64100  0.99400  0.45800  1.0000
  Ta  Ta5       1.0  0.35900  0.00560  0.54200  1.0000
  Ta  Ta6       1.0  0.35900  0.49400  0.54200  1.0000
  Ta  Ta7       1.0  0.85900  0.00560  0.95800  1.0000
  Ta  Ta8       1.0  0.85900  0.49400  0.95800  1.0000
