data_image0
_chemical_formula_structural       I4Mo4O24Rb4
_chemical_formula_sum              "I4 Mo4 O24 Rb4"
_cell_length_a       7.58079
_cell_length_b       10.1868
_cell_length_c       7.33283
_cell_angle_alpha    90
_cell_angle_beta     90
_cell_angle_gamma    90

_space_group_name_H-M_alt    "P 1"
_space_group_IT_number       1

loop_
  _space_group_symop_operation_xyz
  'x, y, z'

loop_
  _atom_site_type_symbol
  _atom_site_label
  _atom_site_symmetry_multiplicity
  _atom_site_fract_x
  _atom_site_fract_y
  _atom_site_fract_z
  _atom_site_occupancy
  I   I1        1.0  0.28400  0.74400  0.42600  1.0000
  I   I2        1.0  0.78400  0.75600  0.42600  1.0000
  I   I3        1.0  0.21600  0.24400  0.92600  1.0000
  I   I4        1.0  0.71600  0.25600  0.92600  1.0000
  Mo  Mo1       1.0  0.50900  0.53100  0.09580  1.0000
  Mo  Mo2       1.0  0.00913  0.96900  0.09580  1.0000
  Mo  Mo3       1.0  0.99100  0.03080  0.59600  1.0000
  Mo  Mo4       1.0  0.49100  0.46900  0.59600  1.0000
  O   O1        1.0  0.37300  0.66000  0.03100  1.0000
  O   O2        1.0  0.87300  0.84000  0.03100  1.0000
  O   O3        1.0  0.77700  0.10300  0.04320  1.0000
  O   O4        1.0  0.27700  0.39700  0.04320  1.0000
  O   O5        1.0  0.13700  0.16300  0.13800  1.0000
  O   O6        1.0  0.63700  0.33700  0.13800  1.0000
  O   O7        1.0  0.71300  0.60600  0.14200  1.0000
  O   O8        1.0  0.21300  0.89400  0.14200  1.0000
  O   O9        1.0  0.42800  0.51900  0.34000  1.0000
  O   O10       1.0  0.92800  0.98100  0.34000  1.0000
  O   O11       1.0  0.06660  0.65800  0.41900  1.0000
  O   O12       1.0  0.56700  0.84200  0.41900  1.0000
  O   O13       1.0  0.12700  0.16000  0.53100  1.0000
  O   O14       1.0  0.62700  0.34000  0.53100  1.0000
  O   O15       1.0  0.72300  0.60300  0.54300  1.0000
  O   O16       1.0  0.22300  0.89700  0.54300  1.0000
  O   O17       1.0  0.36300  0.66300  0.63800  1.0000
  O   O18       1.0  0.86300  0.83700  0.63800  1.0000
  O   O19       1.0  0.78700  0.10600  0.64200  1.0000
  O   O20       1.0  0.28700  0.39400  0.64200  1.0000
  O   O21       1.0  0.07200  0.01850  0.84000  1.0000
  O   O22       1.0  0.57200  0.48100  0.84000  1.0000
  O   O23       1.0  0.43300  0.15800  0.91900  1.0000
  O   O24       1.0  0.93300  0.34200  0.91900  1.0000
  Rb  Rb1       1.0  0.48000  0.11200  0.35800  1.0000
  Rb  Rb2       1.0  0.98000  0.38800  0.35800  1.0000
  Rb  Rb3       1.0  0.02000  0.61200  0.85800  1.0000
  Rb  Rb4       1.0  0.52000  0.88800  0.85800  1.0000
