data_image0
_chemical_formula_structural       F8Fe8H4O12P4
_chemical_formula_sum              "F8 Fe8 H4 O12 P4"
_cell_length_a       7.28783
_cell_length_b       9.99328
_cell_length_c       5.42077
_cell_angle_alpha    90
_cell_angle_beta     90
_cell_angle_gamma    90

_space_group_name_H-M_alt    "P 1"
_space_group_IT_number       1

loop_
  _space_group_symop_operation_xyz
  'x, y, z'

loop_
  _atom_site_type_symbol
  _atom_site_label
  _atom_site_symmetry_multiplicity
  _atom_site_fract_x
  _atom_site_fract_y
  _atom_site_fract_z
  _atom_site_occupancy
  F   F1        1.0  0.15400  0.05030  0.07620  1.0000
  F   F2        1.0  0.15400  0.45000  0.07620  1.0000
  F   F3        1.0  0.65400  0.05030  0.42400  1.0000
  F   F4        1.0  0.65400  0.45000  0.42400  1.0000
  F   F5        1.0  0.34600  0.55000  0.57600  1.0000
  F   F6        1.0  0.34600  0.95000  0.57600  1.0000
  F   F7        1.0  0.84600  0.55000  0.92400  1.0000
  F   F8        1.0  0.84600  0.95000  0.92400  1.0000
  Fe  Fe1       1.0  0.40300  0.06290  0.24700  1.0000
  Fe  Fe2       1.0  0.40300  0.43700  0.24700  1.0000
  Fe  Fe3       1.0  0.90300  0.06290  0.25300  1.0000
  Fe  Fe4       1.0  0.90300  0.43700  0.25300  1.0000
  Fe  Fe5       1.0  0.09720  0.56300  0.74700  1.0000
  Fe  Fe6       1.0  0.09720  0.93700  0.74700  1.0000
  Fe  Fe7       1.0  0.59700  0.56300  0.75300  1.0000
  Fe  Fe8       1.0  0.59700  0.93700  0.75300  1.0000
  H   H1        1.0  0.75500  0.75000  0.17500  1.0000
  H   H2        1.0  0.25500  0.75000  0.32500  1.0000
  H   H3        1.0  0.74500  0.25000  0.67500  1.0000
  H   H4        1.0  0.24500  0.25000  0.82500  1.0000
  O   O1        1.0  0.45500  0.62400  0.07010  1.0000
  O   O2        1.0  0.45500  0.87600  0.07010  1.0000
  O   O3        1.0  0.82100  0.25000  0.10500  1.0000
  O   O4        1.0  0.32100  0.25000  0.39500  1.0000
  O   O5        1.0  0.95500  0.62400  0.43000  1.0000
  O   O6        1.0  0.95500  0.87600  0.43000  1.0000
  O   O7        1.0  0.04490  0.12400  0.57000  1.0000
  O   O8        1.0  0.04490  0.37600  0.57000  1.0000
  O   O9        1.0  0.67900  0.75000  0.60500  1.0000
  O   O10       1.0  0.17900  0.75000  0.89500  1.0000
  O   O11       1.0  0.54500  0.12400  0.93000  1.0000
  O   O12       1.0  0.54500  0.37600  0.93000  1.0000
  P   P1        1.0  0.33600  0.75000  0.09160  1.0000
  P   P2        1.0  0.83600  0.75000  0.40800  1.0000
  P   P3        1.0  0.16400  0.25000  0.59200  1.0000
  P   P4        1.0  0.66400  0.25000  0.90800  1.0000
