data_image0
_chemical_formula_structural       Be4Eu4Gd8O20
_chemical_formula_sum              "Be4 Eu4 Gd8 O20"
_cell_length_a       7.06677
_cell_length_b       6.37195
_cell_length_c       9.26143
_cell_angle_alpha    90
_cell_angle_beta     90.2456
_cell_angle_gamma    90

_space_group_name_H-M_alt    "P 1"
_space_group_IT_number       1

loop_
  _space_group_symop_operation_xyz
  'x, y, z'

loop_
  _atom_site_type_symbol
  _atom_site_label
  _atom_site_symmetry_multiplicity
  _atom_site_fract_x
  _atom_site_fract_y
  _atom_site_fract_z
  _atom_site_occupancy
  Be  Be1       1.0  0.25100  0.19300  0.10200  1.0000
  Be  Be2       1.0  0.74900  0.69300  0.39800  1.0000
  Be  Be3       1.0  0.25100  0.30700  0.60200  1.0000
  Be  Be4       1.0  0.74900  0.80700  0.89800  1.0000
  Eu  Eu1       1.0  0.97900  0.92100  0.17100  1.0000
  Eu  Eu2       1.0  0.02070  0.42100  0.32900  1.0000
  Eu  Eu3       1.0  0.97900  0.57900  0.67100  1.0000
  Eu  Eu4       1.0  0.02070  0.07920  0.82900  1.0000
  Gd  Gd1       1.0  0.75200  0.40400  0.02320  1.0000
  Gd  Gd2       1.0  0.52300  0.92000  0.17500  1.0000
  Gd  Gd3       1.0  0.47700  0.42000  0.32500  1.0000
  Gd  Gd4       1.0  0.24800  0.90400  0.47700  1.0000
  Gd  Gd5       1.0  0.75200  0.09630  0.52300  1.0000
  Gd  Gd6       1.0  0.52300  0.58000  0.67500  1.0000
  Gd  Gd7       1.0  0.47700  0.08030  0.82500  1.0000
  Gd  Gd8       1.0  0.24800  0.59600  0.97700  1.0000
  O   O1        1.0  0.26500  0.97600  0.00944  1.0000
  O   O2        1.0  0.05600  0.30800  0.06860  1.0000
  O   O3        1.0  0.44500  0.31500  0.06900  1.0000
  O   O4        1.0  0.73600  0.63600  0.22100  1.0000
  O   O5        1.0  0.27000  0.66600  0.22200  1.0000
  O   O6        1.0  0.73000  0.16600  0.27800  1.0000
  O   O7        1.0  0.26400  0.13600  0.27900  1.0000
  O   O8        1.0  0.55500  0.81500  0.43100  1.0000
  O   O9        1.0  0.94400  0.80800  0.43100  1.0000
  O   O10       1.0  0.73500  0.47600  0.49100  1.0000
  O   O11       1.0  0.26500  0.52400  0.50900  1.0000
  O   O12       1.0  0.05600  0.19200  0.56900  1.0000
  O   O13       1.0  0.44500  0.18500  0.56900  1.0000
  O   O14       1.0  0.73600  0.86400  0.72100  1.0000
  O   O15       1.0  0.27000  0.83400  0.72200  1.0000
  O   O16       1.0  0.73000  0.33400  0.77800  1.0000
  O   O17       1.0  0.26400  0.36400  0.77900  1.0000
  O   O18       1.0  0.55500  0.68500  0.93100  1.0000
  O   O19       1.0  0.94400  0.69200  0.93100  1.0000
  O   O20       1.0  0.73500  0.02430  0.99100  1.0000
