data_image0
_chemical_formula_structural       H4Mn6O20Se6
_chemical_formula_sum              "H4 Mn6 O20 Se6"
_cell_length_a       8.15815
_cell_length_b       8.29136
_cell_length_c       8.88701
_cell_angle_alpha    65.5429
_cell_angle_beta     68.873
_cell_angle_gamma    67.7459

_space_group_name_H-M_alt    "P 1"
_space_group_IT_number       1

loop_
  _space_group_symop_operation_xyz
  'x, y, z'

loop_
  _atom_site_type_symbol
  _atom_site_label
  _atom_site_symmetry_multiplicity
  _atom_site_fract_x
  _atom_site_fract_y
  _atom_site_fract_z
  _atom_site_occupancy
  H   H1        1.0  0.13600  0.95800  0.30000  1.0000
  H   H2        1.0  0.19600  0.04040  0.40200  1.0000
  H   H3        1.0  0.80400  0.96000  0.59800  1.0000
  H   H4        1.0  0.86400  0.04220  0.70000  1.0000
  Mn  Mn1       1.0  0.00000  0.00000  0.00000  1.0000
  Mn  Mn2       1.0  0.96400  0.33800  0.20200  1.0000
  Mn  Mn3       1.0  0.82900  0.69400  0.42500  1.0000
  Mn  Mn4       1.0  0.50000  0.50000  0.50000  1.0000
  Mn  Mn5       1.0  0.17100  0.30600  0.57500  1.0000
  Mn  Mn6       1.0  0.03570  0.66200  0.79800  1.0000
  O   O1        1.0  0.83600  0.61300  0.03730  1.0000
  O   O2        1.0  0.73900  0.96300  0.04650  1.0000
  O   O3        1.0  0.84400  0.18800  0.13700  1.0000
  O   O4        1.0  0.06780  0.78200  0.24000  1.0000
  O   O5        1.0  0.15200  0.06960  0.30000  1.0000
  O   O6        1.0  0.63300  0.70200  0.31600  1.0000
  O   O7        1.0  0.05150  0.44900  0.33500  1.0000
  O   O8        1.0  0.33400  0.48800  0.36000  1.0000
  O   O9        1.0  0.70900  0.29400  0.39500  1.0000
  O   O10       1.0  0.72600  0.95000  0.45400  1.0000
  O   O11       1.0  0.27400  0.04980  0.54600  1.0000
  O   O12       1.0  0.29100  0.70600  0.60500  1.0000
  O   O13       1.0  0.66600  0.51200  0.64000  1.0000
  O   O14       1.0  0.94800  0.55100  0.66500  1.0000
  O   O15       1.0  0.36700  0.29800  0.68400  1.0000
  O   O16       1.0  0.84800  0.93000  0.70000  1.0000
  O   O17       1.0  0.93200  0.21800  0.76000  1.0000
  O   O18       1.0  0.15600  0.81200  0.86300  1.0000
  O   O19       1.0  0.26100  0.03720  0.95400  1.0000
  O   O20       1.0  0.16400  0.38700  0.96300  1.0000
  Se  Se1       1.0  0.65100  0.78700  0.09760  1.0000
  Se  Se2       1.0  0.21300  0.57700  0.20800  1.0000
  Se  Se3       1.0  0.65800  0.16600  0.31400  1.0000
  Se  Se4       1.0  0.34200  0.83400  0.68600  1.0000
  Se  Se5       1.0  0.78700  0.42300  0.79200  1.0000
  Se  Se6       1.0  0.34900  0.21300  0.90200  1.0000
