data_image0
_chemical_formula_structural       As4Ca4Co4H4O20
_chemical_formula_sum              "As4 Ca4 Co4 H4 O20"
_cell_length_a       7.44641
_cell_length_b       8.96658
_cell_length_c       5.90367
_cell_angle_alpha    90
_cell_angle_beta     90
_cell_angle_gamma    90

_space_group_name_H-M_alt    "P 1"
_space_group_IT_number       1

loop_
  _space_group_symop_operation_xyz
  'x, y, z'

loop_
  _atom_site_type_symbol
  _atom_site_label
  _atom_site_symmetry_multiplicity
  _atom_site_fract_x
  _atom_site_fract_y
  _atom_site_fract_z
  _atom_site_occupancy
  As  As1       1.0  0.37800  0.17900  0.01600  1.0000
  As  As2       1.0  0.62200  0.67900  0.48400  1.0000
  As  As3       1.0  0.12200  0.82100  0.51600  1.0000
  As  As4       1.0  0.87800  0.32100  0.98400  1.0000
  Ca  Ca1       1.0  0.87000  0.67300  0.02440  1.0000
  Ca  Ca2       1.0  0.13000  0.17300  0.47600  1.0000
  Ca  Ca3       1.0  0.63000  0.32700  0.52400  1.0000
  Ca  Ca4       1.0  0.37000  0.82700  0.97600  1.0000
  Co  Co1       1.0  0.74200  0.00540  0.24400  1.0000
  Co  Co2       1.0  0.25800  0.50500  0.25600  1.0000
  Co  Co3       1.0  0.75800  0.99500  0.74400  1.0000
  Co  Co4       1.0  0.24200  0.49500  0.75600  1.0000
  H   H1        1.0  0.01740  0.98000  0.01610  1.0000
  H   H2        1.0  0.98300  0.48000  0.48400  1.0000
  H   H3        1.0  0.48300  0.01960  0.51600  1.0000
  H   H4        1.0  0.51700  0.52000  0.98400  1.0000
  O   O1        1.0  0.90100  0.92700  0.00368  1.0000
  O   O2        1.0  0.05620  0.44400  0.01200  1.0000
  O   O3        1.0  0.20600  0.06210  0.09320  1.0000
  O   O4        1.0  0.85000  0.22900  0.23800  1.0000
  O   O5        1.0  0.39600  0.29600  0.24700  1.0000
  O   O6        1.0  0.60400  0.79600  0.25300  1.0000
  O   O7        1.0  0.15000  0.72900  0.26200  1.0000
  O   O8        1.0  0.79400  0.56200  0.40700  1.0000
  O   O9        1.0  0.94400  0.94400  0.48800  1.0000
  O   O10       1.0  0.09920  0.42700  0.49600  1.0000
  O   O11       1.0  0.59900  0.07320  0.50400  1.0000
  O   O12       1.0  0.44400  0.55600  0.51200  1.0000
  O   O13       1.0  0.29400  0.93800  0.59300  1.0000
  O   O14       1.0  0.65000  0.77100  0.73800  1.0000
  O   O15       1.0  0.10400  0.70400  0.74700  1.0000
  O   O16       1.0  0.89600  0.20400  0.75300  1.0000
  O   O17       1.0  0.35000  0.27100  0.76200  1.0000
  O   O18       1.0  0.70600  0.43800  0.90700  1.0000
  O   O19       1.0  0.55600  0.05580  0.98800  1.0000
  O   O20       1.0  0.40100  0.57300  0.99600  1.0000
