data_image0
_chemical_formula_structural       Cr4O24Rb4U4
_chemical_formula_sum              "Cr4 O24 Rb4 U4"
_cell_length_a       6.7201
_cell_length_b       8.38473
_cell_length_c       10.4996
_cell_angle_alpha    90
_cell_angle_beta     106.474
_cell_angle_gamma    90

_space_group_name_H-M_alt    "P 1"
_space_group_IT_number       1

loop_
  _space_group_symop_operation_xyz
  'x, y, z'

loop_
  _atom_site_type_symbol
  _atom_site_label
  _atom_site_symmetry_multiplicity
  _atom_site_fract_x
  _atom_site_fract_y
  _atom_site_fract_z
  _atom_site_occupancy
  Cr  Cr1       1.0  0.62000  0.35700  0.05600  1.0000
  Cr  Cr2       1.0  0.38000  0.85700  0.44400  1.0000
  Cr  Cr3       1.0  0.62000  0.14300  0.55600  1.0000
  Cr  Cr4       1.0  0.38000  0.64300  0.94400  1.0000
  O   O1        1.0  0.47000  0.84100  0.00819  1.0000
  O   O2        1.0  0.86500  0.36700  0.06790  1.0000
  O   O3        1.0  0.54900  0.56300  0.10500  1.0000
  O   O4        1.0  0.20700  0.06150  0.11700  1.0000
  O   O5        1.0  0.58700  0.29000  0.21500  1.0000
  O   O6        1.0  0.75800  0.98000  0.24100  1.0000
  O   O7        1.0  0.24200  0.48000  0.25900  1.0000
  O   O8        1.0  0.41300  0.79000  0.28500  1.0000
  O   O9        1.0  0.79300  0.56200  0.38300  1.0000
  O   O10       1.0  0.45100  0.06290  0.39500  1.0000
  O   O11       1.0  0.13500  0.86700  0.43200  1.0000
  O   O12       1.0  0.53000  0.34100  0.49200  1.0000
  O   O13       1.0  0.47000  0.65900  0.50800  1.0000
  O   O14       1.0  0.86500  0.13300  0.56800  1.0000
  O   O15       1.0  0.54900  0.93700  0.60500  1.0000
  O   O16       1.0  0.20700  0.43800  0.61700  1.0000
  O   O17       1.0  0.58700  0.21000  0.71500  1.0000
  O   O18       1.0  0.75800  0.52000  0.74100  1.0000
  O   O19       1.0  0.24200  0.01950  0.75900  1.0000
  O   O20       1.0  0.41300  0.71000  0.78500  1.0000
  O   O21       1.0  0.79300  0.93800  0.88300  1.0000
  O   O22       1.0  0.45100  0.43700  0.89500  1.0000
  O   O23       1.0  0.13500  0.63300  0.93200  1.0000
  O   O24       1.0  0.53000  0.15900  0.99200  1.0000
  Rb  Rb1       1.0  0.95700  0.73700  0.13600  1.0000
  Rb  Rb2       1.0  0.04350  0.23700  0.36400  1.0000
  Rb  Rb3       1.0  0.95700  0.76300  0.63600  1.0000
  Rb  Rb4       1.0  0.04350  0.26300  0.86400  1.0000
  U   U1        1.0  0.48300  0.02110  0.17700  1.0000
  U   U2        1.0  0.51700  0.52100  0.32300  1.0000
  U   U3        1.0  0.48300  0.47900  0.67700  1.0000
  U   U4        1.0  0.51700  0.97900  0.82300  1.0000
