data_image0
_chemical_formula_structural       Cu4Mo6O24Yb2
_chemical_formula_sum              "Cu4 Mo6 O24 Yb2"
_cell_length_a       5.05889
_cell_length_b       10.9406
_cell_length_c       8.55161
_cell_angle_alpha    90
_cell_angle_beta     94.26
_cell_angle_gamma    90

_space_group_name_H-M_alt    "P 1"
_space_group_IT_number       1

loop_
  _space_group_symop_operation_xyz
  'x, y, z'

loop_
  _atom_site_type_symbol
  _atom_site_label
  _atom_site_symmetry_multiplicity
  _atom_site_fract_x
  _atom_site_fract_y
  _atom_site_fract_z
  _atom_site_occupancy
  Cu  Cu1       1.0  0.73100  0.57700  0.44700  1.0000
  Cu  Cu2       1.0  0.73100  0.92300  0.44700  1.0000
  Cu  Cu3       1.0  0.26900  0.07740  0.55300  1.0000
  Cu  Cu4       1.0  0.26900  0.42300  0.55300  1.0000
  Mo  Mo1       1.0  0.17700  0.52400  0.19700  1.0000
  Mo  Mo2       1.0  0.17700  0.97600  0.19700  1.0000
  Mo  Mo3       1.0  0.73900  0.25000  0.38300  1.0000
  Mo  Mo4       1.0  0.26100  0.75000  0.61700  1.0000
  Mo  Mo5       1.0  0.82300  0.02370  0.80300  1.0000
  Mo  Mo6       1.0  0.82300  0.47600  0.80300  1.0000
  O   O1        1.0  0.09180  0.10700  0.08400  1.0000
  O   O2        1.0  0.09180  0.39300  0.08400  1.0000
  O   O3        1.0  0.37400  0.61700  0.09000  1.0000
  O   O4        1.0  0.37400  0.88300  0.09000  1.0000
  O   O5        1.0  0.57100  0.25000  0.19800  1.0000
  O   O6        1.0  0.89500  0.61500  0.25500  1.0000
  O   O7        1.0  0.89500  0.88500  0.25500  1.0000
  O   O8        1.0  0.42100  0.01870  0.36000  1.0000
  O   O9        1.0  0.42100  0.48100  0.36000  1.0000
  O   O10       1.0  0.95400  0.11700  0.41100  1.0000
  O   O11       1.0  0.95400  0.38300  0.41100  1.0000
  O   O12       1.0  0.49200  0.75000  0.46700  1.0000
  O   O13       1.0  0.50800  0.25000  0.53300  1.0000
  O   O14       1.0  0.04550  0.61700  0.58900  1.0000
  O   O15       1.0  0.04550  0.88300  0.58900  1.0000
  O   O16       1.0  0.57900  0.51900  0.64000  1.0000
  O   O17       1.0  0.57900  0.98100  0.64000  1.0000
  O   O18       1.0  0.10500  0.11500  0.74500  1.0000
  O   O19       1.0  0.10500  0.38500  0.74500  1.0000
  O   O20       1.0  0.42900  0.75000  0.80200  1.0000
  O   O21       1.0  0.62600  0.11700  0.91000  1.0000
  O   O22       1.0  0.62600  0.38300  0.91000  1.0000
  O   O23       1.0  0.90800  0.60700  0.91600  1.0000
  O   O24       1.0  0.90800  0.89300  0.91600  1.0000
  Yb  Yb1       1.0  0.70300  0.75000  0.05530  1.0000
  Yb  Yb2       1.0  0.29700  0.25000  0.94500  1.0000
