data_image0
_chemical_formula_structural       C6F2H14N2O10Sn2
_chemical_formula_sum              "C6 F2 H14 N2 O10 Sn2"
_cell_length_a       6.00133
_cell_length_b       7.336
_cell_length_c       7.76454
_cell_angle_alpha    101.485
_cell_angle_beta     95.0841
_cell_angle_gamma    105.941

_space_group_name_H-M_alt    "P 1"
_space_group_IT_number       1

loop_
  _space_group_symop_operation_xyz
  'x, y, z'

loop_
  _atom_site_type_symbol
  _atom_site_label
  _atom_site_symmetry_multiplicity
  _atom_site_fract_x
  _atom_site_fract_y
  _atom_site_fract_z
  _atom_site_occupancy
  C   C1        1.0  0.66000  0.38000  0.26700  1.0000
  C   C2        1.0  0.49300  0.30700  0.39500  1.0000
  C   C3        1.0  0.98400  0.93400  0.40900  1.0000
  C   C4        1.0  0.01550  0.06580  0.59100  1.0000
  C   C5        1.0  0.50700  0.69300  0.60500  1.0000
  C   C6        1.0  0.34000  0.62000  0.73300  1.0000
  F   F1        1.0  0.11600  0.20600  0.00767  1.0000
  F   F2        1.0  0.88400  0.79400  0.99200  1.0000
  H   H1        1.0  0.41500  0.87900  0.01440  1.0000
  H   H2        1.0  0.18200  0.90600  0.06620  1.0000
  H   H3        1.0  0.76800  0.86600  0.17100  1.0000
  H   H4        1.0  0.78600  0.08620  0.30100  1.0000
  H   H5        1.0  0.13600  0.97900  0.34200  1.0000
  H   H6        1.0  0.62500  0.88100  0.35500  1.0000
  H   H7        1.0  0.96000  0.78400  0.41900  1.0000
  H   H8        1.0  0.04000  0.21600  0.58100  1.0000
  H   H9        1.0  0.37500  0.11900  0.64500  1.0000
  H   H10       1.0  0.86400  0.02060  0.65800  1.0000
  H   H11       1.0  0.21400  0.91400  0.69900  1.0000
  H   H12       1.0  0.23200  0.13400  0.82900  1.0000
  H   H13       1.0  0.81800  0.09370  0.93400  1.0000
  H   H14       1.0  0.58500  0.12100  0.98600  1.0000
  N   N1        1.0  0.77400  0.94200  0.30100  1.0000
  N   N2        1.0  0.22600  0.05820  0.69900  1.0000
  O   O1        1.0  0.35000  0.93800  0.11400  1.0000
  O   O2        1.0  0.60000  0.48200  0.16700  1.0000
  O   O3        1.0  0.84600  0.33100  0.26900  1.0000
  O   O4        1.0  0.29300  0.33800  0.37900  1.0000
  O   O5        1.0  0.43500  0.77100  0.49100  1.0000
  O   O6        1.0  0.56500  0.22900  0.50900  1.0000
  O   O7        1.0  0.70700  0.66200  0.62100  1.0000
  O   O8        1.0  0.15400  0.66900  0.73100  1.0000
  O   O9        1.0  0.40000  0.51800  0.83300  1.0000
  O   O10       1.0  0.65000  0.06230  0.88600  1.0000
  Sn  Sn1       1.0  0.20500  0.49000  0.17100  1.0000
  Sn  Sn2       1.0  0.79500  0.51000  0.82900  1.0000
