data_image0
_chemical_formula_structural       F24O2Tl4Zr6
_chemical_formula_sum              "F24 O2 Tl4 Zr6"
_cell_length_a       7.67071
_cell_length_b       7.67071
_cell_length_c       10.6927
_cell_angle_alpha    90
_cell_angle_beta     68.9803
_cell_angle_gamma    120

_space_group_name_H-M_alt    "P 1"
_space_group_IT_number       1

loop_
  _space_group_symop_operation_xyz
  'x, y, z'

loop_
  _atom_site_type_symbol
  _atom_site_label
  _atom_site_symmetry_multiplicity
  _atom_site_fract_x
  _atom_site_fract_y
  _atom_site_fract_z
  _atom_site_occupancy
  F   F1        1.0  0.34900  0.00000  0.00000  1.0000
  F   F2        1.0  0.65100  0.00000  0.00000  1.0000
  F   F3        1.0  0.34900  0.34900  0.00000  1.0000
  F   F4        1.0  0.00000  0.34900  0.00000  1.0000
  F   F5        1.0  0.00000  0.65100  0.00000  1.0000
  F   F6        1.0  0.65100  0.65100  0.00000  1.0000
  F   F7        1.0  0.07110  0.70500  0.22400  1.0000
  F   F8        1.0  0.07110  0.36600  0.22400  1.0000
  F   F9        1.0  0.41000  0.70500  0.22400  1.0000
  F   F10       1.0  0.17200  0.08580  0.23000  1.0000
  F   F11       1.0  0.68400  0.59900  0.23000  1.0000
  F   F12       1.0  0.68400  0.08580  0.23000  1.0000
  F   F13       1.0  0.26300  0.91900  0.39300  1.0000
  F   F14       1.0  0.26300  0.34400  0.39300  1.0000
  F   F15       1.0  0.68800  0.34400  0.39300  1.0000
  F   F16       1.0  0.31200  0.65600  0.60700  1.0000
  F   F17       1.0  0.73700  0.65600  0.60700  1.0000
  F   F18       1.0  0.73700  0.08050  0.60700  1.0000
  F   F19       1.0  0.31600  0.91400  0.77000  1.0000
  F   F20       1.0  0.31600  0.40100  0.77000  1.0000
  F   F21       1.0  0.82800  0.91400  0.77000  1.0000
  F   F22       1.0  0.59000  0.29500  0.77600  1.0000
  F   F23       1.0  0.92900  0.63400  0.77600  1.0000
  F   F24       1.0  0.92900  0.29500  0.77600  1.0000
  O   O1        1.0  0.57700  0.28800  0.13500  1.0000
  O   O2        1.0  0.42300  0.71200  0.86500  1.0000
  Tl  Tl1       1.0  0.00000  0.00000  0.00000  1.0000
  Tl  Tl2       1.0  0.72500  0.86200  0.41300  1.0000
  Tl  Tl3       1.0  1.00000  0.50000  0.50000  1.0000
  Tl  Tl4       1.0  0.27500  0.13800  0.58700  1.0000
  Zr  Zr1       1.0  0.39100  0.96900  0.18600  1.0000
  Zr  Zr2       1.0  0.39100  0.42300  0.18600  1.0000
  Zr  Zr3       1.0  0.84500  0.42300  0.18600  1.0000
  Zr  Zr4       1.0  0.15500  0.57700  0.81400  1.0000
  Zr  Zr5       1.0  0.60900  0.57700  0.81400  1.0000
  Zr  Zr6       1.0  0.60900  0.03140  0.81400  1.0000
