data_image0
_chemical_formula_structural       As4F28Kr4
_chemical_formula_sum              "As4 F28 Kr4"
_cell_length_a       4.77778
_cell_length_b       9.59983
_cell_length_c       9.91677
_cell_angle_alpha    90
_cell_angle_beta     95.1614
_cell_angle_gamma    90

_space_group_name_H-M_alt    "P 1"
_space_group_IT_number       1

loop_
  _space_group_symop_operation_xyz
  'x, y, z'

loop_
  _atom_site_type_symbol
  _atom_site_label
  _atom_site_symmetry_multiplicity
  _atom_site_fract_x
  _atom_site_fract_y
  _atom_site_fract_z
  _atom_site_occupancy
  As  As1       1.0  0.90400  0.98100  0.23400  1.0000
  As  As2       1.0  0.09570  0.48100  0.26600  1.0000
  As  As3       1.0  0.90400  0.51900  0.73400  1.0000
  As  As4       1.0  0.09570  0.01890  0.76600  1.0000
  F   F1        1.0  0.66700  0.61000  0.02830  1.0000
  F   F2        1.0  0.72500  0.04110  0.06550  1.0000
  F   F3        1.0  0.92300  0.41500  0.11800  1.0000
  F   F4        1.0  0.02800  0.84900  0.13400  1.0000
  F   F5        1.0  0.25800  0.61900  0.19100  1.0000
  F   F6        1.0  0.17900  0.09130  0.19900  1.0000
  F   F7        1.0  0.60300  0.88000  0.25000  1.0000
  F   F8        1.0  0.39700  0.38000  0.25000  1.0000
  F   F9        1.0  0.82100  0.59100  0.30100  1.0000
  F   F10       1.0  0.74200  0.11900  0.30900  1.0000
  F   F11       1.0  0.97200  0.34900  0.36600  1.0000
  F   F12       1.0  0.07680  0.91500  0.38200  1.0000
  F   F13       1.0  0.27500  0.54100  0.43500  1.0000
  F   F14       1.0  0.33300  0.11000  0.47200  1.0000
  F   F15       1.0  0.66700  0.89000  0.52800  1.0000
  F   F16       1.0  0.72500  0.45900  0.56500  1.0000
  F   F17       1.0  0.92300  0.08510  0.61800  1.0000
  F   F18       1.0  0.02800  0.65100  0.63400  1.0000
  F   F19       1.0  0.25800  0.88100  0.69100  1.0000
  F   F20       1.0  0.17900  0.40900  0.69900  1.0000
  F   F21       1.0  0.60300  0.62000  0.75000  1.0000
  F   F22       1.0  0.39700  0.12000  0.75000  1.0000
  F   F23       1.0  0.82100  0.90900  0.80100  1.0000
  F   F24       1.0  0.74200  0.38100  0.80900  1.0000
  F   F25       1.0  0.97200  0.15100  0.86600  1.0000
  F   F26       1.0  0.07680  0.58500  0.88200  1.0000
  F   F27       1.0  0.27500  0.95900  0.93500  1.0000
  F   F28       1.0  0.33300  0.39000  0.97200  1.0000
  Kr  Kr1       1.0  0.51700  0.22900  0.02140  1.0000
  Kr  Kr2       1.0  0.48300  0.72900  0.47900  1.0000
  Kr  Kr3       1.0  0.51700  0.27100  0.52100  1.0000
  Kr  Kr4       1.0  0.48300  0.77100  0.97900  1.0000
