data_image0
_chemical_formula_structural       Ce4N20Si12
_chemical_formula_sum              "Ce4 N20 Si12"
_cell_length_a       4.80512
_cell_length_b       7.85808
_cell_length_c       11.2447
_cell_angle_alpha    90
_cell_angle_beta     90
_cell_angle_gamma    90

_space_group_name_H-M_alt    "P 1"
_space_group_IT_number       1

loop_
  _space_group_symop_operation_xyz
  'x, y, z'

loop_
  _atom_site_type_symbol
  _atom_site_label
  _atom_site_symmetry_multiplicity
  _atom_site_fract_x
  _atom_site_fract_y
  _atom_site_fract_z
  _atom_site_occupancy
  Ce  Ce1       1.0  0.50900  0.06230  0.16800  1.0000
  Ce  Ce2       1.0  0.49100  0.56200  0.33200  1.0000
  Ce  Ce3       1.0  0.99100  0.93800  0.66800  1.0000
  Ce  Ce4       1.0  0.00850  0.43800  0.83200  1.0000
  N   N1        1.0  0.20600  0.85100  0.01120  1.0000
  N   N2        1.0  0.04060  0.15800  0.07930  1.0000
  N   N3        1.0  0.18500  0.51900  0.09340  1.0000
  N   N4        1.0  0.67100  0.38900  0.16900  1.0000
  N   N5        1.0  0.83100  0.79300  0.20600  1.0000
  N   N6        1.0  0.16900  0.29300  0.29400  1.0000
  N   N7        1.0  0.32900  0.88900  0.33100  1.0000
  N   N8        1.0  0.81500  0.01910  0.40700  1.0000
  N   N9        1.0  0.95900  0.65800  0.42100  1.0000
  N   N10       1.0  0.79400  0.35100  0.48900  1.0000
  N   N11       1.0  0.29400  0.14900  0.51100  1.0000
  N   N12       1.0  0.45900  0.84200  0.57900  1.0000
  N   N13       1.0  0.31500  0.48100  0.59300  1.0000
  N   N14       1.0  0.82900  0.61100  0.66900  1.0000
  N   N15       1.0  0.66900  0.20700  0.70600  1.0000
  N   N16       1.0  0.33100  0.70700  0.79400  1.0000
  N   N17       1.0  0.17100  0.11100  0.83100  1.0000
  N   N18       1.0  0.68500  0.98100  0.90700  1.0000
  N   N19       1.0  0.54100  0.34200  0.92100  1.0000
  N   N20       1.0  0.70600  0.64900  0.98900  1.0000
  Si  Si1       1.0  0.52400  0.46800  0.04150  1.0000
  Si  Si2       1.0  0.98300  0.70700  0.08350  1.0000
  Si  Si3       1.0  0.01420  0.33800  0.16100  1.0000
  Si  Si4       1.0  0.98600  0.83800  0.33900  1.0000
  Si  Si5       1.0  0.01650  0.20700  0.41600  1.0000
  Si  Si6       1.0  0.47600  0.96800  0.45800  1.0000
  Si  Si7       1.0  0.97600  0.53200  0.54200  1.0000
  Si  Si8       1.0  0.51700  0.29300  0.58400  1.0000
  Si  Si9       1.0  0.48600  0.66200  0.66100  1.0000
  Si  Si10      1.0  0.51400  0.16200  0.83900  1.0000
  Si  Si11      1.0  0.48300  0.79300  0.91600  1.0000
  Si  Si12      1.0  0.02410  0.03240  0.95800  1.0000
