data_image0
_chemical_formula_structural       Li4O24P4U4
_chemical_formula_sum              "Li4 O24 P4 U4"
_cell_length_a       4.97689
_cell_length_b       9.80127
_cell_length_c       10.8375
_cell_angle_alpha    107.923
_cell_angle_beta     102.37
_cell_angle_gamma    104.683

_space_group_name_H-M_alt    "P 1"
_space_group_IT_number       1

loop_
  _space_group_symop_operation_xyz
  'x, y, z'

loop_
  _atom_site_type_symbol
  _atom_site_label
  _atom_site_symmetry_multiplicity
  _atom_site_fract_x
  _atom_site_fract_y
  _atom_site_fract_z
  _atom_site_occupancy
  Li  Li1       1.0  0.68000  0.37900  0.22900  1.0000
  Li  Li2       1.0  0.75800  0.91300  0.30600  1.0000
  Li  Li3       1.0  0.24200  0.08720  0.69400  1.0000
  Li  Li4       1.0  0.32000  0.62100  0.77100  1.0000
  O   O1        1.0  0.72500  0.21600  0.07980  1.0000
  O   O2        1.0  0.18200  0.63700  0.10500  1.0000
  O   O3        1.0  0.78700  0.80700  0.11900  1.0000
  O   O4        1.0  0.18700  0.09140  0.11900  1.0000
  O   O5        1.0  0.33100  0.42900  0.16000  1.0000
  O   O6        1.0  0.41100  0.95700  0.23900  1.0000
  O   O7        1.0  0.04070  0.55800  0.29000  1.0000
  O   O8        1.0  0.57000  0.70800  0.32700  1.0000
  O   O9        1.0  0.61600  0.25000  0.33800  1.0000
  O   O10       1.0  0.12100  0.11000  0.34800  1.0000
  O   O11       1.0  0.18200  0.88800  0.46600  1.0000
  O   O12       1.0  0.23100  0.44400  0.49800  1.0000
  O   O13       1.0  0.76900  0.55600  0.50200  1.0000
  O   O14       1.0  0.81800  0.11200  0.53400  1.0000
  O   O15       1.0  0.87900  0.89000  0.65200  1.0000
  O   O16       1.0  0.38400  0.75000  0.66200  1.0000
  O   O17       1.0  0.43000  0.29200  0.67300  1.0000
  O   O18       1.0  0.95900  0.44200  0.71000  1.0000
  O   O19       1.0  0.58900  0.04270  0.76100  1.0000
  O   O20       1.0  0.66900  0.57100  0.84000  1.0000
  O   O21       1.0  0.81300  0.90900  0.88100  1.0000
  O   O22       1.0  0.21300  0.19300  0.88100  1.0000
  O   O23       1.0  0.81800  0.36300  0.89500  1.0000
  O   O24       1.0  0.27500  0.78400  0.92000  1.0000
  P   P1        1.0  0.28100  0.58300  0.22000  1.0000
  P   P2        1.0  0.33900  0.10500  0.26600  1.0000
  P   P3        1.0  0.66100  0.89500  0.73400  1.0000
  P   P4        1.0  0.71900  0.41700  0.78000  1.0000
  U   U1        1.0  0.03260  0.79600  0.02060  1.0000
  U   U2        1.0  0.98100  0.72000  0.48400  1.0000
  U   U3        1.0  0.01950  0.28000  0.51600  1.0000
  U   U4        1.0  0.96700  0.20400  0.97900  1.0000
