data_image0
_chemical_formula_structural       As4H4Hg4O20Zn4
_chemical_formula_sum              "As4 H4 Hg4 O20 Zn4"
_cell_length_a       7.63319
_cell_length_b       6.24112
_cell_length_c       8.74272
_cell_angle_alpha    90
_cell_angle_beta     90
_cell_angle_gamma    90

_space_group_name_H-M_alt    "P 1"
_space_group_IT_number       1

loop_
  _space_group_symop_operation_xyz
  'x, y, z'

loop_
  _atom_site_type_symbol
  _atom_site_label
  _atom_site_symmetry_multiplicity
  _atom_site_fract_x
  _atom_site_fract_y
  _atom_site_fract_z
  _atom_site_occupancy
  As  As1       1.0  0.35800  0.25000  0.18300  1.0000
  As  As2       1.0  0.85800  0.25000  0.31700  1.0000
  As  As3       1.0  0.14200  0.75000  0.68300  1.0000
  As  As4       1.0  0.64200  0.75000  0.81700  1.0000
  H   H1        1.0  0.26500  0.75000  0.04380  1.0000
  H   H2        1.0  0.76500  0.75000  0.45600  1.0000
  H   H3        1.0  0.23500  0.25000  0.54400  1.0000
  H   H4        1.0  0.73500  0.25000  0.95600  1.0000
  Hg  Hg1       1.0  0.61300  0.75000  0.17100  1.0000
  Hg  Hg2       1.0  0.11300  0.75000  0.32900  1.0000
  Hg  Hg3       1.0  0.88700  0.25000  0.67100  1.0000
  Hg  Hg4       1.0  0.38700  0.25000  0.82900  1.0000
  O   O1        1.0  0.52400  0.25000  0.04600  1.0000
  O   O2        1.0  0.16900  0.25000  0.07390  1.0000
  O   O3        1.0  0.14300  0.75000  0.08230  1.0000
  O   O4        1.0  0.86800  0.01840  0.21100  1.0000
  O   O5        1.0  0.86800  0.48200  0.21100  1.0000
  O   O6        1.0  0.36800  0.01840  0.28900  1.0000
  O   O7        1.0  0.36800  0.48200  0.28900  1.0000
  O   O8        1.0  0.64300  0.75000  0.41800  1.0000
  O   O9        1.0  0.66900  0.25000  0.42600  1.0000
  O   O10       1.0  0.02390  0.25000  0.45400  1.0000
  O   O11       1.0  0.97600  0.75000  0.54600  1.0000
  O   O12       1.0  0.33100  0.75000  0.57400  1.0000
  O   O13       1.0  0.35700  0.25000  0.58200  1.0000
  O   O14       1.0  0.63200  0.51800  0.71100  1.0000
  O   O15       1.0  0.63200  0.98200  0.71100  1.0000
  O   O16       1.0  0.13200  0.51800  0.78900  1.0000
  O   O17       1.0  0.13200  0.98200  0.78900  1.0000
  O   O18       1.0  0.85700  0.25000  0.91800  1.0000
  O   O19       1.0  0.83100  0.75000  0.92600  1.0000
  O   O20       1.0  0.47600  0.75000  0.95400  1.0000
  Zn  Zn1       1.0  0.00000  0.00000  0.00000  1.0000
  Zn  Zn2       1.0  0.00000  0.50000  0.00000  1.0000
  Zn  Zn3       1.0  0.50000  0.00000  0.50000  1.0000
  Zn  Zn4       1.0  0.50000  0.50000  0.50000  1.0000
