data_image0
_chemical_formula_structural       Br12C8Gd16
_chemical_formula_sum              "Br12 C8 Gd16"
_cell_length_a       10.8762
_cell_length_b       3.72957
_cell_length_c       20.6975
_cell_angle_alpha    90
_cell_angle_beta     90
_cell_angle_gamma    90

_space_group_name_H-M_alt    "P 1"
_space_group_IT_number       1

loop_
  _space_group_symop_operation_xyz
  'x, y, z'

loop_
  _atom_site_type_symbol
  _atom_site_label
  _atom_site_symmetry_multiplicity
  _atom_site_fract_x
  _atom_site_fract_y
  _atom_site_fract_z
  _atom_site_occupancy
  Br  Br1       1.0  0.37100  0.25000  0.04640  1.0000
  Br  Br2       1.0  0.88500  0.25000  0.05560  1.0000
  Br  Br3       1.0  0.13200  0.75000  0.14200  1.0000
  Br  Br4       1.0  0.63200  0.75000  0.35800  1.0000
  Br  Br5       1.0  0.38500  0.25000  0.44400  1.0000
  Br  Br6       1.0  0.87100  0.25000  0.45400  1.0000
  Br  Br7       1.0  0.12900  0.75000  0.54600  1.0000
  Br  Br8       1.0  0.61500  0.75000  0.55600  1.0000
  Br  Br9       1.0  0.36800  0.25000  0.64200  1.0000
  Br  Br10      1.0  0.86800  0.25000  0.85800  1.0000
  Br  Br11      1.0  0.11500  0.75000  0.94400  1.0000
  Br  Br12      1.0  0.62900  0.75000  0.95400  1.0000
  C   C1        1.0  0.62900  0.75000  0.15600  1.0000
  C   C2        1.0  0.38100  0.25000  0.24900  1.0000
  C   C3        1.0  0.88100  0.25000  0.25100  1.0000
  C   C4        1.0  0.12900  0.75000  0.34400  1.0000
  C   C5        1.0  0.87100  0.25000  0.65600  1.0000
  C   C6        1.0  0.11900  0.75000  0.74900  1.0000
  C   C7        1.0  0.61900  0.75000  0.75100  1.0000
  C   C8        1.0  0.37100  0.25000  0.84400  1.0000
  Gd  Gd1       1.0  0.63100  0.25000  0.08010  1.0000
  Gd  Gd2       1.0  0.86500  0.75000  0.16900  1.0000
  Gd  Gd3       1.0  0.39500  0.75000  0.17000  1.0000
  Gd  Gd4       1.0  0.62900  0.25000  0.24500  1.0000
  Gd  Gd5       1.0  0.12900  0.25000  0.25500  1.0000
  Gd  Gd6       1.0  0.89500  0.75000  0.33000  1.0000
  Gd  Gd7       1.0  0.36500  0.75000  0.33100  1.0000
  Gd  Gd8       1.0  0.13100  0.25000  0.42000  1.0000
  Gd  Gd9       1.0  0.86900  0.75000  0.58000  1.0000
  Gd  Gd10      1.0  0.63500  0.25000  0.66900  1.0000
  Gd  Gd11      1.0  0.10500  0.25000  0.67000  1.0000
  Gd  Gd12      1.0  0.87100  0.75000  0.74500  1.0000
  Gd  Gd13      1.0  0.37100  0.75000  0.75500  1.0000
  Gd  Gd14      1.0  0.60500  0.25000  0.83000  1.0000
  Gd  Gd15      1.0  0.13500  0.25000  0.83100  1.0000
  Gd  Gd16      1.0  0.36900  0.75000  0.92000  1.0000
