data_image0
_chemical_formula_structural       Ba4Co4F24Li4
_chemical_formula_sum              "Ba4 Co4 F24 Li4"
_cell_length_a       5.43549
_cell_length_b       9.97133
_cell_length_c       8.17649
_cell_angle_alpha    90
_cell_angle_beta     91.1951
_cell_angle_gamma    90

_space_group_name_H-M_alt    "P 1"
_space_group_IT_number       1

loop_
  _space_group_symop_operation_xyz
  'x, y, z'

loop_
  _atom_site_type_symbol
  _atom_site_label
  _atom_site_symmetry_multiplicity
  _atom_site_fract_x
  _atom_site_fract_y
  _atom_site_fract_z
  _atom_site_occupancy
  Ba  Ba1       1.0  0.68600  0.79600  0.00628  1.0000
  Ba  Ba2       1.0  0.31400  0.29600  0.49400  1.0000
  Ba  Ba3       1.0  0.68600  0.70400  0.50600  1.0000
  Ba  Ba4       1.0  0.31400  0.20400  0.99400  1.0000
  Co  Co1       1.0  0.77600  0.42300  0.23500  1.0000
  Co  Co2       1.0  0.22400  0.92300  0.26500  1.0000
  Co  Co3       1.0  0.77600  0.07740  0.73500  1.0000
  Co  Co4       1.0  0.22400  0.57700  0.76500  1.0000
  F   F1        1.0  0.67400  0.41100  0.01780  1.0000
  F   F2        1.0  0.14100  0.89600  0.04190  1.0000
  F   F3        1.0  0.51900  0.00020  0.17700  1.0000
  F   F4        1.0  0.11200  0.37900  0.18500  1.0000
  F   F5        1.0  0.88700  0.61000  0.21500  1.0000
  F   F6        1.0  0.62400  0.24400  0.24900  1.0000
  F   F7        1.0  0.37600  0.74400  0.25100  1.0000
  F   F8        1.0  0.11300  0.11000  0.28500  1.0000
  F   F9        1.0  0.88800  0.87900  0.31500  1.0000
  F   F10       1.0  0.48100  0.50000  0.32300  1.0000
  F   F11       1.0  0.85900  0.39600  0.45800  1.0000
  F   F12       1.0  0.32600  0.91100  0.48200  1.0000
  F   F13       1.0  0.67400  0.08860  0.51800  1.0000
  F   F14       1.0  0.14100  0.60400  0.54200  1.0000
  F   F15       1.0  0.51900  0.50000  0.67700  1.0000
  F   F16       1.0  0.11200  0.12100  0.68500  1.0000
  F   F17       1.0  0.88700  0.89000  0.71500  1.0000
  F   F18       1.0  0.62400  0.25600  0.74900  1.0000
  F   F19       1.0  0.37600  0.75600  0.75100  1.0000
  F   F20       1.0  0.11300  0.39000  0.78500  1.0000
  F   F21       1.0  0.88800  0.62100  0.81500  1.0000
  F   F22       1.0  0.48100  0.00000  0.82300  1.0000
  F   F23       1.0  0.85900  0.10400  0.95800  1.0000
  F   F24       1.0  0.32600  0.58900  0.98200  1.0000
  Li  Li1       1.0  0.22500  0.57500  0.19900  1.0000
  Li  Li2       1.0  0.77500  0.07530  0.30100  1.0000
  Li  Li3       1.0  0.22500  0.92500  0.69900  1.0000
  Li  Li4       1.0  0.77500  0.42500  0.80100  1.0000
