data_image0
_chemical_formula_structural       Cs4F28Xe4
_chemical_formula_sum              "Cs4 F28 Xe4"
_cell_length_a       8.1297
_cell_length_b       8.1297
_cell_length_c       8.1297
_cell_angle_alpha    90
_cell_angle_beta     90
_cell_angle_gamma    90

_space_group_name_H-M_alt    "P 1"
_space_group_IT_number       1

loop_
  _space_group_symop_operation_xyz
  'x, y, z'

loop_
  _atom_site_type_symbol
  _atom_site_label
  _atom_site_symmetry_multiplicity
  _atom_site_fract_x
  _atom_site_fract_y
  _atom_site_fract_z
  _atom_site_occupancy
  Cs  Cs1       1.0  0.10300  0.10300  0.10300  1.0000
  Cs  Cs2       1.0  0.89700  0.60300  0.39700  1.0000
  Cs  Cs3       1.0  0.39700  0.89700  0.60300  1.0000
  Cs  Cs4       1.0  0.60300  0.39700  0.89700  1.0000
  F   F1        1.0  0.94700  0.44700  0.05280  1.0000
  F   F2        1.0  0.84200  0.84300  0.08960  1.0000
  F   F3        1.0  0.70200  0.13100  0.11600  1.0000
  F   F4        1.0  0.11600  0.70200  0.13100  1.0000
  F   F5        1.0  0.59000  0.65800  0.15700  1.0000
  F   F6        1.0  0.34300  0.41000  0.15800  1.0000
  F   F7        1.0  0.36900  0.88400  0.20200  1.0000
  F   F8        1.0  0.63100  0.38400  0.29800  1.0000
  F   F9        1.0  0.65700  0.91000  0.34200  1.0000
  F   F10       1.0  0.41000  0.15800  0.34300  1.0000
  F   F11       1.0  0.88400  0.20200  0.36900  1.0000
  F   F12       1.0  0.29800  0.63100  0.38400  1.0000
  F   F13       1.0  0.15800  0.34300  0.41000  1.0000
  F   F14       1.0  0.05280  0.94700  0.44700  1.0000
  F   F15       1.0  0.55300  0.55300  0.55300  1.0000
  F   F16       1.0  0.65800  0.15700  0.59000  1.0000
  F   F17       1.0  0.79800  0.86900  0.61600  1.0000
  F   F18       1.0  0.38400  0.29800  0.63100  1.0000
  F   F19       1.0  0.91000  0.34200  0.65700  1.0000
  F   F20       1.0  0.15700  0.59000  0.65800  1.0000
  F   F21       1.0  0.13100  0.11600  0.70200  1.0000
  F   F22       1.0  0.86900  0.61600  0.79800  1.0000
  F   F23       1.0  0.84300  0.08960  0.84200  1.0000
  F   F24       1.0  0.08960  0.84200  0.84300  1.0000
  F   F25       1.0  0.61600  0.79800  0.86900  1.0000
  F   F26       1.0  0.20200  0.36900  0.88400  1.0000
  F   F27       1.0  0.34200  0.65700  0.91000  1.0000
  F   F28       1.0  0.44700  0.05280  0.94700  1.0000
  Xe  Xe1       1.0  0.59800  0.90200  0.09790  1.0000
  Xe  Xe2       1.0  0.40200  0.40200  0.40200  1.0000
  Xe  Xe3       1.0  0.90200  0.09790  0.59800  1.0000
  Xe  Xe4       1.0  0.09790  0.59800  0.90200  1.0000
