data_image0
_chemical_formula_structural       F28Sb4Xe4
_chemical_formula_sum              "F28 Sb4 Xe4"
_cell_length_a       4.96992
_cell_length_b       10.3687
_cell_length_c       10.2714
_cell_angle_alpha    90
_cell_angle_beta     94.7065
_cell_angle_gamma    90

_space_group_name_H-M_alt    "P 1"
_space_group_IT_number       1

loop_
  _space_group_symop_operation_xyz
  'x, y, z'

loop_
  _atom_site_type_symbol
  _atom_site_label
  _atom_site_symmetry_multiplicity
  _atom_site_fract_x
  _atom_site_fract_y
  _atom_site_fract_z
  _atom_site_occupancy
  F   F1        1.0  0.66400  0.10000  0.03290  1.0000
  F   F2        1.0  0.71900  0.54400  0.06400  1.0000
  F   F3        1.0  0.92800  0.91000  0.11100  1.0000
  F   F4        1.0  0.02070  0.34800  0.12900  1.0000
  F   F5        1.0  0.24900  0.12900  0.18900  1.0000
  F   F6        1.0  0.19800  0.58900  0.19600  1.0000
  F   F7        1.0  0.42000  0.89000  0.24500  1.0000
  F   F8        1.0  0.58000  0.39000  0.25500  1.0000
  F   F9        1.0  0.80200  0.08890  0.30400  1.0000
  F   F10       1.0  0.75100  0.62900  0.31100  1.0000
  F   F11       1.0  0.97900  0.84800  0.37100  1.0000
  F   F12       1.0  0.07210  0.41000  0.38900  1.0000
  F   F13       1.0  0.28100  0.04410  0.43600  1.0000
  F   F14       1.0  0.33600  0.60000  0.46700  1.0000
  F   F15       1.0  0.66400  0.40000  0.53300  1.0000
  F   F16       1.0  0.71900  0.95600  0.56400  1.0000
  F   F17       1.0  0.92800  0.59000  0.61100  1.0000
  F   F18       1.0  0.02070  0.15200  0.62900  1.0000
  F   F19       1.0  0.24900  0.37100  0.68900  1.0000
  F   F20       1.0  0.19800  0.91100  0.69600  1.0000
  F   F21       1.0  0.42000  0.61000  0.74500  1.0000
  F   F22       1.0  0.58000  0.11000  0.75500  1.0000
  F   F23       1.0  0.80200  0.41100  0.80400  1.0000
  F   F24       1.0  0.75100  0.87100  0.81100  1.0000
  F   F25       1.0  0.97900  0.65200  0.87100  1.0000
  F   F26       1.0  0.07210  0.09010  0.88900  1.0000
  F   F27       1.0  0.28100  0.45600  0.93600  1.0000
  F   F28       1.0  0.33600  0.90000  0.96700  1.0000
  Sb  Sb1       1.0  0.90400  0.48400  0.23500  1.0000
  Sb  Sb2       1.0  0.09590  0.98400  0.26500  1.0000
  Sb  Sb3       1.0  0.90400  0.01610  0.73500  1.0000
  Sb  Sb4       1.0  0.09590  0.51600  0.76500  1.0000
  Xe  Xe1       1.0  0.51300  0.73500  0.01700  1.0000
  Xe  Xe2       1.0  0.48700  0.23500  0.48300  1.0000
  Xe  Xe3       1.0  0.51300  0.76500  0.51700  1.0000
  Xe  Xe4       1.0  0.48700  0.26500  0.98300  1.0000
