data_image0
_chemical_formula_structural       Cs2O24P6Zr4
_chemical_formula_sum              "Cs2 O24 P6 Zr4"
_cell_length_a       8.59078
_cell_length_b       8.59078
_cell_length_c       9.72326
_cell_angle_alpha    90
_cell_angle_beta     116.216
_cell_angle_gamma    60

_space_group_name_H-M_alt    "P 1"
_space_group_IT_number       1

loop_
  _space_group_symop_operation_xyz
  'x, y, z'

loop_
  _atom_site_type_symbol
  _atom_site_label
  _atom_site_symmetry_multiplicity
  _atom_site_fract_x
  _atom_site_fract_y
  _atom_site_fract_z
  _atom_site_occupancy
  Cs  Cs1       1.0  0.00000  0.00000  0.00000  1.0000
  Cs  Cs2       1.0  0.00000  0.50000  0.50000  1.0000
  O   O1        1.0  0.62700  0.22500  0.11000  1.0000
  O   O2        1.0  0.33500  0.14800  0.11000  1.0000
  O   O3        1.0  0.25700  0.51800  0.11000  1.0000
  O   O4        1.0  0.76800  0.42500  0.18900  1.0000
  O   O5        1.0  0.61400  0.80700  0.18900  1.0000
  O   O6        1.0  0.99700  0.57800  0.18900  1.0000
  O   O7        1.0  0.38600  0.92200  0.31100  1.0000
  O   O8        1.0  0.23200  0.69300  0.31100  1.0000
  O   O9        1.0  0.00309  0.07520  0.31100  1.0000
  O   O10       1.0  0.74300  0.27500  0.39000  1.0000
  O   O11       1.0  0.66500  0.98200  0.39000  1.0000
  O   O12       1.0  0.37300  0.35200  0.39000  1.0000
  O   O13       1.0  0.62700  0.64800  0.61000  1.0000
  O   O14       1.0  0.33500  0.01760  0.61000  1.0000
  O   O15       1.0  0.25700  0.72500  0.61000  1.0000
  O   O16       1.0  0.76800  0.30700  0.68900  1.0000
  O   O17       1.0  0.61400  0.07830  0.68900  1.0000
  O   O18       1.0  0.99700  0.92500  0.68900  1.0000
  O   O19       1.0  0.38600  0.19300  0.81100  1.0000
  O   O20       1.0  0.23200  0.57500  0.81100  1.0000
  O   O21       1.0  0.00309  0.42200  0.81100  1.0000
  O   O22       1.0  0.74300  0.48200  0.89000  1.0000
  O   O23       1.0  0.66500  0.85200  0.89000  1.0000
  O   O24       1.0  0.37300  0.77500  0.89000  1.0000
  P   P1        1.0  0.78200  0.25000  0.25000  1.0000
  P   P2        1.0  0.50000  0.96800  0.25000  1.0000
  P   P3        1.0  0.21800  0.53200  0.25000  1.0000
  P   P4        1.0  0.78200  0.46800  0.75000  1.0000
  P   P5        1.0  0.50000  0.03230  0.75000  1.0000
  P   P6        1.0  0.21800  0.75000  0.75000  1.0000
  Zr  Zr1       1.0  0.69300  0.65300  0.04010  1.0000
  Zr  Zr2       1.0  0.30700  0.84700  0.46000  1.0000
  Zr  Zr3       1.0  0.69300  0.15300  0.54000  1.0000
  Zr  Zr4       1.0  0.30700  0.34700  0.96000  1.0000
