data_image0
_chemical_formula_structural       Cu15Sn12
_chemical_formula_sum              "Cu15 Sn12"
_cell_length_a       7.34871
_cell_length_b       7.35404
_cell_length_c       10.2641
_cell_angle_alpha    89.7597
_cell_angle_beta     90
_cell_angle_gamma    119.976

_space_group_name_H-M_alt    "P 1"
_space_group_IT_number       1

loop_
  _space_group_symop_operation_xyz
  'x, y, z'

loop_
  _atom_site_type_symbol
  _atom_site_label
  _atom_site_symmetry_multiplicity
  _atom_site_fract_x
  _atom_site_fract_y
  _atom_site_fract_z
  _atom_site_occupancy
  Cu  Cu1       1.0  0.31900  0.00000  0.00000  1.0000
  Cu  Cu2       1.0  0.01270  0.01940  0.12500  1.0000
  Cu  Cu3       1.0  0.61900  0.31900  0.12600  1.0000
  Cu  Cu4       1.0  0.31600  0.67000  0.12600  1.0000
  Cu  Cu5       1.0  0.31600  0.34300  0.25100  1.0000
  Cu  Cu6       1.0  0.63100  0.33700  0.37700  1.0000
  Cu  Cu7       1.0  0.99500  0.01870  0.37700  1.0000
  Cu  Cu8       1.0  0.31700  0.65300  0.37700  1.0000
  Cu  Cu9       1.0  0.66400  0.34700  0.62300  1.0000
  Cu  Cu10      1.0  0.97600  0.98100  0.62300  1.0000
  Cu  Cu11      1.0  0.29400  0.66300  0.62300  1.0000
  Cu  Cu12      1.0  0.97300  0.65700  0.74900  1.0000
  Cu  Cu13      1.0  0.64600  0.33000  0.87400  1.0000
  Cu  Cu14      1.0  0.30000  0.68100  0.87400  1.0000
  Cu  Cu15      1.0  0.99300  0.98100  0.87500  1.0000
  Sn  Sn1       1.0  0.67700  0.00000  0.00000  1.0000
  Sn  Sn2       1.0  0.95500  0.64000  0.01920  1.0000
  Sn  Sn3       1.0  0.67400  0.70200  0.24800  1.0000
  Sn  Sn4       1.0  0.95000  0.32900  0.25000  1.0000
  Sn  Sn5       1.0  0.32000  0.98100  0.26900  1.0000
  Sn  Sn6       1.0  0.97500  0.66300  0.47900  1.0000
  Sn  Sn7       1.0  0.65000  0.00000  0.50000  1.0000
  Sn  Sn8       1.0  0.31200  0.33700  0.52100  1.0000
  Sn  Sn9       1.0  0.33900  0.01900  0.73100  1.0000
  Sn  Sn10      1.0  0.62100  0.67100  0.75000  1.0000
  Sn  Sn11      1.0  0.97300  0.29800  0.75200  1.0000
  Sn  Sn12      1.0  0.31500  0.36000  0.98100  1.0000
