data_image0
_chemical_formula_structural       Bi4F28Kr4
_chemical_formula_sum              "Bi4 F28 Kr4"
_cell_length_a       4.98192
_cell_length_b       9.87746
_cell_length_c       10.3649
_cell_angle_alpha    90
_cell_angle_beta     95.2625
_cell_angle_gamma    90

_space_group_name_H-M_alt    "P 1"
_space_group_IT_number       1

loop_
  _space_group_symop_operation_xyz
  'x, y, z'

loop_
  _atom_site_type_symbol
  _atom_site_label
  _atom_site_symmetry_multiplicity
  _atom_site_fract_x
  _atom_site_fract_y
  _atom_site_fract_z
  _atom_site_occupancy
  Bi  Bi1       1.0  0.40200  0.48500  0.23900  1.0000
  Bi  Bi2       1.0  0.59800  0.98500  0.26100  1.0000
  Bi  Bi3       1.0  0.40200  0.01490  0.73900  1.0000
  Bi  Bi4       1.0  0.59800  0.51500  0.76100  1.0000
  F   F1        1.0  0.18000  0.10200  0.02740  1.0000
  F   F2        1.0  0.19400  0.56000  0.05940  1.0000
  F   F3        1.0  0.41300  0.89000  0.10700  1.0000
  F   F4        1.0  0.51100  0.34800  0.11200  1.0000
  F   F5        1.0  0.77400  0.13900  0.17900  1.0000
  F   F6        1.0  0.69800  0.61200  0.20000  1.0000
  F   F7        1.0  0.05680  0.38000  0.24900  1.0000
  F   F8        1.0  0.94300  0.88000  0.25100  1.0000
  F   F9        1.0  0.30200  0.11200  0.30000  1.0000
  F   F10       1.0  0.22600  0.63900  0.32100  1.0000
  F   F11       1.0  0.48900  0.84800  0.38800  1.0000
  F   F12       1.0  0.58700  0.39000  0.39300  1.0000
  F   F13       1.0  0.80600  0.06030  0.44100  1.0000
  F   F14       1.0  0.82000  0.60200  0.47300  1.0000
  F   F15       1.0  0.18000  0.39800  0.52700  1.0000
  F   F16       1.0  0.19400  0.94000  0.55900  1.0000
  F   F17       1.0  0.41300  0.61000  0.60700  1.0000
  F   F18       1.0  0.51100  0.15200  0.61200  1.0000
  F   F19       1.0  0.77400  0.36100  0.67900  1.0000
  F   F20       1.0  0.69800  0.88800  0.70000  1.0000
  F   F21       1.0  0.05680  0.12000  0.74900  1.0000
  F   F22       1.0  0.94300  0.62000  0.75100  1.0000
  F   F23       1.0  0.30200  0.38800  0.80000  1.0000
  F   F24       1.0  0.22600  0.86100  0.82100  1.0000
  F   F25       1.0  0.48900  0.65200  0.88800  1.0000
  F   F26       1.0  0.58700  0.11000  0.89300  1.0000
  F   F27       1.0  0.80600  0.44000  0.94100  1.0000
  F   F28       1.0  0.82000  0.89800  0.97300  1.0000
  Kr  Kr1       1.0  0.99300  0.73700  0.01650  1.0000
  Kr  Kr2       1.0  0.00700  0.23700  0.48300  1.0000
  Kr  Kr3       1.0  0.99300  0.76300  0.51700  1.0000
  Kr  Kr4       1.0  0.00700  0.26300  0.98300  1.0000
