data_image0
_chemical_formula_structural       Ge8K8Se20
_chemical_formula_sum              "Ge8 K8 Se20"
_cell_length_a       10.3933
_cell_length_b       11.8493
_cell_length_c       10.0124
_cell_angle_alpha    90
_cell_angle_beta     90.2039
_cell_angle_gamma    90

_space_group_name_H-M_alt    "P 1"
_space_group_IT_number       1

loop_
  _space_group_symop_operation_xyz
  'x, y, z'

loop_
  _atom_site_type_symbol
  _atom_site_label
  _atom_site_symmetry_multiplicity
  _atom_site_fract_x
  _atom_site_fract_y
  _atom_site_fract_z
  _atom_site_occupancy
  Ge  Ge1       1.0  0.82200  0.25000  0.08990  1.0000
  Ge  Ge2       1.0  0.94500  0.75000  0.20100  1.0000
  Ge  Ge3       1.0  0.26300  0.58700  0.23300  1.0000
  Ge  Ge4       1.0  0.26300  0.91300  0.23300  1.0000
  Ge  Ge5       1.0  0.73700  0.08690  0.76700  1.0000
  Ge  Ge6       1.0  0.73700  0.41300  0.76700  1.0000
  Ge  Ge7       1.0  0.05530  0.25000  0.79900  1.0000
  Ge  Ge8       1.0  0.17800  0.75000  0.91000  1.0000
  K   K1        1.0  0.42000  0.25000  0.04030  1.0000
  K   K2        1.0  0.66500  0.00751  0.36200  1.0000
  K   K3        1.0  0.66500  0.49200  0.36200  1.0000
  K   K4        1.0  0.10800  0.25000  0.40900  1.0000
  K   K5        1.0  0.89200  0.75000  0.59100  1.0000
  K   K6        1.0  0.33500  0.50800  0.63800  1.0000
  K   K7        1.0  0.33500  0.99200  0.63800  1.0000
  K   K8        1.0  0.58000  0.75000  0.96000  1.0000
  Se  Se1       1.0  0.71100  0.08380  0.00633  1.0000
  Se  Se2       1.0  0.71100  0.41600  0.00633  1.0000
  Se  Se3       1.0  0.04610  0.25000  0.03760  1.0000
  Se  Se4       1.0  0.73100  0.75000  0.26600  1.0000
  Se  Se5       1.0  0.04000  0.58200  0.29700  1.0000
  Se  Se6       1.0  0.04000  0.91800  0.29700  1.0000
  Se  Se7       1.0  0.35700  0.07630  0.31700  1.0000
  Se  Se8       1.0  0.35700  0.42400  0.31700  1.0000
  Se  Se9       1.0  0.80100  0.25000  0.31900  1.0000
  Se  Se10      1.0  0.37300  0.75000  0.32700  1.0000
  Se  Se11      1.0  0.62700  0.25000  0.67300  1.0000
  Se  Se12      1.0  0.19900  0.75000  0.68100  1.0000
  Se  Se13      1.0  0.64300  0.57600  0.68300  1.0000
  Se  Se14      1.0  0.64300  0.92400  0.68300  1.0000
  Se  Se15      1.0  0.96000  0.08220  0.70300  1.0000
  Se  Se16      1.0  0.96000  0.41800  0.70300  1.0000
  Se  Se17      1.0  0.26900  0.25000  0.73400  1.0000
  Se  Se18      1.0  0.95400  0.75000  0.96200  1.0000
  Se  Se19      1.0  0.28900  0.58400  0.99400  1.0000
  Se  Se20      1.0  0.28900  0.91600  0.99400  1.0000
