data_image0
_chemical_formula_structural       CrLi3MnO6
_chemical_formula_sum              "Cr1 Li3 Mn1 O6"
_cell_length_a       4.92624
_cell_length_b       4.92624
_cell_length_c       4.97436
_cell_angle_alpha    99.8728
_cell_angle_beta     99.8728
_cell_angle_gamma    119.669

_space_group_name_H-M_alt    "P 1"
_space_group_IT_number       1

loop_
  _space_group_symop_operation_xyz
  'x, y, z'

loop_
  _atom_site_type_symbol
  _atom_site_label
  _atom_site_symmetry_multiplicity
  _atom_site_fract_x
  _atom_site_fract_y
  _atom_site_fract_z
  _atom_site_occupancy
  Cr  Cr1       1.0  0.16900  0.83100  0.00000  1.0000
  Li  Li1       1.0  0.00114  0.99900  0.50000  1.0000
  Li  Li2       1.0  0.65100  0.34900  0.50000  1.0000
  Li  Li3       1.0  0.34800  0.65200  0.50000  1.0000
  Mn  Mn1       1.0  0.83200  0.16800  0.00000  1.0000
  O   O1        1.0  0.95300  0.58200  0.23000  1.0000
  O   O2        1.0  0.57400  0.95100  0.23000  1.0000
  O   O3        1.0  0.20700  0.20500  0.23400  1.0000
  O   O4        1.0  0.79500  0.79300  0.76600  1.0000
  O   O5        1.0  0.04930  0.42600  0.77000  1.0000
  O   O6        1.0  0.41800  0.04680  0.77000  1.0000
