data_image0
_chemical_formula_structural       B8Na8S20
_chemical_formula_sum              "B8 Na8 S20"
_cell_length_a       12.6223
_cell_length_b       7.55972
_cell_length_c       8.32349
_cell_angle_alpha    90
_cell_angle_beta     90
_cell_angle_gamma    90

_space_group_name_H-M_alt    "P 1"
_space_group_IT_number       1

loop_
  _space_group_symop_operation_xyz
  'x, y, z'

loop_
  _atom_site_type_symbol
  _atom_site_label
  _atom_site_symmetry_multiplicity
  _atom_site_fract_x
  _atom_site_fract_y
  _atom_site_fract_z
  _atom_site_occupancy
  B   B1        1.0  0.37900  0.75000  0.09520  1.0000
  B   B2        1.0  0.51300  0.25000  0.20800  1.0000
  B   B3        1.0  0.01300  0.25000  0.29200  1.0000
  B   B4        1.0  0.87900  0.75000  0.40500  1.0000
  B   B5        1.0  0.12100  0.25000  0.59500  1.0000
  B   B6        1.0  0.98700  0.75000  0.70800  1.0000
  B   B7        1.0  0.48700  0.75000  0.79200  1.0000
  B   B8        1.0  0.62100  0.25000  0.90500  1.0000
  Na  Na1       1.0  0.16500  0.00402  0.00545  1.0000
  Na  Na2       1.0  0.16500  0.49600  0.00545  1.0000
  Na  Na3       1.0  0.66500  0.00402  0.49500  1.0000
  Na  Na4       1.0  0.66500  0.49600  0.49500  1.0000
  Na  Na5       1.0  0.33500  0.50400  0.50500  1.0000
  Na  Na6       1.0  0.33500  0.99600  0.50500  1.0000
  Na  Na7       1.0  0.83500  0.50400  0.99500  1.0000
  Na  Na8       1.0  0.83500  0.99600  0.99500  1.0000
  S   S1        1.0  0.40400  0.25000  0.06500  1.0000
  S   S2        1.0  0.99200  0.25000  0.08090  1.0000
  S   S3        1.0  0.64700  0.25000  0.12200  1.0000
  S   S4        1.0  0.51700  0.75000  0.15600  1.0000
  S   S5        1.0  0.27400  0.75000  0.23700  1.0000
  S   S6        1.0  0.77400  0.75000  0.26300  1.0000
  S   S7        1.0  0.01690  0.75000  0.34400  1.0000
  S   S8        1.0  0.14700  0.25000  0.37800  1.0000
  S   S9        1.0  0.49200  0.25000  0.41900  1.0000
  S   S10       1.0  0.90400  0.25000  0.43500  1.0000
  S   S11       1.0  0.09580  0.75000  0.56500  1.0000
  S   S12       1.0  0.50800  0.75000  0.58100  1.0000
  S   S13       1.0  0.85300  0.75000  0.62200  1.0000
  S   S14       1.0  0.98300  0.25000  0.65600  1.0000
  S   S15       1.0  0.22600  0.25000  0.73700  1.0000
  S   S16       1.0  0.72600  0.25000  0.76300  1.0000
  S   S17       1.0  0.48300  0.25000  0.84400  1.0000
  S   S18       1.0  0.35300  0.75000  0.87800  1.0000
  S   S19       1.0  0.00800  0.75000  0.91900  1.0000
  S   S20       1.0  0.59600  0.75000  0.93500  1.0000
