data_image0
_chemical_formula_structural       K12Na8P12Sn4
_chemical_formula_sum              "K12 Na8 P12 Sn4"
_cell_length_a       6.66596
_cell_length_b       10.5285
_cell_length_c       15.0523
_cell_angle_alpha    90
_cell_angle_beta     90
_cell_angle_gamma    71.5445

_space_group_name_H-M_alt    "P 1"
_space_group_IT_number       1

loop_
  _space_group_symop_operation_xyz
  'x, y, z'

loop_
  _atom_site_type_symbol
  _atom_site_label
  _atom_site_symmetry_multiplicity
  _atom_site_fract_x
  _atom_site_fract_y
  _atom_site_fract_z
  _atom_site_occupancy
  K   K1        1.0  0.06230  0.33400  0.17700  1.0000
  K   K2        1.0  0.39600  0.66600  0.17700  1.0000
  K   K3        1.0  0.76000  0.00000  0.18100  1.0000
  K   K4        1.0  0.26000  0.00000  0.31900  1.0000
  K   K5        1.0  0.56200  0.33400  0.32300  1.0000
  K   K6        1.0  0.89600  0.66600  0.32300  1.0000
  K   K7        1.0  0.10400  0.33400  0.67700  1.0000
  K   K8        1.0  0.43800  0.66600  0.67700  1.0000
  K   K9        1.0  0.74000  0.00000  0.68100  1.0000
  K   K10       1.0  0.24000  0.00000  0.81900  1.0000
  K   K11       1.0  0.60400  0.33400  0.82300  1.0000
  K   K12       1.0  0.93800  0.66600  0.82300  1.0000
  Na  Na1       1.0  0.91900  0.16100  0.00000  1.0000
  Na  Na2       1.0  0.75500  0.48900  0.00000  1.0000
  Na  Na3       1.0  0.24500  0.51100  0.00000  1.0000
  Na  Na4       1.0  0.08050  0.83900  0.00000  1.0000
  Na  Na5       1.0  0.41900  0.16100  0.50000  1.0000
  Na  Na6       1.0  0.25500  0.48900  0.50000  1.0000
  Na  Na7       1.0  0.74500  0.51100  0.50000  1.0000
  Na  Na8       1.0  0.58100  0.83900  0.50000  1.0000
  P   P1        1.0  0.29600  0.00000  0.09360  1.0000
  P   P2        1.0  0.56300  0.31600  0.10400  1.0000
  P   P3        1.0  0.87900  0.68400  0.10400  1.0000
  P   P4        1.0  0.06250  0.31600  0.39600  1.0000
  P   P5        1.0  0.37900  0.68400  0.39600  1.0000
  P   P6        1.0  0.79600  0.00000  0.40600  1.0000
  P   P7        1.0  0.20400  0.00000  0.59400  1.0000
  P   P8        1.0  0.62100  0.31600  0.60400  1.0000
  P   P9        1.0  0.93700  0.68400  0.60400  1.0000
  P   P10       1.0  0.12100  0.31600  0.89600  1.0000
  P   P11       1.0  0.43700  0.68400  0.89600  1.0000
  P   P12       1.0  0.70400  0.00000  0.90600  1.0000
  Sn  Sn1       1.0  0.41200  0.17700  0.00000  1.0000
  Sn  Sn2       1.0  0.58800  0.82300  0.00000  1.0000
  Sn  Sn3       1.0  0.91200  0.17700  0.50000  1.0000
  Sn  Sn4       1.0  0.08830  0.82300  0.50000  1.0000
