data_image0
_chemical_formula_structural       As12Ge4K4Na16
_chemical_formula_sum              "As12 Ge4 K4 Na16"
_cell_length_a       15.2431
_cell_length_b       4.80297
_cell_length_c       13.2161
_cell_angle_alpha    90
_cell_angle_beta     90
_cell_angle_gamma    90

_space_group_name_H-M_alt    "P 1"
_space_group_IT_number       1

loop_
  _space_group_symop_operation_xyz
  'x, y, z'

loop_
  _atom_site_type_symbol
  _atom_site_label
  _atom_site_symmetry_multiplicity
  _atom_site_fract_x
  _atom_site_fract_y
  _atom_site_fract_z
  _atom_site_occupancy
  As  As1       1.0  0.86500  0.25000  0.07580  1.0000
  As  As2       1.0  0.36100  0.75000  0.09210  1.0000
  As  As3       1.0  0.11700  0.75000  0.23200  1.0000
  As  As4       1.0  0.61700  0.75000  0.26800  1.0000
  As  As5       1.0  0.86100  0.75000  0.40800  1.0000
  As  As6       1.0  0.36500  0.25000  0.42400  1.0000
  As  As7       1.0  0.63500  0.75000  0.57600  1.0000
  As  As8       1.0  0.13900  0.25000  0.59200  1.0000
  As  As9       1.0  0.38300  0.25000  0.73200  1.0000
  As  As10      1.0  0.88300  0.25000  0.76800  1.0000
  As  As11      1.0  0.63900  0.25000  0.90800  1.0000
  As  As12      1.0  0.13500  0.75000  0.92400  1.0000
  Ge  Ge1       1.0  0.20600  0.75000  0.08450  1.0000
  Ge  Ge2       1.0  0.70600  0.75000  0.41500  1.0000
  Ge  Ge3       1.0  0.29400  0.25000  0.58500  1.0000
  Ge  Ge4       1.0  0.79400  0.25000  0.91500  1.0000
  K   K1        1.0  0.51600  0.25000  0.12900  1.0000
  K   K2        1.0  0.01600  0.25000  0.37100  1.0000
  K   K3        1.0  0.98400  0.75000  0.62900  1.0000
  K   K4        1.0  0.48400  0.75000  0.87100  1.0000
  Na  Na1       1.0  0.71200  0.75000  0.06020  1.0000
  Na  Na2       1.0  0.06240  0.25000  0.07230  1.0000
  Na  Na3       1.0  0.91900  0.75000  0.18900  1.0000
  Na  Na4       1.0  0.25600  0.25000  0.23700  1.0000
  Na  Na5       1.0  0.75600  0.25000  0.26300  1.0000
  Na  Na6       1.0  0.41900  0.75000  0.31100  1.0000
  Na  Na7       1.0  0.56200  0.25000  0.42800  1.0000
  Na  Na8       1.0  0.21200  0.75000  0.44000  1.0000
  Na  Na9       1.0  0.78800  0.25000  0.56000  1.0000
  Na  Na10      1.0  0.43800  0.75000  0.57200  1.0000
  Na  Na11      1.0  0.58100  0.25000  0.68900  1.0000
  Na  Na12      1.0  0.24400  0.75000  0.73700  1.0000
  Na  Na13      1.0  0.74400  0.75000  0.76300  1.0000
  Na  Na14      1.0  0.08140  0.25000  0.81100  1.0000
  Na  Na15      1.0  0.93800  0.75000  0.92800  1.0000
  Na  Na16      1.0  0.28800  0.25000  0.94000  1.0000
