data_image0
_chemical_formula_structural       B4Mn12O20
_chemical_formula_sum              "B4 Mn12 O20"
_cell_length_a       9.46787
_cell_length_b       12.761
_cell_length_c       3.09924
_cell_angle_alpha    90
_cell_angle_beta     90
_cell_angle_gamma    90

_space_group_name_H-M_alt    "P 1"
_space_group_IT_number       1

loop_
  _space_group_symop_operation_xyz
  'x, y, z'

loop_
  _atom_site_type_symbol
  _atom_site_label
  _atom_site_symmetry_multiplicity
  _atom_site_fract_x
  _atom_site_fract_y
  _atom_site_fract_z
  _atom_site_occupancy
  B   B1        1.0  0.77800  0.14000  0.00000  1.0000
  B   B2        1.0  0.27800  0.36000  0.00000  1.0000
  B   B3        1.0  0.72200  0.64000  0.00000  1.0000
  B   B4        1.0  0.22200  0.86000  0.00000  1.0000
  Mn  Mn1       1.0  0.50000  0.00000  0.00000  1.0000
  Mn  Mn2       1.0  0.24100  0.11600  0.00000  1.0000
  Mn  Mn3       1.0  0.74100  0.38400  0.00000  1.0000
  Mn  Mn4       1.0  0.00000  0.50000  0.00000  1.0000
  Mn  Mn5       1.0  0.25900  0.61600  0.00000  1.0000
  Mn  Mn6       1.0  0.75900  0.88400  0.00000  1.0000
  Mn  Mn7       1.0  0.00000  0.00000  0.50000  1.0000
  Mn  Mn8       1.0  0.50500  0.22200  0.50000  1.0000
  Mn  Mn9       1.0  0.00472  0.27800  0.50000  1.0000
  Mn  Mn10      1.0  0.50000  0.50000  0.50000  1.0000
  Mn  Mn11      1.0  0.99500  0.72200  0.50000  1.0000
  Mn  Mn12      1.0  0.49500  0.77800  0.50000  1.0000
  O   O1        1.0  0.85000  0.04530  0.00000  1.0000
  O   O2        1.0  0.63100  0.14300  0.00000  1.0000
  O   O3        1.0  0.85300  0.23300  0.00000  1.0000
  O   O4        1.0  0.35300  0.26700  0.00000  1.0000
  O   O5        1.0  0.13100  0.35700  0.00000  1.0000
  O   O6        1.0  0.35000  0.45500  0.00000  1.0000
  O   O7        1.0  0.65000  0.54500  0.00000  1.0000
  O   O8        1.0  0.86900  0.64300  0.00000  1.0000
  O   O9        1.0  0.64700  0.73300  0.00000  1.0000
  O   O10       1.0  0.14700  0.76700  0.00000  1.0000
  O   O11       1.0  0.36900  0.85700  0.00000  1.0000
  O   O12       1.0  0.15000  0.95500  0.00000  1.0000
  O   O13       1.0  0.38500  0.07920  0.50000  1.0000
  O   O14       1.0  0.10800  0.14000  0.50000  1.0000
  O   O15       1.0  0.60800  0.36000  0.50000  1.0000
  O   O16       1.0  0.88500  0.42100  0.50000  1.0000
  O   O17       1.0  0.11500  0.57900  0.50000  1.0000
  O   O18       1.0  0.39200  0.64000  0.50000  1.0000
  O   O19       1.0  0.89200  0.86000  0.50000  1.0000
  O   O20       1.0  0.61500  0.92100  0.50000  1.0000
