data_image0
_chemical_formula_structural       Cr4F24Na4Sr4
_chemical_formula_sum              "Cr4 F24 Na4 Sr4"
_cell_length_a       5.37263
_cell_length_b       9.13829
_cell_length_c       8.99575
_cell_angle_alpha    90.0006
_cell_angle_beta     91.66
_cell_angle_gamma    90.0002

_space_group_name_H-M_alt    "P 1"
_space_group_IT_number       1

loop_
  _space_group_symop_operation_xyz
  'x, y, z'

loop_
  _atom_site_type_symbol
  _atom_site_label
  _atom_site_symmetry_multiplicity
  _atom_site_fract_x
  _atom_site_fract_y
  _atom_site_fract_z
  _atom_site_occupancy
  Cr  Cr1       1.0  0.75800  0.58300  0.24700  1.0000
  Cr  Cr2       1.0  0.24200  0.08250  0.25300  1.0000
  Cr  Cr3       1.0  0.75800  0.91700  0.74700  1.0000
  Cr  Cr4       1.0  0.24200  0.41700  0.75300  1.0000
  F   F1        1.0  0.70400  0.43600  0.09590  1.0000
  F   F2        1.0  0.20400  0.22300  0.09800  1.0000
  F   F3        1.0  0.49700  0.98800  0.14500  1.0000
  F   F4        1.0  0.02720  0.66100  0.14500  1.0000
  F   F5        1.0  0.99700  0.96300  0.15200  1.0000
  F   F6        1.0  0.50200  0.69800  0.16300  1.0000
  F   F7        1.0  0.49800  0.19800  0.33700  1.0000
  F   F8        1.0  0.00332  0.46300  0.34800  1.0000
  F   F9        1.0  0.97300  0.16100  0.35500  1.0000
  F   F10       1.0  0.50400  0.48800  0.35500  1.0000
  F   F11       1.0  0.79600  0.72300  0.40200  1.0000
  F   F12       1.0  0.29600  0.93600  0.40400  1.0000
  F   F13       1.0  0.70400  0.06400  0.59600  1.0000
  F   F14       1.0  0.20400  0.27700  0.59800  1.0000
  F   F15       1.0  0.49600  0.51200  0.64500  1.0000
  F   F16       1.0  0.02730  0.83900  0.64500  1.0000
  F   F17       1.0  0.99700  0.53700  0.65200  1.0000
  F   F18       1.0  0.50200  0.80200  0.66300  1.0000
  F   F19       1.0  0.49800  0.30200  0.83700  1.0000
  F   F20       1.0  0.00336  0.03660  0.84800  1.0000
  F   F21       1.0  0.97300  0.33900  0.85500  1.0000
  F   F22       1.0  0.50300  0.01220  0.85500  1.0000
  F   F23       1.0  0.79600  0.77700  0.90200  1.0000
  F   F24       1.0  0.29600  0.56400  0.90400  1.0000
  Na  Na1       1.0  0.26800  0.45500  0.13700  1.0000
  Na  Na2       1.0  0.73200  0.95500  0.36300  1.0000
  Na  Na3       1.0  0.26800  0.04470  0.63700  1.0000
  Na  Na4       1.0  0.73200  0.54500  0.86300  1.0000
  Sr  Sr1       1.0  0.75100  0.17900  0.02880  1.0000
  Sr  Sr2       1.0  0.24900  0.67900  0.47100  1.0000
  Sr  Sr3       1.0  0.75100  0.32100  0.52900  1.0000
  Sr  Sr4       1.0  0.24900  0.82100  0.97100  1.0000
