data_image0
_chemical_formula_structural       Cl4Ho4O20Te8
_chemical_formula_sum              "Cl4 Ho4 O20 Te8"
_cell_length_a       7.56409
_cell_length_b       7.89628
_cell_length_c       10.0246
_cell_angle_alpha    100.976
_cell_angle_beta     99.2562
_cell_angle_gamma    91.9029

_space_group_name_H-M_alt    "P 1"
_space_group_IT_number       1

loop_
  _space_group_symop_operation_xyz
  'x, y, z'

loop_
  _atom_site_type_symbol
  _atom_site_label
  _atom_site_symmetry_multiplicity
  _atom_site_fract_x
  _atom_site_fract_y
  _atom_site_fract_z
  _atom_site_occupancy
  Cl  Cl1       1.0  0.33200  0.57700  0.35100  1.0000
  Cl  Cl2       1.0  0.83800  0.10600  0.42200  1.0000
  Cl  Cl3       1.0  0.16200  0.89400  0.57800  1.0000
  Cl  Cl4       1.0  0.66800  0.42300  0.64900  1.0000
  Ho  Ho1       1.0  0.75500  0.00701  0.01930  1.0000
  Ho  Ho2       1.0  0.26100  0.51100  0.04960  1.0000
  Ho  Ho3       1.0  0.73900  0.48900  0.95000  1.0000
  Ho  Ho4       1.0  0.24500  0.99300  0.98100  1.0000
  O   O1        1.0  0.99200  0.59900  0.11200  1.0000
  O   O2        1.0  0.55900  0.45500  0.11200  1.0000
  O   O3        1.0  0.21500  0.25800  0.11600  1.0000
  O   O4        1.0  0.33300  0.79700  0.11900  1.0000
  O   O5        1.0  0.53400  0.07970  0.14800  1.0000
  O   O6        1.0  0.03070  0.99300  0.15000  1.0000
  O   O7        1.0  0.72300  0.80200  0.15900  1.0000
  O   O8        1.0  0.84700  0.27900  0.16300  1.0000
  O   O9        1.0  0.33100  0.08960  0.34900  1.0000
  O   O10       1.0  0.82700  0.59000  0.35200  1.0000
  O   O11       1.0  0.17300  0.41000  0.64800  1.0000
  O   O12       1.0  0.66900  0.91000  0.65100  1.0000
  O   O13       1.0  0.15300  0.72100  0.83700  1.0000
  O   O14       1.0  0.27700  0.19800  0.84100  1.0000
  O   O15       1.0  0.96900  0.00682  0.85000  1.0000
  O   O16       1.0  0.46600  0.92000  0.85200  1.0000
  O   O17       1.0  0.66700  0.20300  0.88100  1.0000
  O   O18       1.0  0.78500  0.74200  0.88400  1.0000
  O   O19       1.0  0.44100  0.54500  0.88800  1.0000
  O   O20       1.0  0.00811  0.40100  0.88800  1.0000
  Te  Te1       1.0  0.95000  0.75900  0.26600  1.0000
  Te  Te2       1.0  0.66900  0.37800  0.27000  1.0000
  Te  Te3       1.0  0.50000  0.92300  0.27200  1.0000
  Te  Te4       1.0  0.12300  0.21300  0.27300  1.0000
  Te  Te5       1.0  0.87700  0.78700  0.72700  1.0000
  Te  Te6       1.0  0.50000  0.07750  0.72800  1.0000
  Te  Te7       1.0  0.33100  0.62200  0.73000  1.0000
  Te  Te8       1.0  0.05050  0.24100  0.73400  1.0000
