data_image0
_chemical_formula_structural       Cd4Cs12I20
_chemical_formula_sum              "Cd4 Cs12 I20"
_cell_length_a       10.2164
_cell_length_b       12.0107
_cell_length_c       15.1131
_cell_angle_alpha    90
_cell_angle_beta     90
_cell_angle_gamma    90

_space_group_name_H-M_alt    "P 1"
_space_group_IT_number       1

loop_
  _space_group_symop_operation_xyz
  'x, y, z'

loop_
  _atom_site_type_symbol
  _atom_site_label
  _atom_site_symmetry_multiplicity
  _atom_site_fract_x
  _atom_site_fract_y
  _atom_site_fract_z
  _atom_site_occupancy
  Cd  Cd1       1.0  0.81100  0.25000  0.10900  1.0000
  Cd  Cd2       1.0  0.31100  0.25000  0.39100  1.0000
  Cd  Cd3       1.0  0.68900  0.75000  0.60900  1.0000
  Cd  Cd4       1.0  0.18900  0.75000  0.89100  1.0000
  Cs  Cs1       1.0  0.57800  0.75000  0.05070  1.0000
  Cs  Cs2       1.0  0.07940  0.51800  0.17100  1.0000
  Cs  Cs3       1.0  0.07940  0.98200  0.17100  1.0000
  Cs  Cs4       1.0  0.57900  0.51800  0.32900  1.0000
  Cs  Cs5       1.0  0.57900  0.98200  0.32900  1.0000
  Cs  Cs6       1.0  0.07760  0.75000  0.44900  1.0000
  Cs  Cs7       1.0  0.92200  0.25000  0.55100  1.0000
  Cs  Cs8       1.0  0.42100  0.01850  0.67100  1.0000
  Cs  Cs9       1.0  0.42100  0.48200  0.67100  1.0000
  Cs  Cs10      1.0  0.92100  0.01850  0.82900  1.0000
  Cs  Cs11      1.0  0.92100  0.48200  0.82900  1.0000
  Cs  Cs12      1.0  0.42200  0.25000  0.94900  1.0000
  I   I1        1.0  0.04460  0.25000  0.00735  1.0000
  I   I2        1.0  0.68600  0.05100  0.06160  1.0000
  I   I3        1.0  0.68600  0.44900  0.06160  1.0000
  I   I4        1.0  0.37000  0.25000  0.21000  1.0000
  I   I5        1.0  0.32500  0.75000  0.23700  1.0000
  I   I6        1.0  0.82500  0.75000  0.26300  1.0000
  I   I7        1.0  0.87000  0.25000  0.29000  1.0000
  I   I8        1.0  0.18600  0.05100  0.43800  1.0000
  I   I9        1.0  0.18600  0.44900  0.43800  1.0000
  I   I10       1.0  0.54500  0.25000  0.49300  1.0000
  I   I11       1.0  0.45500  0.75000  0.50700  1.0000
  I   I12       1.0  0.81400  0.55100  0.56200  1.0000
  I   I13       1.0  0.81400  0.94900  0.56200  1.0000
  I   I14       1.0  0.13000  0.75000  0.71000  1.0000
  I   I15       1.0  0.17500  0.25000  0.73700  1.0000
  I   I16       1.0  0.67500  0.25000  0.76300  1.0000
  I   I17       1.0  0.63000  0.75000  0.79000  1.0000
  I   I18       1.0  0.31400  0.55100  0.93800  1.0000
  I   I19       1.0  0.31400  0.94900  0.93800  1.0000
  I   I20       1.0  0.95500  0.75000  0.99300  1.0000
