data_image0
_chemical_formula_structural       Eu4Nb8O24
_chemical_formula_sum              "Eu4 Nb8 O24"
_cell_length_a       7.61398
_cell_length_b       5.45758
_cell_length_c       11.0741
_cell_angle_alpha    90
_cell_angle_beta     90.3371
_cell_angle_gamma    90

_space_group_name_H-M_alt    "P 1"
_space_group_IT_number       1

loop_
  _space_group_symop_operation_xyz
  'x, y, z'

loop_
  _atom_site_type_symbol
  _atom_site_label
  _atom_site_symmetry_multiplicity
  _atom_site_fract_x
  _atom_site_fract_y
  _atom_site_fract_z
  _atom_site_occupancy
  Eu  Eu1       1.0  0.25000  0.54000  0.04180  1.0000
  Eu  Eu2       1.0  0.75000  0.03990  0.45800  1.0000
  Eu  Eu3       1.0  0.25000  0.96000  0.54200  1.0000
  Eu  Eu4       1.0  0.75000  0.46000  0.95800  1.0000
  Nb  Nb1       1.0  0.52100  0.03750  0.14200  1.0000
  Nb  Nb2       1.0  0.00637  0.03010  0.14300  1.0000
  Nb  Nb3       1.0  0.99400  0.53000  0.35700  1.0000
  Nb  Nb4       1.0  0.47900  0.53800  0.35800  1.0000
  Nb  Nb5       1.0  0.52100  0.46200  0.64200  1.0000
  Nb  Nb6       1.0  0.00637  0.47000  0.64300  1.0000
  Nb  Nb7       1.0  0.99400  0.97000  0.85700  1.0000
  Nb  Nb8       1.0  0.47900  0.96200  0.85800  1.0000
  O   O1        1.0  0.96000  0.77100  0.02700  1.0000
  O   O2        1.0  0.53900  0.77100  0.02710  1.0000
  O   O3        1.0  0.75300  0.16600  0.12400  1.0000
  O   O4        1.0  0.25200  0.95400  0.14700  1.0000
  O   O5        1.0  0.05970  0.37700  0.20900  1.0000
  O   O6        1.0  0.43800  0.37200  0.20900  1.0000
  O   O7        1.0  0.56200  0.87200  0.29100  1.0000
  O   O8        1.0  0.94000  0.87700  0.29100  1.0000
  O   O9        1.0  0.74800  0.45400  0.35300  1.0000
  O   O10       1.0  0.24700  0.66600  0.37600  1.0000
  O   O11       1.0  0.46100  0.27100  0.47300  1.0000
  O   O12       1.0  0.03960  0.27100  0.47300  1.0000
  O   O13       1.0  0.96000  0.72900  0.52700  1.0000
  O   O14       1.0  0.53900  0.72900  0.52700  1.0000
  O   O15       1.0  0.75300  0.33400  0.62400  1.0000
  O   O16       1.0  0.25200  0.54600  0.64700  1.0000
  O   O17       1.0  0.05970  0.12300  0.70900  1.0000
  O   O18       1.0  0.43800  0.12800  0.70900  1.0000
  O   O19       1.0  0.56200  0.62800  0.79100  1.0000
  O   O20       1.0  0.94000  0.62300  0.79100  1.0000
  O   O21       1.0  0.74800  0.04630  0.85300  1.0000
  O   O22       1.0  0.24700  0.83400  0.87600  1.0000
  O   O23       1.0  0.46100  0.22900  0.97300  1.0000
  O   O24       1.0  0.03960  0.22900  0.97300  1.0000
