data_image0
_chemical_formula_structural       H6K6N6O12P6
_chemical_formula_sum              "H6 K6 N6 O12 P6"
_cell_length_a       7.97549
_cell_length_b       7.97549
_cell_length_c       7.97549
_cell_angle_alpha    103.563
_cell_angle_beta     103.563
_cell_angle_gamma    103.563

_space_group_name_H-M_alt    "P 1"
_space_group_IT_number       1

loop_
  _space_group_symop_operation_xyz
  'x, y, z'

loop_
  _atom_site_type_symbol
  _atom_site_label
  _atom_site_symmetry_multiplicity
  _atom_site_fract_x
  _atom_site_fract_y
  _atom_site_fract_z
  _atom_site_occupancy
  H   H1        1.0  0.46100  0.57700  0.25900  1.0000
  H   H2        1.0  0.74100  0.53900  0.42300  1.0000
  H   H3        1.0  0.57700  0.25900  0.46100  1.0000
  H   H4        1.0  0.42300  0.74100  0.53900  1.0000
  H   H5        1.0  0.25900  0.46100  0.57700  1.0000
  H   H6        1.0  0.53900  0.42300  0.74100  1.0000
  K   K1        1.0  0.31800  0.82700  0.12900  1.0000
  K   K2        1.0  0.87100  0.68200  0.17300  1.0000
  K   K3        1.0  0.82700  0.12900  0.31800  1.0000
  K   K4        1.0  0.17300  0.87100  0.68200  1.0000
  K   K5        1.0  0.12900  0.31800  0.82700  1.0000
  K   K6        1.0  0.68200  0.17300  0.87100  1.0000
  N   N1        1.0  0.36000  0.45200  0.20400  1.0000
  N   N2        1.0  0.45200  0.20400  0.36000  1.0000
  N   N3        1.0  0.20400  0.36000  0.45200  1.0000
  N   N4        1.0  0.79600  0.64000  0.54800  1.0000
  N   N5        1.0  0.54800  0.79600  0.64000  1.0000
  N   N6        1.0  0.64000  0.54800  0.79600  1.0000
  O   O1        1.0  0.33400  0.12800  0.00954  1.0000
  O   O2        1.0  0.00954  0.33400  0.12800  1.0000
  O   O3        1.0  0.64900  0.36400  0.19600  1.0000
  O   O4        1.0  0.12800  0.00954  0.33400  1.0000
  O   O5        1.0  0.63600  0.80400  0.35100  1.0000
  O   O6        1.0  0.19600  0.64900  0.36400  1.0000
  O   O7        1.0  0.80400  0.35100  0.63600  1.0000
  O   O8        1.0  0.36400  0.19600  0.64900  1.0000
  O   O9        1.0  0.87200  0.99000  0.66600  1.0000
  O   O10       1.0  0.35100  0.63600  0.80400  1.0000
  O   O11       1.0  0.99000  0.66600  0.87200  1.0000
  O   O12       1.0  0.66600  0.87200  0.99000  1.0000
  P   P1        1.0  0.45100  0.28000  0.17800  1.0000
  P   P2        1.0  0.17800  0.45100  0.28000  1.0000
  P   P3        1.0  0.28000  0.17800  0.45100  1.0000
  P   P4        1.0  0.72000  0.82200  0.54900  1.0000
  P   P5        1.0  0.82200  0.54900  0.72000  1.0000
  P   P6        1.0  0.54900  0.72000  0.82200  1.0000
