data_image0
_chemical_formula_structural       F16O12P8
_chemical_formula_sum              "F16 O12 P8"
_cell_length_a       11.6048
_cell_length_b       6.03899
_cell_length_c       6.01564
_cell_angle_alpha    90
_cell_angle_beta     90
_cell_angle_gamma    90

_space_group_name_H-M_alt    "P 1"
_space_group_IT_number       1

loop_
  _space_group_symop_operation_xyz
  'x, y, z'

loop_
  _atom_site_type_symbol
  _atom_site_label
  _atom_site_symmetry_multiplicity
  _atom_site_fract_x
  _atom_site_fract_y
  _atom_site_fract_z
  _atom_site_occupancy
  F   F1        1.0  0.59300  0.15400  0.09340  1.0000
  F   F2        1.0  0.90700  0.84600  0.09340  1.0000
  F   F3        1.0  0.20700  0.19700  0.23000  1.0000
  F   F4        1.0  0.29300  0.80300  0.23000  1.0000
  F   F5        1.0  0.79300  0.19700  0.27000  1.0000
  F   F6        1.0  0.70700  0.80300  0.27000  1.0000
  F   F7        1.0  0.40700  0.15400  0.40700  1.0000
  F   F8        1.0  0.09350  0.84600  0.40700  1.0000
  F   F9        1.0  0.90700  0.15400  0.59300  1.0000
  F   F10       1.0  0.59300  0.84600  0.59300  1.0000
  F   F11       1.0  0.29300  0.19700  0.73000  1.0000
  F   F12       1.0  0.20700  0.80300  0.73000  1.0000
  F   F13       1.0  0.70700  0.19700  0.77000  1.0000
  F   F14       1.0  0.79300  0.80300  0.77000  1.0000
  F   F15       1.0  0.09350  0.15400  0.90700  1.0000
  F   F16       1.0  0.40700  0.84600  0.90700  1.0000
  O   O1        1.0  0.38300  0.45700  0.06640  1.0000
  O   O2        1.0  0.11700  0.54300  0.06640  1.0000
  O   O3        1.0  0.00000  0.21700  0.25000  1.0000
  O   O4        1.0  0.50000  0.78300  0.25000  1.0000
  O   O5        1.0  0.61700  0.45700  0.43400  1.0000
  O   O6        1.0  0.88300  0.54300  0.43400  1.0000
  O   O7        1.0  0.11700  0.45700  0.56600  1.0000
  O   O8        1.0  0.38300  0.54300  0.56600  1.0000
  O   O9        1.0  0.50000  0.21700  0.75000  1.0000
  O   O10       1.0  0.00000  0.78300  0.75000  1.0000
  O   O11       1.0  0.88300  0.45700  0.93400  1.0000
  O   O12       1.0  0.61700  0.54300  0.93400  1.0000
  P   P1        1.0  0.10500  0.30700  0.11000  1.0000
  P   P2        1.0  0.39500  0.69300  0.11000  1.0000
  P   P3        1.0  0.89500  0.30700  0.39000  1.0000
  P   P4        1.0  0.60500  0.69300  0.39000  1.0000
  P   P5        1.0  0.39500  0.30700  0.61000  1.0000
  P   P6        1.0  0.10500  0.69300  0.61000  1.0000
  P   P7        1.0  0.60500  0.30700  0.89000  1.0000
  P   P8        1.0  0.89500  0.69300  0.89000  1.0000
