data_image0
_chemical_formula_structural       H12K2O18S2V2
_chemical_formula_sum              "H12 K2 O18 S2 V2"
_cell_length_a       7.36185
_cell_length_b       8.84013
_cell_length_c       5.9093
_cell_angle_alpha    89.9999
_cell_angle_beta     113.643
_cell_angle_gamma    90.0008

_space_group_name_H-M_alt    "P 1"
_space_group_IT_number       1

loop_
  _space_group_symop_operation_xyz
  'x, y, z'

loop_
  _atom_site_type_symbol
  _atom_site_label
  _atom_site_symmetry_multiplicity
  _atom_site_fract_x
  _atom_site_fract_y
  _atom_site_fract_z
  _atom_site_occupancy
  H   H1        1.0  0.32500  0.18400  0.10700  1.0000
  H   H2        1.0  0.18700  0.53900  0.18400  1.0000
  H   H3        1.0  0.96000  0.67800  0.20000  1.0000
  H   H4        1.0  0.78600  0.71900  0.27600  1.0000
  H   H5        1.0  0.33800  0.68400  0.30200  1.0000
  H   H6        1.0  0.41000  0.23000  0.40700  1.0000
  H   H7        1.0  0.59000  0.73000  0.59300  1.0000
  H   H8        1.0  0.66200  0.18400  0.69800  1.0000
  H   H9        1.0  0.21400  0.21900  0.72400  1.0000
  H   H10       1.0  0.04000  0.17800  0.80000  1.0000
  H   H11       1.0  0.81300  0.03940  0.81600  1.0000
  H   H12       1.0  0.67500  0.68400  0.89300  1.0000
  K   K1        1.0  0.74900  0.35900  0.14700  1.0000
  K   K2        1.0  0.25100  0.85900  0.85300  1.0000
  O   O1        1.0  0.95000  0.94200  0.02150  1.0000
  O   O2        1.0  0.59000  0.03950  0.02760  1.0000
  O   O3        1.0  0.82000  0.65700  0.16100  1.0000
  O   O4        1.0  0.44300  0.18100  0.27600  1.0000
  O   O5        1.0  0.04160  0.16900  0.27800  1.0000
  O   O6        1.0  0.54200  0.83500  0.32800  1.0000
  O   O7        1.0  0.25100  0.61100  0.33400  1.0000
  O   O8        1.0  0.90600  0.95100  0.41400  1.0000
  O   O9        1.0  0.23000  0.93300  0.41700  1.0000
  O   O10       1.0  0.77000  0.43300  0.58300  1.0000
  O   O11       1.0  0.09410  0.45100  0.58600  1.0000
  O   O12       1.0  0.74900  0.11100  0.66600  1.0000
  O   O13       1.0  0.45800  0.33500  0.67200  1.0000
  O   O14       1.0  0.95800  0.66900  0.72200  1.0000
  O   O15       1.0  0.55700  0.68100  0.72400  1.0000
  O   O16       1.0  0.18000  0.15700  0.83900  1.0000
  O   O17       1.0  0.41000  0.54000  0.97200  1.0000
  O   O18       1.0  0.05020  0.44200  0.97900  1.0000
  S   S1        1.0  0.03900  0.00376  0.27600  1.0000
  S   S2        1.0  0.96100  0.50400  0.72400  1.0000
  V   V1        1.0  0.63600  0.00644  0.31900  1.0000
  V   V2        1.0  0.36400  0.50600  0.68100  1.0000
