data_image0
_chemical_formula_structural       Ge4P12Rb20
_chemical_formula_sum              "Ge4 P12 Rb20"
_cell_length_a       14.159
_cell_length_b       5.61248
_cell_length_c       15.5002
_cell_angle_alpha    90
_cell_angle_beta     90
_cell_angle_gamma    90

_space_group_name_H-M_alt    "P 1"
_space_group_IT_number       1

loop_
  _space_group_symop_operation_xyz
  'x, y, z'

loop_
  _atom_site_type_symbol
  _atom_site_label
  _atom_site_symmetry_multiplicity
  _atom_site_fract_x
  _atom_site_fract_y
  _atom_site_fract_z
  _atom_site_occupancy
  Ge  Ge1       1.0  0.23800  0.75000  0.07330  1.0000
  Ge  Ge2       1.0  0.73800  0.75000  0.42700  1.0000
  Ge  Ge3       1.0  0.26200  0.25000  0.57300  1.0000
  Ge  Ge4       1.0  0.76200  0.25000  0.92700  1.0000
  P   P1        1.0  0.81400  0.25000  0.06670  1.0000
  P   P2        1.0  0.39800  0.75000  0.09540  1.0000
  P   P3        1.0  0.13400  0.75000  0.18700  1.0000
  P   P4        1.0  0.63400  0.75000  0.31300  1.0000
  P   P5        1.0  0.89800  0.75000  0.40500  1.0000
  P   P6        1.0  0.31400  0.25000  0.43300  1.0000
  P   P7        1.0  0.68600  0.75000  0.56700  1.0000
  P   P8        1.0  0.10200  0.25000  0.59500  1.0000
  P   P9        1.0  0.36600  0.25000  0.68700  1.0000
  P   P10       1.0  0.86600  0.25000  0.81300  1.0000
  P   P11       1.0  0.60200  0.25000  0.90500  1.0000
  P   P12       1.0  0.18600  0.75000  0.93300  1.0000
  Rb  Rb1       1.0  0.64800  0.75000  0.04230  1.0000
  Rb  Rb2       1.0  0.06420  0.25000  0.05800  1.0000
  Rb  Rb3       1.0  0.54900  0.25000  0.14900  1.0000
  Rb  Rb4       1.0  0.88800  0.75000  0.18300  1.0000
  Rb  Rb5       1.0  0.27500  0.25000  0.21500  1.0000
  Rb  Rb6       1.0  0.77500  0.25000  0.28500  1.0000
  Rb  Rb7       1.0  0.38800  0.75000  0.31700  1.0000
  Rb  Rb8       1.0  0.04890  0.25000  0.35100  1.0000
  Rb  Rb9       1.0  0.56400  0.25000  0.44200  1.0000
  Rb  Rb10      1.0  0.14800  0.75000  0.45800  1.0000
  Rb  Rb11      1.0  0.85200  0.25000  0.54200  1.0000
  Rb  Rb12      1.0  0.43600  0.75000  0.55800  1.0000
  Rb  Rb13      1.0  0.95100  0.75000  0.64900  1.0000
  Rb  Rb14      1.0  0.61200  0.25000  0.68300  1.0000
  Rb  Rb15      1.0  0.22500  0.75000  0.71500  1.0000
  Rb  Rb16      1.0  0.72500  0.75000  0.78500  1.0000
  Rb  Rb17      1.0  0.11200  0.25000  0.81700  1.0000
  Rb  Rb18      1.0  0.45100  0.75000  0.85100  1.0000
  Rb  Rb19      1.0  0.93600  0.75000  0.94200  1.0000
  Rb  Rb20      1.0  0.35200  0.25000  0.95800  1.0000
