data_image0
_chemical_formula_structural       Ag2Fe4Mo6O24
_chemical_formula_sum              "Ag2 Fe4 Mo6 O24"
_cell_length_a       6.89425
_cell_length_b       6.89618
_cell_length_c       10.7818
_cell_angle_alpha    81.9508
_cell_angle_beta     83.7269
_cell_angle_gamma    81.6756

_space_group_name_H-M_alt    "P 1"
_space_group_IT_number       1

loop_
  _space_group_symop_operation_xyz
  'x, y, z'

loop_
  _atom_site_type_symbol
  _atom_site_label
  _atom_site_symmetry_multiplicity
  _atom_site_fract_x
  _atom_site_fract_y
  _atom_site_fract_z
  _atom_site_occupancy
  Ag  Ag1       1.0  0.14800  0.41400  0.23000  1.0000
  Ag  Ag2       1.0  0.85200  0.58600  0.77000  1.0000
  Fe  Fe1       1.0  0.77000  0.76500  0.10400  1.0000
  Fe  Fe2       1.0  0.18000  0.82200  0.49400  1.0000
  Fe  Fe3       1.0  0.82000  0.17800  0.50600  1.0000
  Fe  Fe4       1.0  0.23000  0.23500  0.89600  1.0000
  Mo  Mo1       1.0  0.24000  0.90000  0.14400  1.0000
  Mo  Mo2       1.0  0.71900  0.28200  0.18200  1.0000
  Mo  Mo3       1.0  0.71600  0.70300  0.45400  1.0000
  Mo  Mo4       1.0  0.28400  0.29700  0.54600  1.0000
  Mo  Mo5       1.0  0.28100  0.71800  0.81800  1.0000
  Mo  Mo6       1.0  0.76000  0.10000  0.85600  1.0000
  O   O1        1.0  0.78400  0.49000  0.07200  1.0000
  O   O2        1.0  0.17400  0.15800  0.08190  1.0000
  O   O3        1.0  0.48200  0.79600  0.09030  1.0000
  O   O4        1.0  0.75700  0.05680  0.10700  1.0000
  O   O5        1.0  0.05960  0.73700  0.13000  1.0000
  O   O6        1.0  0.47200  0.32600  0.23600  1.0000
  O   O7        1.0  0.72800  0.68700  0.28900  1.0000
  O   O8        1.0  0.24100  0.90700  0.30500  1.0000
  O   O9        1.0  0.86700  0.25000  0.31200  1.0000
  O   O10       1.0  0.20800  0.53000  0.45800  1.0000
  O   O11       1.0  0.87600  0.87400  0.48300  1.0000
  O   O12       1.0  0.52600  0.20900  0.49300  1.0000
  O   O13       1.0  0.47400  0.79100  0.50700  1.0000
  O   O14       1.0  0.12400  0.12600  0.51700  1.0000
  O   O15       1.0  0.79200  0.47000  0.54200  1.0000
  O   O16       1.0  0.13300  0.75000  0.68800  1.0000
  O   O17       1.0  0.75900  0.09310  0.69500  1.0000
  O   O18       1.0  0.27200  0.31300  0.71100  1.0000
  O   O19       1.0  0.52800  0.67400  0.76400  1.0000
  O   O20       1.0  0.94000  0.26300  0.87000  1.0000
  O   O21       1.0  0.24300  0.94300  0.89300  1.0000
  O   O22       1.0  0.51800  0.20400  0.91000  1.0000
  O   O23       1.0  0.82600  0.84200  0.91800  1.0000
  O   O24       1.0  0.21600  0.51000  0.92800  1.0000
