data_image0
_chemical_formula_structural       C4Cu4H4O20S4
_chemical_formula_sum              "C4 Cu4 H4 O20 S4"
_cell_length_a       8.02368
_cell_length_b       4.78818
_cell_length_c       11.5812
_cell_angle_alpha    90
_cell_angle_beta     94.8753
_cell_angle_gamma    90

_space_group_name_H-M_alt    "P 1"
_space_group_IT_number       1

loop_
  _space_group_symop_operation_xyz
  'x, y, z'

loop_
  _atom_site_type_symbol
  _atom_site_label
  _atom_site_symmetry_multiplicity
  _atom_site_fract_x
  _atom_site_fract_y
  _atom_site_fract_z
  _atom_site_occupancy
  C   C1        1.0  0.41600  0.07630  0.12200  1.0000
  C   C2        1.0  0.58400  0.57600  0.37800  1.0000
  C   C3        1.0  0.41600  0.42400  0.62200  1.0000
  C   C4        1.0  0.58400  0.92400  0.87800  1.0000
  Cu  Cu1       1.0  0.25300  0.24900  0.03720  1.0000
  Cu  Cu2       1.0  0.74700  0.74900  0.46300  1.0000
  Cu  Cu3       1.0  0.25300  0.25100  0.53700  1.0000
  Cu  Cu4       1.0  0.74700  0.75100  0.96300  1.0000
  H   H1        1.0  0.10900  0.63500  0.19700  1.0000
  H   H2        1.0  0.89100  0.13500  0.30300  1.0000
  H   H3        1.0  0.10900  0.86500  0.69700  1.0000
  H   H4        1.0  0.89100  0.36500  0.80300  1.0000
  O   O1        1.0  0.73900  0.39100  0.05360  1.0000
  O   O2        1.0  0.88200  0.94800  0.09600  1.0000
  O   O3        1.0  0.03940  0.38100  0.12000  1.0000
  O   O4        1.0  0.51600  0.94300  0.17200  1.0000
  O   O5        1.0  0.17500  0.77500  0.24900  1.0000
  O   O6        1.0  0.82500  0.27500  0.25100  1.0000
  O   O7        1.0  0.48400  0.44300  0.32800  1.0000
  O   O8        1.0  0.96100  0.88100  0.38000  1.0000
  O   O9        1.0  0.11800  0.44800  0.40400  1.0000
  O   O10       1.0  0.26100  0.89100  0.44600  1.0000
  O   O11       1.0  0.73900  0.10900  0.55400  1.0000
  O   O12       1.0  0.88200  0.55200  0.59600  1.0000
  O   O13       1.0  0.03940  0.11900  0.62000  1.0000
  O   O14       1.0  0.51600  0.55700  0.67200  1.0000
  O   O15       1.0  0.17500  0.72500  0.74900  1.0000
  O   O16       1.0  0.82500  0.22500  0.75100  1.0000
  O   O17       1.0  0.48400  0.05730  0.82800  1.0000
  O   O18       1.0  0.96100  0.61900  0.88000  1.0000
  O   O19       1.0  0.11800  0.05180  0.90400  1.0000
  O   O20       1.0  0.26100  0.60900  0.94600  1.0000
  S   S1        1.0  0.87300  0.24600  0.12300  1.0000
  S   S2        1.0  0.12700  0.74600  0.37700  1.0000
  S   S3        1.0  0.87300  0.25400  0.62300  1.0000
  S   S4        1.0  0.12700  0.75400  0.87700  1.0000
