data_image0
_chemical_formula_structural       Na20P12Sn4
_chemical_formula_sum              "Na20 P12 Sn4"
_cell_length_a       13.3148
_cell_length_b       7.41165
_cell_length_c       8.29413
_cell_angle_alpha    90
_cell_angle_beta     90.4357
_cell_angle_gamma    90

_space_group_name_H-M_alt    "P 1"
_space_group_IT_number       1

loop_
  _space_group_symop_operation_xyz
  'x, y, z'

loop_
  _atom_site_type_symbol
  _atom_site_label
  _atom_site_symmetry_multiplicity
  _atom_site_fract_x
  _atom_site_fract_y
  _atom_site_fract_z
  _atom_site_occupancy
  Na  Na1       1.0  0.75700  0.64400  0.07280  1.0000
  Na  Na2       1.0  0.08210  0.66100  0.07720  1.0000
  Na  Na3       1.0  0.91100  0.97900  0.16400  1.0000
  Na  Na4       1.0  0.26000  0.99700  0.16800  1.0000
  Na  Na5       1.0  0.58800  0.96300  0.17900  1.0000
  Na  Na6       1.0  0.91200  0.46300  0.32100  1.0000
  Na  Na7       1.0  0.24000  0.49700  0.33200  1.0000
  Na  Na8       1.0  0.58900  0.47900  0.33600  1.0000
  Na  Na9       1.0  0.41800  0.16100  0.42300  1.0000
  Na  Na10      1.0  0.74300  0.14400  0.42700  1.0000
  Na  Na11      1.0  0.25700  0.85600  0.57300  1.0000
  Na  Na12      1.0  0.58200  0.83900  0.57700  1.0000
  Na  Na13      1.0  0.41100  0.52100  0.66400  1.0000
  Na  Na14      1.0  0.76000  0.50300  0.66800  1.0000
  Na  Na15      1.0  0.08810  0.53700  0.67900  1.0000
  Na  Na16      1.0  0.41200  0.03710  0.82100  1.0000
  Na  Na17      1.0  0.74000  0.00291  0.83200  1.0000
  Na  Na18      1.0  0.08880  0.02140  0.83600  1.0000
  Na  Na19      1.0  0.91800  0.33900  0.92300  1.0000
  Na  Na20      1.0  0.24300  0.35600  0.92700  1.0000
  P   P1        1.0  0.42900  0.29500  0.09460  1.0000
  P   P2        1.0  0.73700  0.25500  0.09790  1.0000
  P   P3        1.0  0.08240  0.26700  0.14200  1.0000
  P   P4        1.0  0.41800  0.76700  0.35800  1.0000
  P   P5        1.0  0.76300  0.75500  0.40200  1.0000
  P   P6        1.0  0.07110  0.79500  0.40500  1.0000
  P   P7        1.0  0.92900  0.20500  0.59500  1.0000
  P   P8        1.0  0.23700  0.24500  0.59800  1.0000
  P   P9        1.0  0.58200  0.23300  0.64200  1.0000
  P   P10       1.0  0.91800  0.73300  0.85800  1.0000
  P   P11       1.0  0.26300  0.74500  0.90200  1.0000
  P   P12       1.0  0.57100  0.70500  0.90500  1.0000
  Sn  Sn1       1.0  0.41100  0.64700  0.07240  1.0000
  Sn  Sn2       1.0  0.08930  0.14700  0.42800  1.0000
  Sn  Sn3       1.0  0.91100  0.85300  0.57200  1.0000
  Sn  Sn4       1.0  0.58900  0.35300  0.92800  1.0000
