data_image0
_chemical_formula_structural       F24K4O2Zr6
_chemical_formula_sum              "F24 K4 O2 Zr6"
_cell_length_a       7.63684
_cell_length_b       7.63684
_cell_length_c       10.2919
_cell_angle_alpha    111.778
_cell_angle_beta     68.2221
_cell_angle_gamma    120

_space_group_name_H-M_alt    "P 1"
_space_group_IT_number       1

loop_
  _space_group_symop_operation_xyz
  'x, y, z'

loop_
  _atom_site_type_symbol
  _atom_site_label
  _atom_site_symmetry_multiplicity
  _atom_site_fract_x
  _atom_site_fract_y
  _atom_site_fract_z
  _atom_site_occupancy
  F   F1        1.0  0.34600  0.00000  0.00000  1.0000
  F   F2        1.0  0.65400  0.00000  0.00000  1.0000
  F   F3        1.0  0.00000  0.34600  0.00000  1.0000
  F   F4        1.0  0.34600  0.34600  0.00000  1.0000
  F   F5        1.0  0.65400  0.65400  0.00000  1.0000
  F   F6        1.0  0.00000  0.65400  0.00000  1.0000
  F   F7        1.0  0.36200  0.29900  0.23600  1.0000
  F   F8        1.0  0.70100  0.29900  0.23600  1.0000
  F   F9        1.0  0.70100  0.63800  0.23600  1.0000
  F   F10       1.0  0.08090  0.40000  0.23900  1.0000
  F   F11       1.0  0.08090  0.91900  0.23900  1.0000
  F   F12       1.0  0.60000  0.91900  0.23900  1.0000
  F   F13       1.0  0.34000  0.08790  0.40800  1.0000
  F   F14       1.0  0.34000  0.66000  0.40800  1.0000
  F   F15       1.0  0.91200  0.66000  0.40800  1.0000
  F   F16       1.0  0.08790  0.34000  0.59200  1.0000
  F   F17       1.0  0.66000  0.34000  0.59200  1.0000
  F   F18       1.0  0.66000  0.91200  0.59200  1.0000
  F   F19       1.0  0.40000  0.08090  0.76100  1.0000
  F   F20       1.0  0.91900  0.08090  0.76100  1.0000
  F   F21       1.0  0.91900  0.60000  0.76100  1.0000
  F   F22       1.0  0.29900  0.36200  0.76400  1.0000
  F   F23       1.0  0.29900  0.70100  0.76400  1.0000
  F   F24       1.0  0.63800  0.70100  0.76400  1.0000
  K   K1        1.0  0.00000  0.00000  0.00000  1.0000
  K   K2        1.0  0.86500  0.13500  0.40600  1.0000
  K   K3        1.0  0.50000  0.50000  0.50000  1.0000
  K   K4        1.0  0.13500  0.86500  0.59400  1.0000
  O   O1        1.0  0.28700  0.71300  0.13900  1.0000
  O   O2        1.0  0.71300  0.28700  0.86100  1.0000
  Zr  Zr1       1.0  0.42100  0.03510  0.19400  1.0000
  Zr  Zr2       1.0  0.42100  0.57900  0.19400  1.0000
  Zr  Zr3       1.0  0.96500  0.57900  0.19400  1.0000
  Zr  Zr4       1.0  0.03510  0.42100  0.80600  1.0000
  Zr  Zr5       1.0  0.57900  0.42100  0.80600  1.0000
  Zr  Zr6       1.0  0.57900  0.96500  0.80600  1.0000
