data_image0
_chemical_formula_structural       Na8Se20Si8
_chemical_formula_sum              "Na8 Se20 Si8"
_cell_length_a       9.43762
_cell_length_b       9.43762
_cell_length_c       10.9397
_cell_angle_alpha    90
_cell_angle_beta     90
_cell_angle_gamma    90.7623

_space_group_name_H-M_alt    "P 1"
_space_group_IT_number       1

loop_
  _space_group_symop_operation_xyz
  'x, y, z'

loop_
  _atom_site_type_symbol
  _atom_site_label
  _atom_site_symmetry_multiplicity
  _atom_site_fract_x
  _atom_site_fract_y
  _atom_site_fract_z
  _atom_site_occupancy
  Na  Na1       1.0  0.85100  0.14900  0.00000  1.0000
  Na  Na2       1.0  0.14900  0.85100  0.00000  1.0000
  Na  Na3       1.0  0.92200  0.58000  0.25000  1.0000
  Na  Na4       1.0  0.58000  0.92200  0.25000  1.0000
  Na  Na5       1.0  0.85100  0.14900  0.50000  1.0000
  Na  Na6       1.0  0.14900  0.85100  0.50000  1.0000
  Na  Na7       1.0  0.42000  0.07810  0.75000  1.0000
  Na  Na8       1.0  0.07810  0.42000  0.75000  1.0000
  Se  Se1       1.0  0.49200  0.20600  0.07660  1.0000
  Se  Se2       1.0  0.20600  0.49200  0.07660  1.0000
  Se  Se3       1.0  0.84500  0.84500  0.08490  1.0000
  Se  Se4       1.0  0.14700  0.14700  0.25000  1.0000
  Se  Se5       1.0  0.81600  0.27300  0.25000  1.0000
  Se  Se6       1.0  0.55500  0.55500  0.25000  1.0000
  Se  Se7       1.0  0.27300  0.81600  0.25000  1.0000
  Se  Se8       1.0  0.84500  0.84500  0.41500  1.0000
  Se  Se9       1.0  0.49200  0.20600  0.42300  1.0000
  Se  Se10      1.0  0.20600  0.49200  0.42300  1.0000
  Se  Se11      1.0  0.79400  0.50800  0.57700  1.0000
  Se  Se12      1.0  0.50800  0.79400  0.57700  1.0000
  Se  Se13      1.0  0.15500  0.15500  0.58500  1.0000
  Se  Se14      1.0  0.72700  0.18400  0.75000  1.0000
  Se  Se15      1.0  0.44500  0.44500  0.75000  1.0000
  Se  Se16      1.0  0.18400  0.72700  0.75000  1.0000
  Se  Se17      1.0  0.85300  0.85300  0.75000  1.0000
  Se  Se18      1.0  0.15500  0.15500  0.91500  1.0000
  Se  Se19      1.0  0.79400  0.50800  0.92300  1.0000
  Se  Se20      1.0  0.50800  0.79400  0.92300  1.0000
  Si  Si1       1.0  0.25200  0.25200  0.08220  1.0000
  Si  Si2       1.0  0.58500  0.31500  0.25000  1.0000
  Si  Si3       1.0  0.31500  0.58500  0.25000  1.0000
  Si  Si4       1.0  0.25200  0.25200  0.41800  1.0000
  Si  Si5       1.0  0.74800  0.74800  0.58200  1.0000
  Si  Si6       1.0  0.68500  0.41500  0.75000  1.0000
  Si  Si7       1.0  0.41500  0.68500  0.75000  1.0000
  Si  Si8       1.0  0.74800  0.74800  0.91800  1.0000
