data_image0
_chemical_formula_structural       F20N12W4
_chemical_formula_sum              "F20 N12 W4"
_cell_length_a       4.86287
_cell_length_b       8.98804
_cell_length_c       9.89526
_cell_angle_alpha    90
_cell_angle_beta     101.734
_cell_angle_gamma    90

_space_group_name_H-M_alt    "P 1"
_space_group_IT_number       1

loop_
  _space_group_symop_operation_xyz
  'x, y, z'

loop_
  _atom_site_type_symbol
  _atom_site_label
  _atom_site_symmetry_multiplicity
  _atom_site_fract_x
  _atom_site_fract_y
  _atom_site_fract_z
  _atom_site_occupancy
  F   F1        1.0  0.94600  0.39700  0.08170  1.0000
  F   F2        1.0  0.21800  0.14600  0.14300  1.0000
  F   F3        1.0  0.93800  0.90900  0.14700  1.0000
  F   F4        1.0  0.18200  0.63700  0.21000  1.0000
  F   F5        1.0  0.54200  0.40600  0.21900  1.0000
  F   F6        1.0  0.45800  0.90600  0.28100  1.0000
  F   F7        1.0  0.81800  0.13700  0.29000  1.0000
  F   F8        1.0  0.06160  0.40900  0.35300  1.0000
  F   F9        1.0  0.78200  0.64600  0.35700  1.0000
  F   F10       1.0  0.05400  0.89700  0.41800  1.0000
  F   F11       1.0  0.94600  0.10300  0.58200  1.0000
  F   F12       1.0  0.21800  0.35400  0.64300  1.0000
  F   F13       1.0  0.93800  0.59100  0.64700  1.0000
  F   F14       1.0  0.18200  0.86300  0.71000  1.0000
  F   F15       1.0  0.54200  0.09440  0.71900  1.0000
  F   F16       1.0  0.45800  0.59400  0.78100  1.0000
  F   F17       1.0  0.81800  0.36300  0.79000  1.0000
  F   F18       1.0  0.06160  0.09110  0.85300  1.0000
  F   F19       1.0  0.78200  0.85400  0.85700  1.0000
  F   F20       1.0  0.05400  0.60300  0.91800  1.0000
  N   N1        1.0  0.64200  0.13700  0.00411  1.0000
  N   N2        1.0  0.49200  0.76300  0.03790  1.0000
  N   N3        1.0  0.63400  0.65600  0.08150  1.0000
  N   N4        1.0  0.36600  0.15600  0.41800  1.0000
  N   N5        1.0  0.50800  0.26300  0.46200  1.0000
  N   N6        1.0  0.35800  0.63700  0.49600  1.0000
  N   N7        1.0  0.64200  0.36300  0.50400  1.0000
  N   N8        1.0  0.49200  0.73700  0.53800  1.0000
  N   N9        1.0  0.63400  0.84400  0.58200  1.0000
  N   N10       1.0  0.36600  0.34400  0.91800  1.0000
  N   N11       1.0  0.50800  0.23700  0.96200  1.0000
  N   N12       1.0  0.35800  0.86300  0.99600  1.0000
  W   W1        1.0  0.85200  0.52900  0.21200  1.0000
  W   W2        1.0  0.14800  0.02850  0.28800  1.0000
  W   W3        1.0  0.85200  0.97100  0.71200  1.0000
  W   W4        1.0  0.14800  0.47100  0.78800  1.0000
