data_image0
_chemical_formula_structural       Ba12Fe4O20
_chemical_formula_sum              "Ba12 Fe4 O20"
_cell_length_a       10.3656
_cell_length_b       8.26933
_cell_length_c       7.33179
_cell_angle_alpha    90
_cell_angle_beta     90
_cell_angle_gamma    90

_space_group_name_H-M_alt    "P 1"
_space_group_IT_number       1

loop_
  _space_group_symop_operation_xyz
  'x, y, z'

loop_
  _atom_site_type_symbol
  _atom_site_label
  _atom_site_symmetry_multiplicity
  _atom_site_fract_x
  _atom_site_fract_y
  _atom_site_fract_z
  _atom_site_occupancy
  Ba  Ba1       1.0  0.18000  0.02270  0.08200  1.0000
  Ba  Ba2       1.0  0.18000  0.47700  0.08200  1.0000
  Ba  Ba3       1.0  0.47200  0.75000  0.11600  1.0000
  Ba  Ba4       1.0  0.97200  0.75000  0.38400  1.0000
  Ba  Ba5       1.0  0.68000  0.02270  0.41800  1.0000
  Ba  Ba6       1.0  0.68000  0.47700  0.41800  1.0000
  Ba  Ba7       1.0  0.32000  0.52300  0.58200  1.0000
  Ba  Ba8       1.0  0.32000  0.97700  0.58200  1.0000
  Ba  Ba9       1.0  0.02840  0.25000  0.61600  1.0000
  Ba  Ba10      1.0  0.52800  0.25000  0.88400  1.0000
  Ba  Ba11      1.0  0.82000  0.52300  0.91800  1.0000
  Ba  Ba12      1.0  0.82000  0.97700  0.91800  1.0000
  Fe  Fe1       1.0  0.90600  0.25000  0.19800  1.0000
  Fe  Fe2       1.0  0.40600  0.25000  0.30200  1.0000
  Fe  Fe3       1.0  0.59400  0.75000  0.69800  1.0000
  Fe  Fe4       1.0  0.09360  0.75000  0.80200  1.0000
  O   O1        1.0  0.99900  0.75000  0.00767  1.0000
  O   O2        1.0  0.73100  0.25000  0.15300  1.0000
  O   O3        1.0  0.72100  0.75000  0.16900  1.0000
  O   O4        1.0  0.43800  0.05450  0.20600  1.0000
  O   O5        1.0  0.43800  0.44500  0.20600  1.0000
  O   O6        1.0  0.93800  0.05450  0.29400  1.0000
  O   O7        1.0  0.93800  0.44500  0.29400  1.0000
  O   O8        1.0  0.22100  0.75000  0.33100  1.0000
  O   O9        1.0  0.23100  0.25000  0.34700  1.0000
  O   O10       1.0  0.49900  0.75000  0.49200  1.0000
  O   O11       1.0  0.50100  0.25000  0.50800  1.0000
  O   O12       1.0  0.76900  0.75000  0.65300  1.0000
  O   O13       1.0  0.77900  0.25000  0.66900  1.0000
  O   O14       1.0  0.06200  0.55500  0.70600  1.0000
  O   O15       1.0  0.06200  0.94500  0.70600  1.0000
  O   O16       1.0  0.56200  0.55500  0.79400  1.0000
  O   O17       1.0  0.56200  0.94500  0.79400  1.0000
  O   O18       1.0  0.27900  0.25000  0.83100  1.0000
  O   O19       1.0  0.26900  0.75000  0.84700  1.0000
  O   O20       1.0  0.00079  0.25000  0.99200  1.0000
