data_image0
_chemical_formula_structural       Fe8Na12Se16
_chemical_formula_sum              "Fe8 Na12 Se16"
_cell_length_a       6.85326
_cell_length_b       10.7418
_cell_length_c       11.1551
_cell_angle_alpha    90
_cell_angle_beta     90
_cell_angle_gamma    90

_space_group_name_H-M_alt    "P 1"
_space_group_IT_number       1

loop_
  _space_group_symop_operation_xyz
  'x, y, z'

loop_
  _atom_site_type_symbol
  _atom_site_label
  _atom_site_symmetry_multiplicity
  _atom_site_fract_x
  _atom_site_fract_y
  _atom_site_fract_z
  _atom_site_occupancy
  Fe  Fe1       1.0  0.55200  0.12700  0.02870  1.0000
  Fe  Fe2       1.0  0.55200  0.37300  0.02870  1.0000
  Fe  Fe3       1.0  0.05160  0.12700  0.47100  1.0000
  Fe  Fe4       1.0  0.05160  0.37300  0.47100  1.0000
  Fe  Fe5       1.0  0.94800  0.62700  0.52900  1.0000
  Fe  Fe6       1.0  0.94800  0.87300  0.52900  1.0000
  Fe  Fe7       1.0  0.44800  0.62700  0.97100  1.0000
  Fe  Fe8       1.0  0.44800  0.87300  0.97100  1.0000
  Na  Na1       1.0  0.06340  0.07610  0.13800  1.0000
  Na  Na2       1.0  0.06340  0.42400  0.13800  1.0000
  Na  Na3       1.0  0.92200  0.75000  0.24900  1.0000
  Na  Na4       1.0  0.42200  0.75000  0.25100  1.0000
  Na  Na5       1.0  0.56300  0.07610  0.36200  1.0000
  Na  Na6       1.0  0.56300  0.42400  0.36200  1.0000
  Na  Na7       1.0  0.43700  0.57600  0.63800  1.0000
  Na  Na8       1.0  0.43700  0.92400  0.63800  1.0000
  Na  Na9       1.0  0.57800  0.25000  0.74900  1.0000
  Na  Na10      1.0  0.07820  0.25000  0.75100  1.0000
  Na  Na11      1.0  0.93700  0.57600  0.86200  1.0000
  Na  Na12      1.0  0.93700  0.92400  0.86200  1.0000
  Se  Se1       1.0  0.17500  0.75000  0.03760  1.0000
  Se  Se2       1.0  0.67400  0.55700  0.12300  1.0000
  Se  Se3       1.0  0.67400  0.94300  0.12300  1.0000
  Se  Se4       1.0  0.38900  0.25000  0.17500  1.0000
  Se  Se5       1.0  0.88900  0.25000  0.32500  1.0000
  Se  Se6       1.0  0.17400  0.55700  0.37700  1.0000
  Se  Se7       1.0  0.17400  0.94300  0.37700  1.0000
  Se  Se8       1.0  0.67500  0.75000  0.46200  1.0000
  Se  Se9       1.0  0.32500  0.25000  0.53800  1.0000
  Se  Se10      1.0  0.82600  0.05700  0.62300  1.0000
  Se  Se11      1.0  0.82600  0.44300  0.62300  1.0000
  Se  Se12      1.0  0.11100  0.75000  0.67500  1.0000
  Se  Se13      1.0  0.61100  0.75000  0.82500  1.0000
  Se  Se14      1.0  0.32600  0.05700  0.87700  1.0000
  Se  Se15      1.0  0.32600  0.44300  0.87700  1.0000
  Se  Se16      1.0  0.82500  0.25000  0.96200  1.0000
