data_image0
_chemical_formula_structural       C4F28I4
_chemical_formula_sum              "C4 F28 I4"
_cell_length_a       6.70756
_cell_length_b       7.80138
_cell_length_c       8.05137
_cell_angle_alpha    90
_cell_angle_beta     99.8991
_cell_angle_gamma    90

_space_group_name_H-M_alt    "P 1"
_space_group_IT_number       1

loop_
  _space_group_symop_operation_xyz
  'x, y, z'

loop_
  _atom_site_type_symbol
  _atom_site_label
  _atom_site_symmetry_multiplicity
  _atom_site_fract_x
  _atom_site_fract_y
  _atom_site_fract_z
  _atom_site_occupancy
  C   C1        1.0  0.34500  0.91400  0.21500  1.0000
  C   C2        1.0  0.65500  0.41400  0.28500  1.0000
  C   C3        1.0  0.34500  0.58600  0.71500  1.0000
  C   C4        1.0  0.65500  0.08610  0.78500  1.0000
  F   F1        1.0  0.18100  0.57000  0.00351  1.0000
  F   F2        1.0  0.30100  0.92100  0.04800  1.0000
  F   F3        1.0  0.59900  0.70000  0.08040  1.0000
  F   F4        1.0  0.15000  0.21500  0.10800  1.0000
  F   F5        1.0  0.94300  0.94700  0.19100  1.0000
  F   F6        1.0  0.69500  0.25800  0.23000  1.0000
  F   F7        1.0  0.46300  0.45600  0.23200  1.0000
  F   F8        1.0  0.53700  0.95600  0.26800  1.0000
  F   F9        1.0  0.30500  0.75800  0.27000  1.0000
  F   F10       1.0  0.05730  0.44700  0.30900  1.0000
  F   F11       1.0  0.85000  0.71500  0.39200  1.0000
  F   F12       1.0  0.40100  0.20000  0.42000  1.0000
  F   F13       1.0  0.69900  0.42100  0.45200  1.0000
  F   F14       1.0  0.81900  0.07050  0.49600  1.0000
  F   F15       1.0  0.18100  0.93000  0.50400  1.0000
  F   F16       1.0  0.30100  0.57900  0.54800  1.0000
  F   F17       1.0  0.59900  0.80000  0.58000  1.0000
  F   F18       1.0  0.15000  0.28500  0.60800  1.0000
  F   F19       1.0  0.94300  0.55300  0.69100  1.0000
  F   F20       1.0  0.69500  0.24200  0.73000  1.0000
  F   F21       1.0  0.46300  0.04430  0.73200  1.0000
  F   F22       1.0  0.53700  0.54400  0.76800  1.0000
  F   F23       1.0  0.30500  0.74200  0.77000  1.0000
  F   F24       1.0  0.05730  0.05340  0.80900  1.0000
  F   F25       1.0  0.85000  0.78500  0.89200  1.0000
  F   F26       1.0  0.40100  0.30000  0.92000  1.0000
  F   F27       1.0  0.69900  0.07930  0.95200  1.0000
  F   F28       1.0  0.81900  0.43000  0.99600  1.0000
  I   I1        1.0  0.85500  0.59800  0.17900  1.0000
  I   I2        1.0  0.14500  0.09830  0.32100  1.0000
  I   I3        1.0  0.85500  0.90200  0.67900  1.0000
  I   I4        1.0  0.14500  0.40200  0.82100  1.0000
