data_image0
_chemical_formula_structural       Cs8O4S20V4
_chemical_formula_sum              "Cs8 O4 S20 V4"
_cell_length_a       7.55515
_cell_length_b       10.483
_cell_length_c       13.3261
_cell_angle_alpha    90
_cell_angle_beta     100.775
_cell_angle_gamma    90

_space_group_name_H-M_alt    "P 1"
_space_group_IT_number       1

loop_
  _space_group_symop_operation_xyz
  'x, y, z'

loop_
  _atom_site_type_symbol
  _atom_site_label
  _atom_site_symmetry_multiplicity
  _atom_site_fract_x
  _atom_site_fract_y
  _atom_site_fract_z
  _atom_site_occupancy
  Cs  Cs1       1.0  0.10800  0.76400  0.07730  1.0000
  Cs  Cs2       1.0  0.74300  0.02860  0.23600  1.0000
  Cs  Cs3       1.0  0.75700  0.52900  0.26400  1.0000
  Cs  Cs4       1.0  0.39200  0.26400  0.42300  1.0000
  Cs  Cs5       1.0  0.60800  0.73600  0.57700  1.0000
  Cs  Cs6       1.0  0.24300  0.47100  0.73600  1.0000
  Cs  Cs7       1.0  0.25700  0.97100  0.76400  1.0000
  Cs  Cs8       1.0  0.89200  0.23600  0.92300  1.0000
  O   O1        1.0  0.54100  0.28000  0.21000  1.0000
  O   O2        1.0  0.95900  0.78000  0.29000  1.0000
  O   O3        1.0  0.04100  0.22000  0.71000  1.0000
  O   O4        1.0  0.45900  0.72000  0.79000  1.0000
  S   S1        1.0  0.58000  0.77700  0.03580  1.0000
  S   S2        1.0  0.40200  0.50400  0.04710  1.0000
  S   S3        1.0  0.31200  0.08990  0.05120  1.0000
  S   S4        1.0  0.10500  0.26100  0.18700  1.0000
  S   S5        1.0  0.19200  0.44800  0.20600  1.0000
  S   S6        1.0  0.30800  0.94800  0.29400  1.0000
  S   S7        1.0  0.39500  0.76100  0.31300  1.0000
  S   S8        1.0  0.18800  0.59000  0.44900  1.0000
  S   S9        1.0  0.09850  0.00406  0.45300  1.0000
  S   S10       1.0  0.92000  0.27700  0.46400  1.0000
  S   S11       1.0  0.08020  0.72300  0.53600  1.0000
  S   S12       1.0  0.90200  0.99600  0.54700  1.0000
  S   S13       1.0  0.81200  0.41000  0.55100  1.0000
  S   S14       1.0  0.60500  0.23900  0.68700  1.0000
  S   S15       1.0  0.69200  0.05210  0.70600  1.0000
  S   S16       1.0  0.80800  0.55200  0.79400  1.0000
  S   S17       1.0  0.89500  0.73900  0.81300  1.0000
  S   S18       1.0  0.68800  0.91000  0.94900  1.0000
  S   S19       1.0  0.59800  0.49600  0.95300  1.0000
  S   S20       1.0  0.42000  0.22300  0.96400  1.0000
  V   V1        1.0  0.36000  0.30200  0.11900  1.0000
  V   V2        1.0  0.14000  0.80200  0.38100  1.0000
  V   V3        1.0  0.86000  0.19800  0.61900  1.0000
  V   V4        1.0  0.64000  0.69800  0.88100  1.0000
