data_image0
_chemical_formula_structural       As4Ca4H4Ni4O20
_chemical_formula_sum              "As4 Ca4 H4 Ni4 O20"
_cell_length_a       7.38716
_cell_length_b       8.89909
_cell_length_c       5.89031
_cell_angle_alpha    90
_cell_angle_beta     90
_cell_angle_gamma    90

_space_group_name_H-M_alt    "P 1"
_space_group_IT_number       1

loop_
  _space_group_symop_operation_xyz
  'x, y, z'

loop_
  _atom_site_type_symbol
  _atom_site_label
  _atom_site_symmetry_multiplicity
  _atom_site_fract_x
  _atom_site_fract_y
  _atom_site_fract_z
  _atom_site_occupancy
  As  As1       1.0  0.12000  0.18100  0.01640  1.0000
  As  As2       1.0  0.88000  0.68100  0.48400  1.0000
  As  As3       1.0  0.38000  0.81900  0.51600  1.0000
  As  As4       1.0  0.62000  0.31900  0.98400  1.0000
  Ca  Ca1       1.0  0.63000  0.67300  0.02460  1.0000
  Ca  Ca2       1.0  0.37000  0.17300  0.47500  1.0000
  Ca  Ca3       1.0  0.87000  0.32700  0.52500  1.0000
  Ca  Ca4       1.0  0.13000  0.82700  0.97500  1.0000
  H   H1        1.0  0.48600  0.98300  0.01170  1.0000
  H   H2        1.0  0.51400  0.48300  0.48800  1.0000
  H   H3        1.0  0.01430  0.01720  0.51200  1.0000
  H   H4        1.0  0.98600  0.51700  0.98800  1.0000
  Ni  Ni1       1.0  0.75700  0.00385  0.24300  1.0000
  Ni  Ni2       1.0  0.24300  0.50400  0.25700  1.0000
  Ni  Ni3       1.0  0.74300  0.99600  0.74300  1.0000
  Ni  Ni4       1.0  0.25700  0.49600  0.75700  1.0000
  O   O1        1.0  0.60100  0.92700  0.00049  1.0000
  O   O2        1.0  0.43800  0.44000  0.01180  1.0000
  O   O3        1.0  0.29100  0.06090  0.09170  1.0000
  O   O4        1.0  0.64900  0.22600  0.23700  1.0000
  O   O5        1.0  0.10600  0.29800  0.24900  1.0000
  O   O6        1.0  0.89400  0.79800  0.25100  1.0000
  O   O7        1.0  0.35100  0.72600  0.26300  1.0000
  O   O8        1.0  0.70900  0.56100  0.40800  1.0000
  O   O9        1.0  0.56200  0.94000  0.48800  1.0000
  O   O10       1.0  0.39900  0.42700  0.50000  1.0000
  O   O11       1.0  0.89900  0.07320  0.50000  1.0000
  O   O12       1.0  0.06240  0.56000  0.51200  1.0000
  O   O13       1.0  0.20900  0.93900  0.59200  1.0000
  O   O14       1.0  0.85100  0.77400  0.73700  1.0000
  O   O15       1.0  0.39400  0.70200  0.74900  1.0000
  O   O16       1.0  0.60600  0.20200  0.75100  1.0000
  O   O17       1.0  0.14900  0.27400  0.76300  1.0000
  O   O18       1.0  0.79100  0.43900  0.90800  1.0000
  O   O19       1.0  0.93800  0.06000  0.98800  1.0000
  O   O20       1.0  0.10100  0.57300  0.00000  1.0000
