data_image0
_chemical_formula_structural       Ba12Cl5F19
_chemical_formula_sum              "Ba12 Cl5 F19"
_cell_length_a       13.9843
_cell_length_b       13.9843
_cell_length_c       4.21559
_cell_angle_alpha    90
_cell_angle_beta     90
_cell_angle_gamma    120.001

_space_group_name_H-M_alt    "P 1"
_space_group_IT_number       1

loop_
  _space_group_symop_operation_xyz
  'x, y, z'

loop_
  _atom_site_type_symbol
  _atom_site_label
  _atom_site_symmetry_multiplicity
  _atom_site_fract_x
  _atom_site_fract_y
  _atom_site_fract_z
  _atom_site_occupancy
  Ba  Ba1       1.0  0.17800  0.00000  0.00000  1.0000
  Ba  Ba2       1.0  0.63000  0.00000  0.00000  1.0000
  Ba  Ba3       1.0  0.00000  0.17800  0.00000  1.0000
  Ba  Ba4       1.0  0.37000  0.37000  0.00000  1.0000
  Ba  Ba5       1.0  0.00000  0.63000  0.00000  1.0000
  Ba  Ba6       1.0  0.82200  0.82200  0.00000  1.0000
  Ba  Ba7       1.0  0.47800  0.16600  0.50000  1.0000
  Ba  Ba8       1.0  0.83400  0.31200  0.50000  1.0000
  Ba  Ba9       1.0  0.16600  0.47800  0.50000  1.0000
  Ba  Ba10      1.0  0.68800  0.52200  0.50000  1.0000
  Ba  Ba11      1.0  0.52200  0.68800  0.50000  1.0000
  Ba  Ba12      1.0  0.31200  0.83400  0.50000  1.0000
  Cl  Cl1       1.0  0.66700  0.33300  0.00000  1.0000
  Cl  Cl2       1.0  0.33300  0.66700  0.00000  1.0000
  Cl  Cl3       1.0  0.81400  0.00000  0.50000  1.0000
  Cl  Cl4       1.0  0.18600  0.18600  0.50000  1.0000
  Cl  Cl5       1.0  0.00000  0.81400  0.50000  1.0000
  F   F1        1.0  0.00000  0.00000  0.00000  1.0000
  F   F2        1.0  0.44000  0.00000  0.00000  1.0000
  F   F3        1.0  0.37600  0.18200  0.00000  1.0000
  F   F4        1.0  0.81800  0.19400  0.00000  1.0000
  F   F5        1.0  0.18200  0.37600  0.00000  1.0000
  F   F6        1.0  0.00000  0.44000  0.00000  1.0000
  F   F7        1.0  0.56000  0.56000  0.00000  1.0000
  F   F8        1.0  0.80600  0.62400  0.00000  1.0000
  F   F9        1.0  0.62400  0.80600  0.00000  1.0000
  F   F10       1.0  0.19400  0.81800  0.00000  1.0000
  F   F11       1.0  0.28100  0.00000  0.50000  1.0000
  F   F12       1.0  0.64100  0.12600  0.50000  1.0000
  F   F13       1.0  0.00000  0.28100  0.50000  1.0000
  F   F14       1.0  0.48500  0.35900  0.50000  1.0000
  F   F15       1.0  0.35900  0.48500  0.50000  1.0000
  F   F16       1.0  0.87400  0.51500  0.50000  1.0000
  F   F17       1.0  0.12600  0.64100  0.50000  1.0000
  F   F18       1.0  0.71900  0.71900  0.50000  1.0000
  F   F19       1.0  0.51500  0.87400  0.50000  1.0000
