data_image0
_chemical_formula_structural       Nd8O24Te4
_chemical_formula_sum              "Nd8 O24 Te4"
_cell_length_a       5.42631
_cell_length_b       9.30117
_cell_length_c       10.1878
_cell_angle_alpha    90
_cell_angle_beta     90
_cell_angle_gamma    90

_space_group_name_H-M_alt    "P 1"
_space_group_IT_number       1

loop_
  _space_group_symop_operation_xyz
  'x, y, z'

loop_
  _atom_site_type_symbol
  _atom_site_label
  _atom_site_symmetry_multiplicity
  _atom_site_fract_x
  _atom_site_fract_y
  _atom_site_fract_z
  _atom_site_occupancy
  Nd  Nd1       1.0  0.02720  0.39600  0.04040  1.0000
  Nd  Nd2       1.0  0.46800  0.71700  0.13700  1.0000
  Nd  Nd3       1.0  0.53200  0.21700  0.36300  1.0000
  Nd  Nd4       1.0  0.97300  0.89600  0.46000  1.0000
  Nd  Nd5       1.0  0.47300  0.60400  0.54000  1.0000
  Nd  Nd6       1.0  0.03210  0.28300  0.63700  1.0000
  Nd  Nd7       1.0  0.96800  0.78300  0.86300  1.0000
  Nd  Nd8       1.0  0.52700  0.10400  0.96000  1.0000
  O   O1        1.0  0.25100  0.91300  0.00856  1.0000
  O   O2        1.0  0.93300  0.14900  0.01960  1.0000
  O   O3        1.0  0.77800  0.88800  0.06520  1.0000
  O   O4        1.0  0.30800  0.14100  0.17600  1.0000
  O   O5        1.0  0.16900  0.55400  0.21300  1.0000
  O   O6        1.0  0.81700  0.36300  0.24100  1.0000
  O   O7        1.0  0.18300  0.86300  0.25900  1.0000
  O   O8        1.0  0.83100  0.05360  0.28700  1.0000
  O   O9        1.0  0.69200  0.64100  0.32400  1.0000
  O   O10       1.0  0.22200  0.38800  0.43500  1.0000
  O   O11       1.0  0.06660  0.64900  0.48000  1.0000
  O   O12       1.0  0.74900  0.41300  0.49100  1.0000
  O   O13       1.0  0.24900  0.08740  0.50900  1.0000
  O   O14       1.0  0.56700  0.85100  0.52000  1.0000
  O   O15       1.0  0.72200  0.11200  0.56500  1.0000
  O   O16       1.0  0.19200  0.85900  0.67600  1.0000
  O   O17       1.0  0.33100  0.44600  0.71300  1.0000
  O   O18       1.0  0.68300  0.63700  0.74100  1.0000
  O   O19       1.0  0.31700  0.13700  0.75900  1.0000
  O   O20       1.0  0.66900  0.94600  0.78700  1.0000
  O   O21       1.0  0.80800  0.35900  0.82400  1.0000
  O   O22       1.0  0.27800  0.61200  0.93500  1.0000
  O   O23       1.0  0.43300  0.35100  0.98000  1.0000
  O   O24       1.0  0.75100  0.58700  0.99100  1.0000
  Te  Te1       1.0  0.04270  0.00449  0.14400  1.0000
  Te  Te2       1.0  0.95700  0.50400  0.35600  1.0000
  Te  Te3       1.0  0.45700  0.99600  0.64400  1.0000
  Te  Te4       1.0  0.54300  0.49600  0.85600  1.0000
