data_image0
_chemical_formula_structural       C12F10H6O6Se2
_chemical_formula_sum              "C12 F10 H6 O6 Se2"
_cell_length_a       4.41505
_cell_length_b       5.04181
_cell_length_c       16.7679
_cell_angle_alpha    82.3252
_cell_angle_beta     88.6613
_cell_angle_gamma    82.3361

_space_group_name_H-M_alt    "P 1"
_space_group_IT_number       1

loop_
  _space_group_symop_operation_xyz
  'x, y, z'

loop_
  _atom_site_type_symbol
  _atom_site_label
  _atom_site_symmetry_multiplicity
  _atom_site_fract_x
  _atom_site_fract_y
  _atom_site_fract_z
  _atom_site_occupancy
  C   C1        1.0  0.37000  0.66600  0.09830  1.0000
  C   C2        1.0  0.20200  0.45800  0.12600  1.0000
  C   C3        1.0  0.52700  0.78600  0.15200  1.0000
  C   C4        1.0  0.18800  0.37600  0.20800  1.0000
  C   C5        1.0  0.50800  0.70100  0.23400  1.0000
  C   C6        1.0  0.33900  0.49500  0.26300  1.0000
  C   C7        1.0  0.66100  0.50500  0.73700  1.0000
  C   C8        1.0  0.49200  0.29900  0.76600  1.0000
  C   C9        1.0  0.81200  0.62400  0.79200  1.0000
  C   C10       1.0  0.47300  0.21400  0.84800  1.0000
  C   C11       1.0  0.79800  0.54200  0.87400  1.0000
  C   C12       1.0  0.63000  0.33400  0.90200  1.0000
  F   F1        1.0  0.38400  0.75400  0.01970  1.0000
  F   F2        1.0  0.05900  0.33900  0.07360  1.0000
  F   F3        1.0  0.69500  0.98200  0.12400  1.0000
  F   F4        1.0  0.02670  0.17200  0.23600  1.0000
  F   F5        1.0  0.66000  0.82100  0.28500  1.0000
  F   F6        1.0  0.34000  0.17900  0.71500  1.0000
  F   F7        1.0  0.97300  0.82800  0.76400  1.0000
  F   F8        1.0  0.30500  0.01830  0.87600  1.0000
  F   F9        1.0  0.94100  0.66100  0.92600  1.0000
  F   F10       1.0  0.61600  0.24600  0.98000  1.0000
  H   H1        1.0  0.72400  0.09140  0.42800  1.0000
  H   H2        1.0  0.56000  0.75400  0.44700  1.0000
  H   H3        1.0  0.93300  0.74100  0.44800  1.0000
  H   H4        1.0  0.06690  0.25900  0.55200  1.0000
  H   H5        1.0  0.44000  0.24600  0.55300  1.0000
  H   H6        1.0  0.27600  0.90900  0.57200  1.0000
  O   O1        1.0  0.70300  0.28500  0.39100  1.0000
  O   O2        1.0  0.24600  0.67300  0.41000  1.0000
  O   O3        1.0  0.73300  0.82900  0.47100  1.0000
  O   O4        1.0  0.26700  0.17100  0.52900  1.0000
  O   O5        1.0  0.75400  0.32700  0.59000  1.0000
  O   O6        1.0  0.29700  0.71500  0.60900  1.0000
  Se  Se1       1.0  0.30300  0.36700  0.37800  1.0000
  Se  Se2       1.0  0.69700  0.63300  0.62200  1.0000
