data_image0
_chemical_formula_structural       Br24W12
_chemical_formula_sum              "Br24 W12"
_cell_length_a       9.52977
_cell_length_b       9.52977
_cell_length_c       11.8858
_cell_angle_alpha    90
_cell_angle_beta     90
_cell_angle_gamma    77.2249

_space_group_name_H-M_alt    "P 1"
_space_group_IT_number       1

loop_
  _space_group_symop_operation_xyz
  'x, y, z'

loop_
  _atom_site_type_symbol
  _atom_site_label
  _atom_site_symmetry_multiplicity
  _atom_site_fract_x
  _atom_site_fract_y
  _atom_site_fract_z
  _atom_site_occupancy
  Br  Br1       1.0  0.29800  0.29800  0.00000  1.0000
  Br  Br2       1.0  0.70200  0.70200  0.00000  1.0000
  Br  Br3       1.0  0.08410  0.66500  0.07680  1.0000
  Br  Br4       1.0  0.33500  0.91600  0.07680  1.0000
  Br  Br5       1.0  0.64700  0.35300  0.14700  1.0000
  Br  Br6       1.0  0.04820  0.20100  0.21000  1.0000
  Br  Br7       1.0  0.79900  0.95200  0.21000  1.0000
  Br  Br8       1.0  0.29900  0.45200  0.29000  1.0000
  Br  Br9       1.0  0.54800  0.70100  0.29000  1.0000
  Br  Br10      1.0  0.14700  0.85300  0.35300  1.0000
  Br  Br11      1.0  0.58400  0.16500  0.42300  1.0000
  Br  Br12      1.0  0.83500  0.41600  0.42300  1.0000
  Br  Br13      1.0  0.20200  0.20200  0.50000  1.0000
  Br  Br14      1.0  0.79800  0.79800  0.50000  1.0000
  Br  Br15      1.0  0.16500  0.58400  0.57700  1.0000
  Br  Br16      1.0  0.41600  0.83500  0.57700  1.0000
  Br  Br17      1.0  0.85300  0.14700  0.64700  1.0000
  Br  Br18      1.0  0.45200  0.29900  0.71000  1.0000
  Br  Br19      1.0  0.70100  0.54800  0.71000  1.0000
  Br  Br20      1.0  0.20100  0.04820  0.79000  1.0000
  Br  Br21      1.0  0.95200  0.79900  0.79000  1.0000
  Br  Br22      1.0  0.35300  0.64700  0.85300  1.0000
  Br  Br23      1.0  0.66500  0.08410  0.92300  1.0000
  Br  Br24      1.0  0.91600  0.33500  0.92300  1.0000
  W   W1        1.0  0.12600  0.12600  0.00000  1.0000
  W   W2        1.0  0.87400  0.87400  0.00000  1.0000
  W   W3        1.0  0.85700  0.14300  0.06650  1.0000
  W   W4        1.0  0.06660  0.93300  0.14300  1.0000
  W   W5        1.0  0.56700  0.43300  0.35700  1.0000
  W   W6        1.0  0.35700  0.64300  0.43300  1.0000
  W   W7        1.0  0.37400  0.37400  0.50000  1.0000
  W   W8        1.0  0.62600  0.62600  0.50000  1.0000
  W   W9        1.0  0.64300  0.35700  0.56700  1.0000
  W   W10       1.0  0.43300  0.56700  0.64300  1.0000
  W   W11       1.0  0.93300  0.06660  0.85700  1.0000
  W   W12       1.0  0.14300  0.85700  0.93300  1.0000
