data_image0
_chemical_formula_structural       Br4Ce8S20Sb4
_chemical_formula_sum              "Br4 Ce8 S20 Sb4"
_cell_length_a       5.47607
_cell_length_b       8.9863
_cell_length_c       18.0148
_cell_angle_alpha    90
_cell_angle_beta     90
_cell_angle_gamma    90

_space_group_name_H-M_alt    "P 1"
_space_group_IT_number       1

loop_
  _space_group_symop_operation_xyz
  'x, y, z'

loop_
  _atom_site_type_symbol
  _atom_site_label
  _atom_site_symmetry_multiplicity
  _atom_site_fract_x
  _atom_site_fract_y
  _atom_site_fract_z
  _atom_site_occupancy
  Br  Br1       1.0  0.75000  0.59700  0.02820  1.0000
  Br  Br2       1.0  0.75000  0.09660  0.47200  1.0000
  Br  Br3       1.0  0.25000  0.90300  0.52800  1.0000
  Br  Br4       1.0  0.25000  0.40300  0.97200  1.0000
  Ce  Ce1       1.0  0.75000  0.22600  0.03200  1.0000
  Ce  Ce2       1.0  0.75000  0.65900  0.19900  1.0000
  Ce  Ce3       1.0  0.75000  0.15900  0.30100  1.0000
  Ce  Ce4       1.0  0.75000  0.72600  0.46800  1.0000
  Ce  Ce5       1.0  0.25000  0.27400  0.53200  1.0000
  Ce  Ce6       1.0  0.25000  0.84100  0.69900  1.0000
  Ce  Ce7       1.0  0.25000  0.34100  0.80100  1.0000
  Ce  Ce8       1.0  0.25000  0.77400  0.96800  1.0000
  S   S1        1.0  0.25000  0.07440  0.04060  1.0000
  S   S2        1.0  0.25000  0.71600  0.14000  1.0000
  S   S3        1.0  0.75000  0.98700  0.15700  1.0000
  S   S4        1.0  0.55900  0.34700  0.17400  1.0000
  S   S5        1.0  0.94100  0.34700  0.17400  1.0000
  S   S6        1.0  0.55900  0.84700  0.32600  1.0000
  S   S7        1.0  0.94100  0.84700  0.32600  1.0000
  S   S8        1.0  0.75000  0.48700  0.34300  1.0000
  S   S9        1.0  0.25000  0.21600  0.36000  1.0000
  S   S10       1.0  0.25000  0.57400  0.45900  1.0000
  S   S11       1.0  0.75000  0.42600  0.54100  1.0000
  S   S12       1.0  0.75000  0.78400  0.64000  1.0000
  S   S13       1.0  0.25000  0.51300  0.65700  1.0000
  S   S14       1.0  0.05930  0.15300  0.67400  1.0000
  S   S15       1.0  0.44100  0.15300  0.67400  1.0000
  S   S16       1.0  0.05930  0.65300  0.82600  1.0000
  S   S17       1.0  0.44100  0.65300  0.82600  1.0000
  S   S18       1.0  0.25000  0.01310  0.84300  1.0000
  S   S19       1.0  0.75000  0.28400  0.86000  1.0000
  S   S20       1.0  0.75000  0.92600  0.95900  1.0000
  Sb  Sb1       1.0  0.25000  0.98500  0.16800  1.0000
  Sb  Sb2       1.0  0.25000  0.48500  0.33200  1.0000
  Sb  Sb3       1.0  0.75000  0.51500  0.66800  1.0000
  Sb  Sb4       1.0  0.75000  0.01550  0.83200  1.0000
