data_image0
_chemical_formula_structural       N8Nd16Te12
_chemical_formula_sum              "N8 Nd16 Te12"
_cell_length_a       7.39293
_cell_length_b       11.7329
_cell_length_c       11.3884
_cell_angle_alpha    90
_cell_angle_beta     90
_cell_angle_gamma    90

_space_group_name_H-M_alt    "P 1"
_space_group_IT_number       1

loop_
  _space_group_symop_operation_xyz
  'x, y, z'

loop_
  _atom_site_type_symbol
  _atom_site_label
  _atom_site_symmetry_multiplicity
  _atom_site_fract_x
  _atom_site_fract_y
  _atom_site_fract_z
  _atom_site_occupancy
  N   N1        1.0  0.55300  0.62200  0.03270  1.0000
  N   N2        1.0  0.55300  0.87800  0.03270  1.0000
  N   N3        1.0  0.05310  0.62200  0.46700  1.0000
  N   N4        1.0  0.05310  0.87800  0.46700  1.0000
  N   N5        1.0  0.94700  0.12200  0.53300  1.0000
  N   N6        1.0  0.94700  0.37800  0.53300  1.0000
  N   N7        1.0  0.44700  0.12200  0.96700  1.0000
  N   N8        1.0  0.44700  0.37800  0.96700  1.0000
  Nd  Nd1       1.0  0.22900  0.25000  0.03100  1.0000
  Nd  Nd2       1.0  0.64500  0.04990  0.11000  1.0000
  Nd  Nd3       1.0  0.64500  0.45000  0.11000  1.0000
  Nd  Nd4       1.0  0.40900  0.75000  0.16000  1.0000
  Nd  Nd5       1.0  0.90900  0.75000  0.34000  1.0000
  Nd  Nd6       1.0  0.14500  0.04990  0.39000  1.0000
  Nd  Nd7       1.0  0.14500  0.45000  0.39000  1.0000
  Nd  Nd8       1.0  0.72900  0.25000  0.46900  1.0000
  Nd  Nd9       1.0  0.27100  0.75000  0.53100  1.0000
  Nd  Nd10      1.0  0.85500  0.55000  0.61000  1.0000
  Nd  Nd11      1.0  0.85500  0.95000  0.61000  1.0000
  Nd  Nd12      1.0  0.09080  0.25000  0.66000  1.0000
  Nd  Nd13      1.0  0.59100  0.25000  0.84000  1.0000
  Nd  Nd14      1.0  0.35500  0.55000  0.89000  1.0000
  Nd  Nd15      1.0  0.35500  0.95000  0.89000  1.0000
  Nd  Nd16      1.0  0.77100  0.75000  0.96900  1.0000
  Te  Te1       1.0  0.06600  0.57900  0.13500  1.0000
  Te  Te2       1.0  0.06600  0.92100  0.13500  1.0000
  Te  Te3       1.0  0.91700  0.25000  0.22600  1.0000
  Te  Te4       1.0  0.41700  0.25000  0.27400  1.0000
  Te  Te5       1.0  0.56600  0.57900  0.36500  1.0000
  Te  Te6       1.0  0.56600  0.92100  0.36500  1.0000
  Te  Te7       1.0  0.43400  0.07870  0.63500  1.0000
  Te  Te8       1.0  0.43400  0.42100  0.63500  1.0000
  Te  Te9       1.0  0.58300  0.75000  0.72600  1.0000
  Te  Te10      1.0  0.08260  0.75000  0.77400  1.0000
  Te  Te11      1.0  0.93400  0.07870  0.86500  1.0000
  Te  Te12      1.0  0.93400  0.42100  0.86500  1.0000
