data_image0
_chemical_formula_structural       Bi2Cl24Cs8Sb2
_chemical_formula_sum              "Bi2 Cl24 Cs8 Sb2"
_cell_length_a       10.6143
_cell_length_b       10.6143
_cell_length_c       13.0902
_cell_angle_alpha    113.918
_cell_angle_beta     113.918
_cell_angle_gamma    90

_space_group_name_H-M_alt    "P 1"
_space_group_IT_number       1

loop_
  _space_group_symop_operation_xyz
  'x, y, z'

loop_
  _atom_site_type_symbol
  _atom_site_label
  _atom_site_symmetry_multiplicity
  _atom_site_fract_x
  _atom_site_fract_y
  _atom_site_fract_z
  _atom_site_occupancy
  Bi  Bi1       1.0  0.12500  0.87500  0.25000  1.0000
  Bi  Bi2       1.0  0.87500  0.12500  0.75000  1.0000
  Cl  Cl1       1.0  0.00211  0.25200  0.00422  1.0000
  Cl  Cl2       1.0  0.51200  0.26200  0.02410  1.0000
  Cl  Cl3       1.0  0.37700  0.87000  0.23900  1.0000
  Cl  Cl4       1.0  0.86300  0.87000  0.23900  1.0000
  Cl  Cl5       1.0  0.62400  0.14700  0.24800  1.0000
  Cl  Cl6       1.0  0.62400  0.60200  0.24800  1.0000
  Cl  Cl7       1.0  0.39800  0.37600  0.25200  1.0000
  Cl  Cl8       1.0  0.85300  0.37600  0.25200  1.0000
  Cl  Cl9       1.0  0.13000  0.13700  0.26100  1.0000
  Cl  Cl10      1.0  0.13000  0.62300  0.26100  1.0000
  Cl  Cl11      1.0  0.73800  0.48800  0.47600  1.0000
  Cl  Cl12      1.0  0.74800  0.99800  0.49600  1.0000
  Cl  Cl13      1.0  0.25200  0.00211  0.50400  1.0000
  Cl  Cl14      1.0  0.26200  0.51200  0.52400  1.0000
  Cl  Cl15      1.0  0.87000  0.37700  0.73900  1.0000
  Cl  Cl16      1.0  0.87000  0.86300  0.73900  1.0000
  Cl  Cl17      1.0  0.14700  0.62400  0.74800  1.0000
  Cl  Cl18      1.0  0.60200  0.62400  0.74800  1.0000
  Cl  Cl19      1.0  0.37600  0.39800  0.75200  1.0000
  Cl  Cl20      1.0  0.37600  0.85300  0.75200  1.0000
  Cl  Cl21      1.0  0.13700  0.13000  0.76100  1.0000
  Cl  Cl22      1.0  0.62300  0.13000  0.76100  1.0000
  Cl  Cl23      1.0  0.48800  0.73800  0.97600  1.0000
  Cl  Cl24      1.0  0.99800  0.74800  0.99600  1.0000
  Cs  Cs1       1.0  0.22600  0.00000  0.00000  1.0000
  Cs  Cs2       1.0  0.77400  0.00000  0.00000  1.0000
  Cs  Cs3       1.0  0.22600  0.50000  0.00000  1.0000
  Cs  Cs4       1.0  0.77400  0.50000  0.00000  1.0000
  Cs  Cs5       1.0  0.00000  0.22600  0.50000  1.0000
  Cs  Cs6       1.0  0.50000  0.22600  0.50000  1.0000
  Cs  Cs7       1.0  0.00000  0.77400  0.50000  1.0000
  Cs  Cs8       1.0  0.50000  0.77400  0.50000  1.0000
  Sb  Sb1       1.0  0.62500  0.37500  0.25000  1.0000
  Sb  Sb2       1.0  0.37500  0.62500  0.75000  1.0000
