data_image0
_chemical_formula_structural       Co28Th8
_chemical_formula_sum              "Co28 Th8"
_cell_length_a       4.95229
_cell_length_b       4.95227
_cell_length_c       24.6923
_cell_angle_alpha    90
_cell_angle_beta     90
_cell_angle_gamma    120

_space_group_name_H-M_alt    "P 1"
_space_group_IT_number       1

loop_
  _space_group_symop_operation_xyz
  'x, y, z'

loop_
  _atom_site_type_symbol
  _atom_site_label
  _atom_site_symmetry_multiplicity
  _atom_site_fract_x
  _atom_site_fract_y
  _atom_site_fract_z
  _atom_site_occupancy
  Co  Co1       1.0  0.00000  0.00000  0.00000  1.0000
  Co  Co2       1.0  0.33200  0.16600  0.08760  1.0000
  Co  Co3       1.0  0.83400  0.16600  0.08760  1.0000
  Co  Co4       1.0  0.83400  0.66800  0.08760  1.0000
  Co  Co5       1.0  0.66700  0.33300  0.16700  1.0000
  Co  Co6       1.0  0.00000  0.00000  0.16800  1.0000
  Co  Co7       1.0  0.33400  0.16700  0.25000  1.0000
  Co  Co8       1.0  0.83300  0.16700  0.25000  1.0000
  Co  Co9       1.0  0.83300  0.66600  0.25000  1.0000
  Co  Co10      1.0  0.00000  0.00000  0.33200  1.0000
  Co  Co11      1.0  0.66700  0.33300  0.33300  1.0000
  Co  Co12      1.0  0.83400  0.66800  0.41200  1.0000
  Co  Co13      1.0  0.33200  0.16600  0.41200  1.0000
  Co  Co14      1.0  0.83400  0.16600  0.41200  1.0000
  Co  Co15      1.0  0.00000  0.00000  0.50000  1.0000
  Co  Co16      1.0  0.16600  0.83400  0.58800  1.0000
  Co  Co17      1.0  0.66800  0.83400  0.58800  1.0000
  Co  Co18      1.0  0.16600  0.33200  0.58800  1.0000
  Co  Co19      1.0  0.33300  0.66700  0.66700  1.0000
  Co  Co20      1.0  0.00000  0.00000  0.66800  1.0000
  Co  Co21      1.0  0.16700  0.33400  0.75000  1.0000
  Co  Co22      1.0  0.16700  0.83300  0.75000  1.0000
  Co  Co23      1.0  0.66600  0.83300  0.75000  1.0000
  Co  Co24      1.0  0.00000  0.00000  0.83200  1.0000
  Co  Co25      1.0  0.33300  0.66700  0.83300  1.0000
  Co  Co26      1.0  0.16600  0.33200  0.91200  1.0000
  Co  Co27      1.0  0.16600  0.83400  0.91200  1.0000
  Co  Co28      1.0  0.66800  0.83400  0.91200  1.0000
  Th  Th1       1.0  0.33300  0.66700  0.03040  1.0000
  Th  Th2       1.0  0.33300  0.66700  0.17400  1.0000
  Th  Th3       1.0  0.33300  0.66700  0.32600  1.0000
  Th  Th4       1.0  0.33300  0.66700  0.47000  1.0000
  Th  Th5       1.0  0.66700  0.33300  0.53000  1.0000
  Th  Th6       1.0  0.66700  0.33300  0.67400  1.0000
  Th  Th7       1.0  0.66700  0.33300  0.82600  1.0000
  Th  Th8       1.0  0.66700  0.33300  0.97000  1.0000
