data_image0
_chemical_formula_structural       La16N8Te12
_chemical_formula_sum              "La16 N8 Te12"
_cell_length_a       7.49423
_cell_length_b       11.8184
_cell_length_c       11.6587
_cell_angle_alpha    90
_cell_angle_beta     90
_cell_angle_gamma    90

_space_group_name_H-M_alt    "P 1"
_space_group_IT_number       1

loop_
  _space_group_symop_operation_xyz
  'x, y, z'

loop_
  _atom_site_type_symbol
  _atom_site_label
  _atom_site_symmetry_multiplicity
  _atom_site_fract_x
  _atom_site_fract_y
  _atom_site_fract_z
  _atom_site_occupancy
  La  La1       1.0  0.22300  0.25000  0.02990  1.0000
  La  La2       1.0  0.64800  0.05050  0.11000  1.0000
  La  La3       1.0  0.64800  0.44900  0.11000  1.0000
  La  La4       1.0  0.41000  0.75000  0.15900  1.0000
  La  La5       1.0  0.91000  0.75000  0.34100  1.0000
  La  La6       1.0  0.14800  0.05050  0.39000  1.0000
  La  La7       1.0  0.14800  0.44900  0.39000  1.0000
  La  La8       1.0  0.72300  0.25000  0.47000  1.0000
  La  La9       1.0  0.27700  0.75000  0.53000  1.0000
  La  La10      1.0  0.85200  0.55100  0.61000  1.0000
  La  La11      1.0  0.85200  0.94900  0.61000  1.0000
  La  La12      1.0  0.08960  0.25000  0.65900  1.0000
  La  La13      1.0  0.59000  0.25000  0.84100  1.0000
  La  La14      1.0  0.35200  0.55100  0.89000  1.0000
  La  La15      1.0  0.35200  0.94900  0.89000  1.0000
  La  La16      1.0  0.77700  0.75000  0.97000  1.0000
  N   N1        1.0  0.55400  0.62200  0.03380  1.0000
  N   N2        1.0  0.55400  0.87800  0.03380  1.0000
  N   N3        1.0  0.05430  0.62200  0.46600  1.0000
  N   N4        1.0  0.05430  0.87800  0.46600  1.0000
  N   N5        1.0  0.94600  0.12200  0.53400  1.0000
  N   N6        1.0  0.94600  0.37800  0.53400  1.0000
  N   N7        1.0  0.44600  0.12200  0.96600  1.0000
  N   N8        1.0  0.44600  0.37800  0.96600  1.0000
  Te  Te1       1.0  0.06690  0.57700  0.13600  1.0000
  Te  Te2       1.0  0.06690  0.92300  0.13600  1.0000
  Te  Te3       1.0  0.91900  0.25000  0.23000  1.0000
  Te  Te4       1.0  0.41900  0.25000  0.27000  1.0000
  Te  Te5       1.0  0.56700  0.57700  0.36400  1.0000
  Te  Te6       1.0  0.56700  0.92300  0.36400  1.0000
  Te  Te7       1.0  0.43300  0.07690  0.63600  1.0000
  Te  Te8       1.0  0.43300  0.42300  0.63600  1.0000
  Te  Te9       1.0  0.58100  0.75000  0.73000  1.0000
  Te  Te10      1.0  0.08100  0.75000  0.77000  1.0000
  Te  Te11      1.0  0.93300  0.07690  0.86400  1.0000
  Te  Te12      1.0  0.93300  0.42300  0.86400  1.0000
