data_image0
_chemical_formula_structural       F24Pb8Zn4
_chemical_formula_sum              "F24 Pb8 Zn4"
_cell_length_a       5.58335
_cell_length_b       5.58335
_cell_length_c       15.826
_cell_angle_alpha    90
_cell_angle_beta     90
_cell_angle_gamma    90

_space_group_name_H-M_alt    "P 1"
_space_group_IT_number       1

loop_
  _space_group_symop_operation_xyz
  'x, y, z'

loop_
  _atom_site_type_symbol
  _atom_site_label
  _atom_site_symmetry_multiplicity
  _atom_site_fract_x
  _atom_site_fract_y
  _atom_site_fract_z
  _atom_site_occupancy
  F   F1        1.0  0.75000  0.25000  0.00000  1.0000
  F   F2        1.0  0.25000  0.75000  0.00000  1.0000
  F   F3        1.0  0.25000  0.25000  0.03480  1.0000
  F   F4        1.0  0.95200  0.54800  0.12500  1.0000
  F   F5        1.0  0.54800  0.95200  0.12500  1.0000
  F   F6        1.0  0.25000  0.25000  0.24100  1.0000
  F   F7        1.0  0.75000  0.25000  0.25000  1.0000
  F   F8        1.0  0.25000  0.75000  0.25000  1.0000
  F   F9        1.0  0.75000  0.75000  0.25900  1.0000
  F   F10       1.0  0.04770  0.04770  0.37500  1.0000
  F   F11       1.0  0.45200  0.45200  0.37500  1.0000
  F   F12       1.0  0.75000  0.75000  0.46500  1.0000
  F   F13       1.0  0.75000  0.25000  0.50000  1.0000
  F   F14       1.0  0.25000  0.75000  0.50000  1.0000
  F   F15       1.0  0.25000  0.25000  0.53500  1.0000
  F   F16       1.0  0.54800  0.54800  0.62500  1.0000
  F   F17       1.0  0.95200  0.95200  0.62500  1.0000
  F   F18       1.0  0.25000  0.25000  0.74100  1.0000
  F   F19       1.0  0.75000  0.25000  0.75000  1.0000
  F   F20       1.0  0.25000  0.75000  0.75000  1.0000
  F   F21       1.0  0.75000  0.75000  0.75900  1.0000
  F   F22       1.0  0.45200  0.04770  0.87500  1.0000
  F   F23       1.0  0.04770  0.45200  0.87500  1.0000
  F   F24       1.0  0.75000  0.75000  0.96500  1.0000
  Pb  Pb1       1.0  0.50600  0.50600  0.15400  1.0000
  Pb  Pb2       1.0  0.99400  0.99400  0.15400  1.0000
  Pb  Pb3       1.0  0.49400  0.00640  0.34600  1.0000
  Pb  Pb4       1.0  0.00640  0.49400  0.34600  1.0000
  Pb  Pb5       1.0  0.99400  0.50600  0.65400  1.0000
  Pb  Pb6       1.0  0.50600  0.99400  0.65400  1.0000
  Pb  Pb7       1.0  0.00640  0.00640  0.84600  1.0000
  Pb  Pb8       1.0  0.49400  0.49400  0.84600  1.0000
  Zn  Zn1       1.0  0.50000  0.00000  0.00000  1.0000
  Zn  Zn2       1.0  0.00000  0.50000  0.00000  1.0000
  Zn  Zn3       1.0  0.00000  0.00000  0.50000  1.0000
  Zn  Zn4       1.0  0.50000  0.50000  0.50000  1.0000
