data_image0
_chemical_formula_structural       Bi4F28Xe4
_chemical_formula_sum              "Bi4 F28 Xe4"
_cell_length_a       4.85395
_cell_length_b       9.33263
_cell_length_c       11.7346
_cell_angle_alpha    90
_cell_angle_beta     91.7545
_cell_angle_gamma    90

_space_group_name_H-M_alt    "P 1"
_space_group_IT_number       1

loop_
  _space_group_symop_operation_xyz
  'x, y, z'

loop_
  _atom_site_type_symbol
  _atom_site_label
  _atom_site_symmetry_multiplicity
  _atom_site_fract_x
  _atom_site_fract_y
  _atom_site_fract_z
  _atom_site_occupancy
  Bi  Bi1       1.0  0.39700  0.52800  0.22400  1.0000
  Bi  Bi2       1.0  0.60300  0.02780  0.27600  1.0000
  Bi  Bi3       1.0  0.39700  0.97200  0.72400  1.0000
  Bi  Bi4       1.0  0.60300  0.47200  0.77600  1.0000
  F   F1        1.0  0.25300  0.93200  0.04440  1.0000
  F   F2        1.0  0.19400  0.42400  0.07940  1.0000
  F   F3        1.0  0.53200  0.65100  0.09760  1.0000
  F   F4        1.0  0.44800  0.15500  0.15200  1.0000
  F   F5        1.0  0.77200  0.88700  0.17100  1.0000
  F   F6        1.0  0.72200  0.39800  0.20900  1.0000
  F   F7        1.0  0.04240  0.64000  0.22500  1.0000
  F   F8        1.0  0.95800  0.14000  0.27500  1.0000
  F   F9        1.0  0.27800  0.89800  0.29100  1.0000
  F   F10       1.0  0.22800  0.38700  0.32900  1.0000
  F   F11       1.0  0.55200  0.65500  0.34800  1.0000
  F   F12       1.0  0.46800  0.15100  0.40200  1.0000
  F   F13       1.0  0.80600  0.92400  0.42100  1.0000
  F   F14       1.0  0.74700  0.43200  0.45600  1.0000
  F   F15       1.0  0.25300  0.56800  0.54400  1.0000
  F   F16       1.0  0.19400  0.07630  0.57900  1.0000
  F   F17       1.0  0.53200  0.84900  0.59800  1.0000
  F   F18       1.0  0.44800  0.34500  0.65200  1.0000
  F   F19       1.0  0.77200  0.61300  0.67100  1.0000
  F   F20       1.0  0.72200  0.10200  0.70900  1.0000
  F   F21       1.0  0.04240  0.86000  0.72500  1.0000
  F   F22       1.0  0.95800  0.36000  0.77500  1.0000
  F   F23       1.0  0.27800  0.60200  0.79100  1.0000
  F   F24       1.0  0.22800  0.11300  0.82900  1.0000
  F   F25       1.0  0.55200  0.84500  0.84800  1.0000
  F   F26       1.0  0.46800  0.34900  0.90200  1.0000
  F   F27       1.0  0.80600  0.57600  0.92100  1.0000
  F   F28       1.0  0.74700  0.06760  0.95600  1.0000
  Xe  Xe1       1.0  0.96600  0.23200  0.01900  1.0000
  Xe  Xe2       1.0  0.03360  0.73200  0.48100  1.0000
  Xe  Xe3       1.0  0.96600  0.26800  0.51900  1.0000
  Xe  Xe4       1.0  0.03360  0.76800  0.98100  1.0000
