data_image0
_chemical_formula_structural       B8Ba12N16
_chemical_formula_sum              "B8 Ba12 N16"
_cell_length_a       4.24993
_cell_length_b       11.0832
_cell_length_c       14.7588
_cell_angle_alpha    90
_cell_angle_beta     90
_cell_angle_gamma    90

_space_group_name_H-M_alt    "P 1"
_space_group_IT_number       1

loop_
  _space_group_symop_operation_xyz
  'x, y, z'

loop_
  _atom_site_type_symbol
  _atom_site_label
  _atom_site_symmetry_multiplicity
  _atom_site_fract_x
  _atom_site_fract_y
  _atom_site_fract_z
  _atom_site_occupancy
  B   B1        1.0  0.90600  0.49900  0.02070  1.0000
  B   B2        1.0  0.26600  0.14100  0.23800  1.0000
  B   B3        1.0  0.73400  0.64100  0.26200  1.0000
  B   B4        1.0  0.09450  0.99900  0.47900  1.0000
  B   B5        1.0  0.59400  0.50100  0.52100  1.0000
  B   B6        1.0  0.23400  0.85900  0.73800  1.0000
  B   B7        1.0  0.76600  0.35900  0.76200  1.0000
  B   B8        1.0  0.40600  0.00064  0.97900  1.0000
  Ba  Ba1       1.0  0.77300  0.15500  0.09330  1.0000
  Ba  Ba2       1.0  0.09770  0.81200  0.11400  1.0000
  Ba  Ba3       1.0  0.35000  0.46200  0.17000  1.0000
  Ba  Ba4       1.0  0.65000  0.96200  0.33000  1.0000
  Ba  Ba5       1.0  0.90200  0.31200  0.38600  1.0000
  Ba  Ba6       1.0  0.22700  0.65500  0.40700  1.0000
  Ba  Ba7       1.0  0.72700  0.84500  0.59300  1.0000
  Ba  Ba8       1.0  0.40200  0.18800  0.61400  1.0000
  Ba  Ba9       1.0  0.15000  0.53800  0.67000  1.0000
  Ba  Ba10      1.0  0.85000  0.03770  0.83000  1.0000
  Ba  Ba11      1.0  0.59800  0.68800  0.88600  1.0000
  Ba  Ba12      1.0  0.27300  0.34500  0.90700  1.0000
  N   N1        1.0  0.07060  0.60000  0.00427  1.0000
  N   N2        1.0  0.78500  0.38800  0.03660  1.0000
  N   N3        1.0  0.14900  0.03160  0.21600  1.0000
  N   N4        1.0  0.59200  0.74600  0.24200  1.0000
  N   N5        1.0  0.40800  0.24600  0.25800  1.0000
  N   N6        1.0  0.85100  0.53200  0.28400  1.0000
  N   N7        1.0  0.21500  0.88800  0.46300  1.0000
  N   N8        1.0  0.92900  0.10000  0.49600  1.0000
  N   N9        1.0  0.42900  0.40000  0.50400  1.0000
  N   N10       1.0  0.71500  0.61200  0.53700  1.0000
  N   N11       1.0  0.35100  0.96800  0.71600  1.0000
  N   N12       1.0  0.90800  0.25400  0.74200  1.0000
  N   N13       1.0  0.09170  0.75400  0.75800  1.0000
  N   N14       1.0  0.64900  0.46800  0.78400  1.0000
  N   N15       1.0  0.28500  0.11200  0.96300  1.0000
  N   N16       1.0  0.57100  0.90000  0.99600  1.0000
