data_image0
_chemical_formula_structural       Ba16Br8Si12
_chemical_formula_sum              "Ba16 Br8 Si12"
_cell_length_a       15.217
_cell_length_b       8.94576
_cell_length_c       8.88865
_cell_angle_alpha    90
_cell_angle_beta     101.904
_cell_angle_gamma    90

_space_group_name_H-M_alt    "P 1"
_space_group_IT_number       1

loop_
  _space_group_symop_operation_xyz
  'x, y, z'

loop_
  _atom_site_type_symbol
  _atom_site_label
  _atom_site_symmetry_multiplicity
  _atom_site_fract_x
  _atom_site_fract_y
  _atom_site_fract_z
  _atom_site_occupancy
  Ba  Ba1       1.0  0.04450  0.21100  0.02130  1.0000
  Ba  Ba2       1.0  0.34700  0.17800  0.11800  1.0000
  Ba  Ba3       1.0  0.85400  0.43900  0.12900  1.0000
  Ba  Ba4       1.0  0.66900  0.16200  0.23400  1.0000
  Ba  Ba5       1.0  0.33100  0.66200  0.26600  1.0000
  Ba  Ba6       1.0  0.14600  0.93900  0.37100  1.0000
  Ba  Ba7       1.0  0.65300  0.67800  0.38200  1.0000
  Ba  Ba8       1.0  0.95600  0.71100  0.47900  1.0000
  Ba  Ba9       1.0  0.04450  0.28900  0.52100  1.0000
  Ba  Ba10      1.0  0.34700  0.32200  0.61800  1.0000
  Ba  Ba11      1.0  0.85400  0.06150  0.62900  1.0000
  Ba  Ba12      1.0  0.66900  0.33800  0.73400  1.0000
  Ba  Ba13      1.0  0.33100  0.83800  0.76600  1.0000
  Ba  Ba14      1.0  0.14600  0.56100  0.87100  1.0000
  Ba  Ba15      1.0  0.65300  0.82200  0.88200  1.0000
  Ba  Ba16      1.0  0.95600  0.78900  0.97900  1.0000
  Br  Br1       1.0  0.63600  0.49300  0.05370  1.0000
  Br  Br2       1.0  0.49300  0.86000  0.13400  1.0000
  Br  Br3       1.0  0.50700  0.36000  0.36600  1.0000
  Br  Br4       1.0  0.36400  0.99300  0.44600  1.0000
  Br  Br5       1.0  0.63600  0.00670  0.55400  1.0000
  Br  Br6       1.0  0.49300  0.64000  0.63400  1.0000
  Br  Br7       1.0  0.50700  0.14000  0.86600  1.0000
  Br  Br8       1.0  0.36400  0.50700  0.94600  1.0000
  Si  Si1       1.0  0.81500  0.06770  0.00745  1.0000
  Si  Si2       1.0  0.80200  0.86900  0.19800  1.0000
  Si  Si3       1.0  0.08780  0.56500  0.23900  1.0000
  Si  Si4       1.0  0.91200  0.06550  0.26100  1.0000
  Si  Si5       1.0  0.19800  0.36900  0.30200  1.0000
  Si  Si6       1.0  0.18500  0.56800  0.49300  1.0000
  Si  Si7       1.0  0.81500  0.43200  0.50700  1.0000
  Si  Si8       1.0  0.80200  0.63100  0.69800  1.0000
  Si  Si9       1.0  0.08780  0.93500  0.73900  1.0000
  Si  Si10      1.0  0.91200  0.43500  0.76100  1.0000
  Si  Si11      1.0  0.19800  0.13100  0.80200  1.0000
  Si  Si12      1.0  0.18500  0.93200  0.99300  1.0000
