data_image0
_chemical_formula_structural       Ag2Cs10O18Si6
_chemical_formula_sum              "Ag2 Cs10 O18 Si6"
_cell_length_a       6.48644
_cell_length_b       9.64905
_cell_length_c       11.6033
_cell_angle_alpha    93.9302
_cell_angle_beta     90
_cell_angle_gamma    90

_space_group_name_H-M_alt    "P 1"
_space_group_IT_number       1

loop_
  _space_group_symop_operation_xyz
  'x, y, z'

loop_
  _atom_site_type_symbol
  _atom_site_label
  _atom_site_symmetry_multiplicity
  _atom_site_fract_x
  _atom_site_fract_y
  _atom_site_fract_z
  _atom_site_occupancy
  Ag  Ag1       1.0  0.00000  0.00000  0.00000  1.0000
  Ag  Ag2       1.0  0.50000  0.00000  0.00000  1.0000
  Cs  Cs1       1.0  0.25000  0.66300  0.06230  1.0000
  Cs  Cs2       1.0  0.25000  0.26600  0.14500  1.0000
  Cs  Cs3       1.0  0.75000  0.22400  0.31000  1.0000
  Cs  Cs4       1.0  0.25000  0.95200  0.38400  1.0000
  Cs  Cs5       1.0  0.25000  0.53700  0.39500  1.0000
  Cs  Cs6       1.0  0.75000  0.46300  0.60500  1.0000
  Cs  Cs7       1.0  0.75000  0.04820  0.61600  1.0000
  Cs  Cs8       1.0  0.25000  0.77600  0.69000  1.0000
  Cs  Cs9       1.0  0.75000  0.73400  0.85500  1.0000
  Cs  Cs10      1.0  0.75000  0.33700  0.93800  1.0000
  O   O1        1.0  0.75000  0.71100  0.14500  1.0000
  O   O2        1.0  0.53800  0.95300  0.16900  1.0000
  O   O3        1.0  0.96200  0.95300  0.16900  1.0000
  O   O4        1.0  0.54100  0.47300  0.17100  1.0000
  O   O5        1.0  0.95900  0.47300  0.17100  1.0000
  O   O6        1.0  0.75000  0.87400  0.34500  1.0000
  O   O7        1.0  0.75000  0.59700  0.35000  1.0000
  O   O8        1.0  0.04030  0.24600  0.48800  1.0000
  O   O9        1.0  0.46000  0.24600  0.48800  1.0000
  O   O10       1.0  0.54000  0.75400  0.51200  1.0000
  O   O11       1.0  0.96000  0.75400  0.51200  1.0000
  O   O12       1.0  0.25000  0.40300  0.65000  1.0000
  O   O13       1.0  0.25000  0.12600  0.65500  1.0000
  O   O14       1.0  0.04070  0.52700  0.82900  1.0000
  O   O15       1.0  0.45900  0.52700  0.82900  1.0000
  O   O16       1.0  0.03770  0.04690  0.83100  1.0000
  O   O17       1.0  0.46200  0.04690  0.83100  1.0000
  O   O18       1.0  0.25000  0.28900  0.85500  1.0000
  Si  Si1       1.0  0.75000  0.87400  0.20300  1.0000
  Si  Si2       1.0  0.75000  0.55500  0.20700  1.0000
  Si  Si3       1.0  0.75000  0.74400  0.43800  1.0000
  Si  Si4       1.0  0.25000  0.25600  0.56200  1.0000
  Si  Si5       1.0  0.25000  0.44500  0.79300  1.0000
  Si  Si6       1.0  0.25000  0.12600  0.79700  1.0000
