data_image0
_chemical_formula_structural       Cl12N12S8W4
_chemical_formula_sum              "Cl12 N12 S8 W4"
_cell_length_a       7.49145
_cell_length_b       9.31263
_cell_length_c       10.8605
_cell_angle_alpha    90
_cell_angle_beta     94.3039
_cell_angle_gamma    90

_space_group_name_H-M_alt    "P 1"
_space_group_IT_number       1

loop_
  _space_group_symop_operation_xyz
  'x, y, z'

loop_
  _atom_site_type_symbol
  _atom_site_label
  _atom_site_symmetry_multiplicity
  _atom_site_fract_x
  _atom_site_fract_y
  _atom_site_fract_z
  _atom_site_occupancy
  Cl  Cl1       1.0  0.75800  0.28500  0.08450  1.0000
  Cl  Cl2       1.0  0.40500  0.60500  0.17800  1.0000
  Cl  Cl3       1.0  0.47500  0.01220  0.23400  1.0000
  Cl  Cl4       1.0  0.02500  0.51200  0.26600  1.0000
  Cl  Cl5       1.0  0.09550  0.10500  0.32200  1.0000
  Cl  Cl6       1.0  0.74200  0.78500  0.41600  1.0000
  Cl  Cl7       1.0  0.25800  0.21500  0.58400  1.0000
  Cl  Cl8       1.0  0.90500  0.89500  0.67800  1.0000
  Cl  Cl9       1.0  0.97500  0.48800  0.73400  1.0000
  Cl  Cl10      1.0  0.52500  0.98800  0.76600  1.0000
  Cl  Cl11      1.0  0.59500  0.39500  0.82200  1.0000
  Cl  Cl12      1.0  0.24200  0.71500  0.91600  1.0000
  N   N1        1.0  0.12200  0.40700  0.00659  1.0000
  N   N2        1.0  0.71800  0.84500  0.02860  1.0000
  N   N3        1.0  0.03270  0.80900  0.13600  1.0000
  N   N4        1.0  0.46700  0.30900  0.36400  1.0000
  N   N5        1.0  0.78200  0.34500  0.47100  1.0000
  N   N6        1.0  0.37800  0.90700  0.49300  1.0000
  N   N7        1.0  0.62200  0.09350  0.50700  1.0000
  N   N8        1.0  0.21800  0.65500  0.52900  1.0000
  N   N9        1.0  0.53300  0.69100  0.63600  1.0000
  N   N10       1.0  0.96700  0.19100  0.86400  1.0000
  N   N11       1.0  0.28200  0.15500  0.97100  1.0000
  N   N12       1.0  0.87800  0.59300  0.99300  1.0000
  S   S1        1.0  0.29500  0.30500  0.03560  1.0000
  S   S2        1.0  0.86900  0.92000  0.11900  1.0000
  S   S3        1.0  0.63100  0.42000  0.38100  1.0000
  S   S4        1.0  0.20500  0.80500  0.46400  1.0000
  S   S5        1.0  0.79500  0.19500  0.53600  1.0000
  S   S6        1.0  0.36900  0.58000  0.61900  1.0000
  S   S7        1.0  0.13100  0.07990  0.88100  1.0000
  S   S8        1.0  0.70500  0.69500  0.96400  1.0000
  W   W1        1.0  0.10300  0.63300  0.09020  1.0000
  W   W2        1.0  0.39700  0.13300  0.41000  1.0000
  W   W3        1.0  0.60300  0.86700  0.59000  1.0000
  W   W4        1.0  0.89700  0.36700  0.91000  1.0000
