data_image0
_chemical_formula_structural       Ge16Ho20
_chemical_formula_sum              "Ge16 Ho20"
_cell_length_a       7.61214
_cell_length_b       14.633
_cell_length_c       7.68444
_cell_angle_alpha    90
_cell_angle_beta     90
_cell_angle_gamma    90

_space_group_name_H-M_alt    "P 1"
_space_group_IT_number       1

loop_
  _space_group_symop_operation_xyz
  'x, y, z'

loop_
  _atom_site_type_symbol
  _atom_site_label
  _atom_site_symmetry_multiplicity
  _atom_site_fract_x
  _atom_site_fract_y
  _atom_site_fract_z
  _atom_site_occupancy
  Ge  Ge1       1.0  0.71900  0.54400  0.03240  1.0000
  Ge  Ge2       1.0  0.71900  0.95600  0.03240  1.0000
  Ge  Ge3       1.0  0.08090  0.75000  0.11700  1.0000
  Ge  Ge4       1.0  0.66700  0.25000  0.13800  1.0000
  Ge  Ge5       1.0  0.16700  0.25000  0.36200  1.0000
  Ge  Ge6       1.0  0.58100  0.75000  0.38300  1.0000
  Ge  Ge7       1.0  0.21900  0.54400  0.46800  1.0000
  Ge  Ge8       1.0  0.21900  0.95600  0.46800  1.0000
  Ge  Ge9       1.0  0.78100  0.04410  0.53200  1.0000
  Ge  Ge10      1.0  0.78100  0.45600  0.53200  1.0000
  Ge  Ge11      1.0  0.41900  0.25000  0.61700  1.0000
  Ge  Ge12      1.0  0.83300  0.75000  0.63800  1.0000
  Ge  Ge13      1.0  0.33300  0.75000  0.86200  1.0000
  Ge  Ge14      1.0  0.91900  0.25000  0.88300  1.0000
  Ge  Ge15      1.0  0.28100  0.04410  0.96800  1.0000
  Ge  Ge16      1.0  0.28100  0.45600  0.96800  1.0000
  Ho  Ho1       1.0  0.71300  0.75000  0.00154  1.0000
  Ho  Ho2       1.0  0.37800  0.61700  0.16100  1.0000
  Ho  Ho3       1.0  0.37800  0.88300  0.16100  1.0000
  Ho  Ho4       1.0  0.97300  0.10100  0.17800  1.0000
  Ho  Ho5       1.0  0.97300  0.39900  0.17800  1.0000
  Ho  Ho6       1.0  0.47300  0.10100  0.32200  1.0000
  Ho  Ho7       1.0  0.47300  0.39900  0.32200  1.0000
  Ho  Ho8       1.0  0.87800  0.61700  0.33900  1.0000
  Ho  Ho9       1.0  0.87800  0.88300  0.33900  1.0000
  Ho  Ho10      1.0  0.21300  0.75000  0.49800  1.0000
  Ho  Ho11      1.0  0.78700  0.25000  0.50200  1.0000
  Ho  Ho12      1.0  0.12200  0.11700  0.66100  1.0000
  Ho  Ho13      1.0  0.12200  0.38300  0.66100  1.0000
  Ho  Ho14      1.0  0.52700  0.60100  0.67800  1.0000
  Ho  Ho15      1.0  0.52700  0.89900  0.67800  1.0000
  Ho  Ho16      1.0  0.02720  0.60100  0.82200  1.0000
  Ho  Ho17      1.0  0.02720  0.89900  0.82200  1.0000
  Ho  Ho18      1.0  0.62200  0.11700  0.83900  1.0000
  Ho  Ho19      1.0  0.62200  0.38300  0.83900  1.0000
  Ho  Ho20      1.0  0.28700  0.25000  0.99800  1.0000
