data_image0
_chemical_formula_structural       N8Pr16Te12
_chemical_formula_sum              "N8 Pr16 Te12"
_cell_length_a       7.4436
_cell_length_b       11.8031
_cell_length_c       11.4687
_cell_angle_alpha    90
_cell_angle_beta     90
_cell_angle_gamma    90

_space_group_name_H-M_alt    "P 1"
_space_group_IT_number       1

loop_
  _space_group_symop_operation_xyz
  'x, y, z'

loop_
  _atom_site_type_symbol
  _atom_site_label
  _atom_site_symmetry_multiplicity
  _atom_site_fract_x
  _atom_site_fract_y
  _atom_site_fract_z
  _atom_site_occupancy
  N   N1        1.0  0.55300  0.62200  0.03340  1.0000
  N   N2        1.0  0.55300  0.87800  0.03340  1.0000
  N   N3        1.0  0.05300  0.62200  0.46700  1.0000
  N   N4        1.0  0.05300  0.87800  0.46700  1.0000
  N   N5        1.0  0.94700  0.12200  0.53300  1.0000
  N   N6        1.0  0.94700  0.37800  0.53300  1.0000
  N   N7        1.0  0.44700  0.12200  0.96700  1.0000
  N   N8        1.0  0.44700  0.37800  0.96700  1.0000
  Pr  Pr1       1.0  0.22800  0.25000  0.03060  1.0000
  Pr  Pr2       1.0  0.64700  0.05020  0.11000  1.0000
  Pr  Pr3       1.0  0.64700  0.45000  0.11000  1.0000
  Pr  Pr4       1.0  0.40900  0.75000  0.16100  1.0000
  Pr  Pr5       1.0  0.90900  0.75000  0.33900  1.0000
  Pr  Pr6       1.0  0.14700  0.05020  0.39000  1.0000
  Pr  Pr7       1.0  0.14700  0.45000  0.39000  1.0000
  Pr  Pr8       1.0  0.72800  0.25000  0.46900  1.0000
  Pr  Pr9       1.0  0.27200  0.75000  0.53100  1.0000
  Pr  Pr10      1.0  0.85300  0.55000  0.61000  1.0000
  Pr  Pr11      1.0  0.85300  0.95000  0.61000  1.0000
  Pr  Pr12      1.0  0.09120  0.25000  0.66100  1.0000
  Pr  Pr13      1.0  0.59100  0.25000  0.83900  1.0000
  Pr  Pr14      1.0  0.35300  0.55000  0.89000  1.0000
  Pr  Pr15      1.0  0.35300  0.95000  0.89000  1.0000
  Pr  Pr16      1.0  0.77200  0.75000  0.96900  1.0000
  Te  Te1       1.0  0.06610  0.57900  0.13500  1.0000
  Te  Te2       1.0  0.06610  0.92100  0.13500  1.0000
  Te  Te3       1.0  0.91900  0.25000  0.22700  1.0000
  Te  Te4       1.0  0.41900  0.25000  0.27300  1.0000
  Te  Te5       1.0  0.56600  0.57900  0.36500  1.0000
  Te  Te6       1.0  0.56600  0.92100  0.36500  1.0000
  Te  Te7       1.0  0.43400  0.07850  0.63500  1.0000
  Te  Te8       1.0  0.43400  0.42100  0.63500  1.0000
  Te  Te9       1.0  0.58100  0.75000  0.72700  1.0000
  Te  Te10      1.0  0.08050  0.75000  0.77300  1.0000
  Te  Te11      1.0  0.93400  0.07850  0.86500  1.0000
  Te  Te12      1.0  0.93400  0.42100  0.86500  1.0000
