data_image0
_chemical_formula_structural       As12K20Sn4
_chemical_formula_sum              "As12 K20 Sn4"
_cell_length_a       15.3663
_cell_length_b       8.39363
_cell_length_c       9.36133
_cell_angle_alpha    90
_cell_angle_beta     89.9837
_cell_angle_gamma    90

_space_group_name_H-M_alt    "P 1"
_space_group_IT_number       1

loop_
  _space_group_symop_operation_xyz
  'x, y, z'

loop_
  _atom_site_type_symbol
  _atom_site_label
  _atom_site_symmetry_multiplicity
  _atom_site_fract_x
  _atom_site_fract_y
  _atom_site_fract_z
  _atom_site_occupancy
  As  As1       1.0  0.72500  0.27200  0.07650  1.0000
  As  As2       1.0  0.43600  0.31300  0.07930  1.0000
  As  As3       1.0  0.07980  0.25800  0.15900  1.0000
  As  As4       1.0  0.42000  0.75800  0.34100  1.0000
  As  As5       1.0  0.06450  0.81300  0.42100  1.0000
  As  As6       1.0  0.77500  0.77200  0.42400  1.0000
  As  As7       1.0  0.22500  0.22800  0.57600  1.0000
  As  As8       1.0  0.93600  0.18700  0.57900  1.0000
  As  As9       1.0  0.58000  0.24200  0.65900  1.0000
  As  As10      1.0  0.92000  0.74200  0.84100  1.0000
  As  As11      1.0  0.56400  0.68700  0.92100  1.0000
  As  As12      1.0  0.27500  0.72800  0.92400  1.0000
  K   K1        1.0  0.75900  0.66300  0.07730  1.0000
  K   K2        1.0  0.07930  0.67500  0.07960  1.0000
  K   K3        1.0  0.57600  0.98200  0.16000  1.0000
  K   K4        1.0  0.25800  0.98800  0.19200  1.0000
  K   K5        1.0  0.91100  0.99500  0.19400  1.0000
  K   K6        1.0  0.58900  0.49500  0.30600  1.0000
  K   K7        1.0  0.24200  0.48800  0.30800  1.0000
  K   K8        1.0  0.92400  0.48200  0.34000  1.0000
  K   K9        1.0  0.42100  0.17500  0.42000  1.0000
  K   K10       1.0  0.74100  0.16300  0.42300  1.0000
  K   K11       1.0  0.25900  0.83700  0.57700  1.0000
  K   K12       1.0  0.57900  0.82500  0.58000  1.0000
  K   K13       1.0  0.07640  0.51800  0.66000  1.0000
  K   K14       1.0  0.75800  0.51200  0.69200  1.0000
  K   K15       1.0  0.41100  0.50500  0.69400  1.0000
  K   K16       1.0  0.08870  0.00469  0.80600  1.0000
  K   K17       1.0  0.74200  0.01170  0.80800  1.0000
  K   K18       1.0  0.42400  0.01790  0.84000  1.0000
  K   K19       1.0  0.92100  0.32500  0.92000  1.0000
  K   K20       1.0  0.24100  0.33700  0.92300  1.0000
  Sn  Sn1       1.0  0.41400  0.64000  0.07470  1.0000
  Sn  Sn2       1.0  0.08610  0.14000  0.42500  1.0000
  Sn  Sn3       1.0  0.91400  0.86000  0.57500  1.0000
  Sn  Sn4       1.0  0.58600  0.36000  0.92500  1.0000
