data_image0
_chemical_formula_structural       Al8N8O12Si4Sr4
_chemical_formula_sum              "Al8 N8 O12 Si4 Sr4"
_cell_length_a       4.92247
_cell_length_b       8.04137
_cell_length_c       11.3006
_cell_angle_alpha    90
_cell_angle_beta     90
_cell_angle_gamma    90

_space_group_name_H-M_alt    "P 1"
_space_group_IT_number       1

loop_
  _space_group_symop_operation_xyz
  'x, y, z'

loop_
  _atom_site_type_symbol
  _atom_site_label
  _atom_site_symmetry_multiplicity
  _atom_site_fract_x
  _atom_site_fract_y
  _atom_site_fract_z
  _atom_site_occupancy
  Al  Al1       1.0  0.51600  0.47100  0.04340  1.0000
  Al  Al2       1.0  0.00520  0.33800  0.16300  1.0000
  Al  Al3       1.0  0.99500  0.83800  0.33700  1.0000
  Al  Al4       1.0  0.48400  0.97100  0.45700  1.0000
  Al  Al5       1.0  0.98400  0.52900  0.54300  1.0000
  Al  Al6       1.0  0.49500  0.66200  0.66300  1.0000
  Al  Al7       1.0  0.50500  0.16200  0.83700  1.0000
  Al  Al8       1.0  0.01620  0.02920  0.95700  1.0000
  N   N1        1.0  0.21400  0.84500  0.00925  1.0000
  N   N2        1.0  0.17200  0.52100  0.09740  1.0000
  N   N3        1.0  0.82800  0.02080  0.40300  1.0000
  N   N4        1.0  0.78600  0.34500  0.49100  1.0000
  N   N5        1.0  0.28600  0.15500  0.50900  1.0000
  N   N6        1.0  0.32800  0.47900  0.59700  1.0000
  N   N7        1.0  0.67200  0.97900  0.90300  1.0000
  N   N8        1.0  0.71400  0.65500  0.99100  1.0000
  O   O1        1.0  0.04750  0.15400  0.08310  1.0000
  O   O2        1.0  0.65100  0.36800  0.17000  1.0000
  O   O3        1.0  0.86600  0.79300  0.19500  1.0000
  O   O4        1.0  0.13400  0.29300  0.30500  1.0000
  O   O5        1.0  0.34900  0.86800  0.33000  1.0000
  O   O6        1.0  0.95200  0.65400  0.41700  1.0000
  O   O7        1.0  0.45200  0.84600  0.58300  1.0000
  O   O8        1.0  0.84900  0.63200  0.67000  1.0000
  O   O9        1.0  0.63400  0.20700  0.69500  1.0000
  O   O10       1.0  0.36600  0.70700  0.80500  1.0000
  O   O11       1.0  0.15100  0.13200  0.83000  1.0000
  O   O12       1.0  0.54800  0.34600  0.91700  1.0000
  Si  Si1       1.0  0.99800  0.70300  0.07490  1.0000
  Si  Si2       1.0  0.00192  0.20300  0.42500  1.0000
  Si  Si3       1.0  0.50200  0.29700  0.57500  1.0000
  Si  Si4       1.0  0.49800  0.79700  0.92500  1.0000
  Sr  Sr1       1.0  0.51700  0.04460  0.16400  1.0000
  Sr  Sr2       1.0  0.48300  0.54500  0.33600  1.0000
  Sr  Sr3       1.0  0.98300  0.95500  0.66400  1.0000
  Sr  Sr4       1.0  0.01720  0.45500  0.83600  1.0000
