data_image0
_chemical_formula_structural       K2O22V12
_chemical_formula_sum              "K2 O22 V12"
_cell_length_a       5.86935
_cell_length_b       5.80542
_cell_length_c       13.2042
_cell_angle_alpha    90
_cell_angle_beta     90
_cell_angle_gamma    120.365

_space_group_name_H-M_alt    "P 1"
_space_group_IT_number       1

loop_
  _space_group_symop_operation_xyz
  'x, y, z'

loop_
  _atom_site_type_symbol
  _atom_site_label
  _atom_site_symmetry_multiplicity
  _atom_site_fract_x
  _atom_site_fract_y
  _atom_site_fract_z
  _atom_site_occupancy
  K   K1        1.0  0.33300  0.66700  0.25000  1.0000
  K   K2        1.0  0.66700  0.33300  0.75000  1.0000
  O   O1        1.0  0.16600  0.81700  0.07720  1.0000
  O   O2        1.0  0.65100  0.81700  0.07720  1.0000
  O   O3        1.0  0.17300  0.34600  0.07790  1.0000
  O   O4        1.0  0.67300  0.34600  0.08900  1.0000
  O   O5        1.0  0.31300  0.16100  0.25000  1.0000
  O   O6        1.0  0.84800  0.16100  0.25000  1.0000
  O   O7        1.0  0.85300  0.70600  0.25000  1.0000
  O   O8        1.0  0.67300  0.34600  0.41100  1.0000
  O   O9        1.0  0.17300  0.34600  0.42200  1.0000
  O   O10       1.0  0.16600  0.81700  0.42300  1.0000
  O   O11       1.0  0.65100  0.81700  0.42300  1.0000
  O   O12       1.0  0.34900  0.18300  0.57700  1.0000
  O   O13       1.0  0.83400  0.18300  0.57700  1.0000
  O   O14       1.0  0.82700  0.65400  0.57800  1.0000
  O   O15       1.0  0.32700  0.65400  0.58900  1.0000
  O   O16       1.0  0.14700  0.29400  0.75000  1.0000
  O   O17       1.0  0.15200  0.83900  0.75000  1.0000
  O   O18       1.0  0.68700  0.83900  0.75000  1.0000
  O   O19       1.0  0.32700  0.65400  0.91100  1.0000
  O   O20       1.0  0.82700  0.65400  0.92200  1.0000
  O   O21       1.0  0.34900  0.18300  0.92300  1.0000
  O   O22       1.0  0.83400  0.18300  0.92300  1.0000
  V   V1        1.0  0.50000  0.00000  0.00000  1.0000
  V   V2        1.0  0.00000  0.50000  0.00000  1.0000
  V   V3        1.0  0.50000  0.50000  0.00000  1.0000
  V   V4        1.0  0.00030  0.00060  0.14500  1.0000
  V   V5        1.0  0.66600  0.33300  0.25000  1.0000
  V   V6        1.0  0.00030  0.00060  0.35500  1.0000
  V   V7        1.0  0.50000  0.00000  0.50000  1.0000
  V   V8        1.0  0.00000  0.50000  0.50000  1.0000
  V   V9        1.0  0.50000  0.50000  0.50000  1.0000
  V   V10       1.0  0.00000  0.99900  0.64500  1.0000
  V   V11       1.0  0.33400  0.66700  0.75000  1.0000
  V   V12       1.0  0.00000  0.99900  0.85500  1.0000
