data_image0
_chemical_formula_structural       Na2O22V12
_chemical_formula_sum              "Na2 O22 V12"
_cell_length_a       5.74416
_cell_length_b       5.83396
_cell_length_c       13.0637
_cell_angle_alpha    90
_cell_angle_beta     90
_cell_angle_gamma    119.492

_space_group_name_H-M_alt    "P 1"
_space_group_IT_number       1

loop_
  _space_group_symop_operation_xyz
  'x, y, z'

loop_
  _atom_site_type_symbol
  _atom_site_label
  _atom_site_symmetry_multiplicity
  _atom_site_fract_x
  _atom_site_fract_y
  _atom_site_fract_z
  _atom_site_occupancy
  Na  Na1       1.0  0.34100  0.68100  0.25200  1.0000
  Na  Na2       1.0  0.65900  0.31900  0.75200  1.0000
  O   O1        1.0  0.18000  0.82800  0.07880  1.0000
  O   O2        1.0  0.64800  0.82800  0.07880  1.0000
  O   O3        1.0  0.17500  0.35100  0.08480  1.0000
  O   O4        1.0  0.66500  0.33000  0.08830  1.0000
  O   O5        1.0  0.30300  0.14000  0.25100  1.0000
  O   O6        1.0  0.83700  0.14000  0.25100  1.0000
  O   O7        1.0  0.84300  0.68600  0.25100  1.0000
  O   O8        1.0  0.65900  0.31900  0.40900  1.0000
  O   O9        1.0  0.18100  0.36200  0.42000  1.0000
  O   O10       1.0  0.17100  0.83000  0.42400  1.0000
  O   O11       1.0  0.65800  0.83000  0.42400  1.0000
  O   O12       1.0  0.35200  0.17200  0.57900  1.0000
  O   O13       1.0  0.82000  0.17200  0.57900  1.0000
  O   O14       1.0  0.82500  0.64900  0.58500  1.0000
  O   O15       1.0  0.33500  0.67000  0.58800  1.0000
  O   O16       1.0  0.16300  0.86000  0.75100  1.0000
  O   O17       1.0  0.69700  0.86000  0.75100  1.0000
  O   O18       1.0  0.15700  0.31400  0.75100  1.0000
  O   O19       1.0  0.34100  0.68100  0.90900  1.0000
  O   O20       1.0  0.81900  0.63800  0.92000  1.0000
  O   O21       1.0  0.34200  0.17000  0.92400  1.0000
  O   O22       1.0  0.82900  0.17000  0.92400  1.0000
  V   V1        1.0  0.50400  0.00781  0.00000  1.0000
  V   V2        1.0  0.99900  0.99800  0.14600  1.0000
  V   V3        1.0  0.66900  0.33800  0.24800  1.0000
  V   V4        1.0  0.00322  0.00644  0.35300  1.0000
  V   V5        1.0  0.50700  0.49600  0.50000  1.0000
  V   V6        1.0  0.98900  0.49600  0.50000  1.0000
  V   V7        1.0  0.49600  0.99200  0.50000  1.0000
  V   V8        1.0  0.00082  0.00163  0.64600  1.0000
  V   V9        1.0  0.33100  0.66200  0.74800  1.0000
  V   V10       1.0  0.99700  0.99400  0.85300  1.0000
  V   V11       1.0  0.01070  0.50400  0.00000  1.0000
  V   V12       1.0  0.49300  0.50400  0.00000  1.0000
