data_image0
_chemical_formula_structural       Ag9Co6O18Sb3
_chemical_formula_sum              "Ag9 Co6 O18 Sb3"
_cell_length_a       5.36755
_cell_length_b       5.36755
_cell_length_c       18.8723
_cell_angle_alpha    90
_cell_angle_beta     90
_cell_angle_gamma    120

_space_group_name_H-M_alt    "P 1"
_space_group_IT_number       1

loop_
  _space_group_symop_operation_xyz
  'x, y, z'

loop_
  _atom_site_type_symbol
  _atom_site_label
  _atom_site_symmetry_multiplicity
  _atom_site_fract_x
  _atom_site_fract_y
  _atom_site_fract_z
  _atom_site_occupancy
  Ag  Ag1       1.0  0.45000  0.90000  0.16700  1.0000
  Ag  Ag2       1.0  0.11300  0.22600  0.16700  1.0000
  Ag  Ag3       1.0  0.77700  0.55400  0.16700  1.0000
  Ag  Ag4       1.0  0.09970  0.55000  0.50000  1.0000
  Ag  Ag5       1.0  0.77400  0.88700  0.50000  1.0000
  Ag  Ag6       1.0  0.44600  0.22300  0.50000  1.0000
  Ag  Ag7       1.0  0.45000  0.55000  0.83300  1.0000
  Ag  Ag8       1.0  0.11300  0.88700  0.83300  1.0000
  Ag  Ag9       1.0  0.77700  0.22300  0.83300  1.0000
  Co  Co1       1.0  0.11600  0.55800  0.00000  1.0000
  Co  Co2       1.0  0.78500  0.89300  0.00000  1.0000
  Co  Co3       1.0  0.10700  0.89300  0.33300  1.0000
  Co  Co4       1.0  0.44200  0.55800  0.33300  1.0000
  Co  Co5       1.0  0.10700  0.21500  0.66700  1.0000
  Co  Co6       1.0  0.44200  0.88400  0.66700  1.0000
  O   O1        1.0  0.77400  0.54800  0.05530  1.0000
  O   O2        1.0  0.13400  0.23000  0.05540  1.0000
  O   O3        1.0  0.45200  0.90500  0.05550  1.0000
  O   O4        1.0  0.45400  0.90500  0.27800  1.0000
  O   O5        1.0  0.09620  0.23000  0.27800  1.0000
  O   O6        1.0  0.77400  0.54800  0.27800  1.0000
  O   O7        1.0  0.45200  0.22600  0.38900  1.0000
  O   O8        1.0  0.77000  0.90400  0.38900  1.0000
  O   O9        1.0  0.09460  0.54600  0.38900  1.0000
  O   O10       1.0  0.09460  0.54800  0.61100  1.0000
  O   O11       1.0  0.77000  0.86700  0.61100  1.0000
  O   O12       1.0  0.45200  0.22600  0.61100  1.0000
  O   O13       1.0  0.77400  0.22600  0.72200  1.0000
  O   O14       1.0  0.09620  0.86600  0.72200  1.0000
  O   O15       1.0  0.45400  0.54800  0.72200  1.0000
  O   O16       1.0  0.45200  0.54600  0.94400  1.0000
  O   O17       1.0  0.13300  0.90400  0.94500  1.0000
  O   O18       1.0  0.77400  0.22600  0.94500  1.0000
  Sb  Sb1       1.0  0.45300  0.22600  0.00000  1.0000
  Sb  Sb2       1.0  0.77400  0.22600  0.33300  1.0000
  Sb  Sb3       1.0  0.77400  0.54700  0.66700  1.0000
