data_image0
_chemical_formula_structural       Ba5Mg18Si13
_chemical_formula_sum              "Ba5 Mg18 Si13"
_cell_length_a       14.5431
_cell_length_b       14.5431
_cell_length_c       4.4965
_cell_angle_alpha    90
_cell_angle_beta     90
_cell_angle_gamma    120

_space_group_name_H-M_alt    "P 1"
_space_group_IT_number       1

loop_
  _space_group_symop_operation_xyz
  'x, y, z'

loop_
  _atom_site_type_symbol
  _atom_site_label
  _atom_site_symmetry_multiplicity
  _atom_site_fract_x
  _atom_site_fract_y
  _atom_site_fract_z
  _atom_site_occupancy
  Ba  Ba1       1.0  0.66700  0.33300  0.00000  1.0000
  Ba  Ba2       1.0  0.33300  0.66700  0.00000  1.0000
  Ba  Ba3       1.0  0.82000  0.00000  0.50000  1.0000
  Ba  Ba4       1.0  0.18000  0.18000  0.50000  1.0000
  Ba  Ba5       1.0  0.00000  0.82000  0.50000  1.0000
  Mg  Mg1       1.0  0.44200  0.00000  0.00000  1.0000
  Mg  Mg2       1.0  0.37300  0.17700  0.00000  1.0000
  Mg  Mg3       1.0  0.82300  0.19600  0.00000  1.0000
  Mg  Mg4       1.0  0.17700  0.37300  0.00000  1.0000
  Mg  Mg5       1.0  0.00000  0.44200  0.00000  1.0000
  Mg  Mg6       1.0  0.55800  0.55800  0.00000  1.0000
  Mg  Mg7       1.0  0.80400  0.62700  0.00000  1.0000
  Mg  Mg8       1.0  0.62700  0.80400  0.00000  1.0000
  Mg  Mg9       1.0  0.19600  0.82300  0.00000  1.0000
  Mg  Mg10      1.0  0.27800  0.00000  0.50000  1.0000
  Mg  Mg11      1.0  0.63900  0.12200  0.50000  1.0000
  Mg  Mg12      1.0  0.00000  0.27800  0.50000  1.0000
  Mg  Mg13      1.0  0.48300  0.36100  0.50000  1.0000
  Mg  Mg14      1.0  0.36100  0.48300  0.50000  1.0000
  Mg  Mg15      1.0  0.87800  0.51700  0.50000  1.0000
  Mg  Mg16      1.0  0.12200  0.63900  0.50000  1.0000
  Mg  Mg17      1.0  0.72200  0.72200  0.50000  1.0000
  Mg  Mg18      1.0  0.51700  0.87800  0.50000  1.0000
  Si  Si1       1.0  0.00000  0.00000  0.00000  1.0000
  Si  Si2       1.0  0.16600  0.00000  0.00000  1.0000
  Si  Si3       1.0  0.63000  0.00000  0.00000  1.0000
  Si  Si4       1.0  0.00000  0.16600  0.00000  1.0000
  Si  Si5       1.0  0.37000  0.37000  0.00000  1.0000
  Si  Si6       1.0  0.00000  0.63000  0.00000  1.0000
  Si  Si7       1.0  0.83400  0.83400  0.00000  1.0000
  Si  Si8       1.0  0.47500  0.16600  0.50000  1.0000
  Si  Si9       1.0  0.83400  0.30900  0.50000  1.0000
  Si  Si10      1.0  0.16600  0.47500  0.50000  1.0000
  Si  Si11      1.0  0.69100  0.52500  0.50000  1.0000
  Si  Si12      1.0  0.52500  0.69100  0.50000  1.0000
  Si  Si13      1.0  0.30900  0.83400  0.50000  1.0000
