data_image0
_chemical_formula_structural       Ag8Bi8Cl8S12
_chemical_formula_sum              "Ag8 Bi8 Cl8 S12"
_cell_length_a       11.0873
_cell_length_b       7.27989
_cell_length_c       11.4094
_cell_angle_alpha    89.7403
_cell_angle_beta     74.8798
_cell_angle_gamma    88.0522

_space_group_name_H-M_alt    "P 1"
_space_group_IT_number       1

loop_
  _space_group_symop_operation_xyz
  'x, y, z'

loop_
  _atom_site_type_symbol
  _atom_site_label
  _atom_site_symmetry_multiplicity
  _atom_site_fract_x
  _atom_site_fract_y
  _atom_site_fract_z
  _atom_site_occupancy
  Ag  Ag1       1.0  0.49500  0.74400  0.14700  1.0000
  Ag  Ag2       1.0  0.68800  0.98400  0.20600  1.0000
  Ag  Ag3       1.0  0.29300  0.51200  0.30000  1.0000
  Ag  Ag4       1.0  0.49400  0.25500  0.35200  1.0000
  Ag  Ag5       1.0  0.50600  0.74500  0.64800  1.0000
  Ag  Ag6       1.0  0.70700  0.48800  0.70000  1.0000
  Ag  Ag7       1.0  0.31200  0.01550  0.79400  1.0000
  Ag  Ag8       1.0  0.50500  0.25600  0.85300  1.0000
  Bi  Bi1       1.0  0.79600  0.38600  0.01440  1.0000
  Bi  Bi2       1.0  0.20100  0.11200  0.15800  1.0000
  Bi  Bi3       1.0  0.80100  0.57500  0.34000  1.0000
  Bi  Bi4       1.0  0.20000  0.92400  0.48800  1.0000
  Bi  Bi5       1.0  0.80000  0.07610  0.51200  1.0000
  Bi  Bi6       1.0  0.19900  0.42500  0.66000  1.0000
  Bi  Bi7       1.0  0.79900  0.88800  0.84200  1.0000
  Bi  Bi8       1.0  0.20400  0.61400  0.98600  1.0000
  Cl  Cl1       1.0  0.89900  0.73700  0.06100  1.0000
  Cl  Cl2       1.0  0.89500  0.21100  0.23600  1.0000
  Cl  Cl3       1.0  0.09500  0.76300  0.26300  1.0000
  Cl  Cl4       1.0  0.09250  0.27900  0.43200  1.0000
  Cl  Cl5       1.0  0.90700  0.72100  0.56800  1.0000
  Cl  Cl6       1.0  0.90500  0.23700  0.73700  1.0000
  Cl  Cl7       1.0  0.10500  0.78900  0.76400  1.0000
  Cl  Cl8       1.0  0.10100  0.26300  0.93900  1.0000
  S   S1        1.0  0.65200  0.09690  0.01360  1.0000
  S   S2        1.0  0.34700  0.40400  0.08790  1.0000
  S   S3        1.0  0.63200  0.49400  0.22100  1.0000
  S   S4        1.0  0.36600  0.00611  0.28200  1.0000
  S   S5        1.0  0.65500  0.87600  0.41600  1.0000
  S   S6        1.0  0.34300  0.61700  0.48600  1.0000
  S   S7        1.0  0.65700  0.38300  0.51400  1.0000
  S   S8        1.0  0.34500  0.12400  0.58400  1.0000
  S   S9        1.0  0.63400  0.99400  0.71800  1.0000
  S   S10       1.0  0.36800  0.50600  0.77900  1.0000
  S   S11       1.0  0.65300  0.59600  0.91200  1.0000
  S   S12       1.0  0.34800  0.90300  0.98600  1.0000
