data_image0
_chemical_formula_structural       Cl24Cs8Sb4
_chemical_formula_sum              "Cl24 Cs8 Sb4"
_cell_length_a       10.5946
_cell_length_b       10.5946
_cell_length_c       12.8737
_cell_angle_alpha    114.298
_cell_angle_beta     114.298
_cell_angle_gamma    90

_space_group_name_H-M_alt    "P 1"
_space_group_IT_number       1

loop_
  _space_group_symop_operation_xyz
  'x, y, z'

loop_
  _atom_site_type_symbol
  _atom_site_label
  _atom_site_symmetry_multiplicity
  _atom_site_fract_x
  _atom_site_fract_y
  _atom_site_fract_z
  _atom_site_occupancy
  Cl  Cl1       1.0  0.00200  0.75200  0.00401  1.0000
  Cl  Cl2       1.0  0.50500  0.25500  0.01070  1.0000
  Cl  Cl3       1.0  0.36700  0.87400  0.24700  1.0000
  Cl  Cl4       1.0  0.88000  0.87400  0.24700  1.0000
  Cl  Cl5       1.0  0.62400  0.13700  0.24800  1.0000
  Cl  Cl6       1.0  0.62400  0.61100  0.24800  1.0000
  Cl  Cl7       1.0  0.38900  0.37600  0.25200  1.0000
  Cl  Cl8       1.0  0.86300  0.37600  0.25200  1.0000
  Cl  Cl9       1.0  0.12600  0.12000  0.25300  1.0000
  Cl  Cl10      1.0  0.12600  0.63300  0.25300  1.0000
  Cl  Cl11      1.0  0.74500  0.49500  0.48900  1.0000
  Cl  Cl12      1.0  0.24800  0.99800  0.49600  1.0000
  Cl  Cl13      1.0  0.75200  0.00200  0.50400  1.0000
  Cl  Cl14      1.0  0.25500  0.50500  0.51100  1.0000
  Cl  Cl15      1.0  0.87400  0.36700  0.74700  1.0000
  Cl  Cl16      1.0  0.87400  0.88000  0.74700  1.0000
  Cl  Cl17      1.0  0.13700  0.62400  0.74800  1.0000
  Cl  Cl18      1.0  0.61100  0.62400  0.74800  1.0000
  Cl  Cl19      1.0  0.37600  0.38900  0.75200  1.0000
  Cl  Cl20      1.0  0.37600  0.86300  0.75200  1.0000
  Cl  Cl21      1.0  0.12000  0.12600  0.75300  1.0000
  Cl  Cl22      1.0  0.63300  0.12600  0.75300  1.0000
  Cl  Cl23      1.0  0.49500  0.74500  0.98900  1.0000
  Cl  Cl24      1.0  0.99800  0.24800  0.99600  1.0000
  Cs  Cs1       1.0  0.24200  0.00000  0.00000  1.0000
  Cs  Cs2       1.0  0.75800  0.00000  0.00000  1.0000
  Cs  Cs3       1.0  0.24200  0.50000  0.00000  1.0000
  Cs  Cs4       1.0  0.75800  0.50000  0.00000  1.0000
  Cs  Cs5       1.0  0.00000  0.24200  0.50000  1.0000
  Cs  Cs6       1.0  0.50000  0.24200  0.50000  1.0000
  Cs  Cs7       1.0  0.00000  0.75800  0.50000  1.0000
  Cs  Cs8       1.0  0.50000  0.75800  0.50000  1.0000
  Sb  Sb1       1.0  0.62500  0.37500  0.25000  1.0000
  Sb  Sb2       1.0  0.12500  0.87500  0.25000  1.0000
  Sb  Sb3       1.0  0.87500  0.12500  0.75000  1.0000
  Sb  Sb4       1.0  0.37500  0.62500  0.75000  1.0000
