data_image0
_chemical_formula_structural       Cs4Mo4O24P4
_chemical_formula_sum              "Cs4 Mo4 O24 P4"
_cell_length_a       8.31824
_cell_length_b       8.31824
_cell_length_c       9.70288
_cell_angle_alpha    111.52
_cell_angle_beta     111.52
_cell_angle_gamma    98.2929

_space_group_name_H-M_alt    "P 1"
_space_group_IT_number       1

loop_
  _space_group_symop_operation_xyz
  'x, y, z'

loop_
  _atom_site_type_symbol
  _atom_site_label
  _atom_site_symmetry_multiplicity
  _atom_site_fract_x
  _atom_site_fract_y
  _atom_site_fract_z
  _atom_site_occupancy
  Cs  Cs1       1.0  0.56200  0.31200  0.25000  1.0000
  Cs  Cs2       1.0  0.18800  0.93800  0.25000  1.0000
  Cs  Cs3       1.0  0.81200  0.06210  0.75000  1.0000
  Cs  Cs4       1.0  0.43800  0.68800  0.75000  1.0000
  Mo  Mo1       1.0  0.09390  0.40600  0.25000  1.0000
  Mo  Mo2       1.0  0.65600  0.84400  0.25000  1.0000
  Mo  Mo3       1.0  0.34400  0.15600  0.75000  1.0000
  Mo  Mo4       1.0  0.90600  0.59400  0.75000  1.0000
  O   O1        1.0  0.81700  0.39600  0.09360  1.0000
  O   O2        1.0  0.77700  0.69700  0.09360  1.0000
  O   O3        1.0  0.04970  0.18600  0.10800  1.0000
  O   O4        1.0  0.55800  0.92200  0.10800  1.0000
  O   O5        1.0  0.16500  0.52700  0.12800  1.0000
  O   O6        1.0  0.46400  0.60100  0.12800  1.0000
  O   O7        1.0  0.89900  0.03630  0.37200  1.0000
  O   O8        1.0  0.97300  0.33500  0.37200  1.0000
  O   O9        1.0  0.31400  0.45000  0.39200  1.0000
  O   O10       1.0  0.57800  0.94200  0.39200  1.0000
  O   O11       1.0  0.10400  0.68300  0.40600  1.0000
  O   O12       1.0  0.80300  0.72300  0.40600  1.0000
  O   O13       1.0  0.19700  0.27700  0.59400  1.0000
  O   O14       1.0  0.89600  0.31700  0.59400  1.0000
  O   O15       1.0  0.42200  0.05780  0.60800  1.0000
  O   O16       1.0  0.68600  0.55000  0.60800  1.0000
  O   O17       1.0  0.02700  0.66500  0.62800  1.0000
  O   O18       1.0  0.10100  0.96400  0.62800  1.0000
  O   O19       1.0  0.53600  0.39900  0.87200  1.0000
  O   O20       1.0  0.83500  0.47300  0.87200  1.0000
  O   O21       1.0  0.44200  0.07800  0.89200  1.0000
  O   O22       1.0  0.95000  0.81400  0.89200  1.0000
  O   O23       1.0  0.22300  0.30300  0.90600  1.0000
  O   O24       1.0  0.18300  0.60400  0.90600  1.0000
  P   P1        1.0  0.25400  0.50400  0.00892  1.0000
  P   P2        1.0  0.99600  0.24600  0.49100  1.0000
  P   P3        1.0  0.00446  0.75400  0.50900  1.0000
  P   P4        1.0  0.74600  0.49600  0.99100  1.0000
