data_image0
_chemical_formula_structural       Cs12Na8P12Sn4
_chemical_formula_sum              "Cs12 Na8 P12 Sn4"
_cell_length_a       6.89282
_cell_length_b       10.8303
_cell_length_c       16.3645
_cell_angle_alpha    90
_cell_angle_beta     90
_cell_angle_gamma    71.4447

_space_group_name_H-M_alt    "P 1"
_space_group_IT_number       1

loop_
  _space_group_symop_operation_xyz
  'x, y, z'

loop_
  _atom_site_type_symbol
  _atom_site_label
  _atom_site_symmetry_multiplicity
  _atom_site_fract_x
  _atom_site_fract_y
  _atom_site_fract_z
  _atom_site_occupancy
  Cs  Cs1       1.0  0.05710  0.33400  0.17400  1.0000
  Cs  Cs2       1.0  0.39100  0.66600  0.17400  1.0000
  Cs  Cs3       1.0  0.77000  0.00000  0.17900  1.0000
  Cs  Cs4       1.0  0.27000  0.00000  0.32100  1.0000
  Cs  Cs5       1.0  0.55700  0.33400  0.32600  1.0000
  Cs  Cs6       1.0  0.89100  0.66600  0.32600  1.0000
  Cs  Cs7       1.0  0.10900  0.33400  0.67400  1.0000
  Cs  Cs8       1.0  0.44300  0.66600  0.67400  1.0000
  Cs  Cs9       1.0  0.73000  0.00000  0.67900  1.0000
  Cs  Cs10      1.0  0.23000  0.00000  0.82100  1.0000
  Cs  Cs11      1.0  0.60900  0.33400  0.82600  1.0000
  Cs  Cs12      1.0  0.94300  0.66600  0.82600  1.0000
  Na  Na1       1.0  0.91900  0.16200  0.00000  1.0000
  Na  Na2       1.0  0.75400  0.49100  0.00000  1.0000
  Na  Na3       1.0  0.24600  0.50900  0.00000  1.0000
  Na  Na4       1.0  0.08080  0.83800  0.00000  1.0000
  Na  Na5       1.0  0.41900  0.16200  0.50000  1.0000
  Na  Na6       1.0  0.25400  0.49100  0.50000  1.0000
  Na  Na7       1.0  0.74600  0.50900  0.50000  1.0000
  Na  Na8       1.0  0.58100  0.83800  0.50000  1.0000
  P   P1        1.0  0.29900  0.00000  0.08360  1.0000
  P   P2        1.0  0.56100  0.31500  0.09220  1.0000
  P   P3        1.0  0.87600  0.68500  0.09220  1.0000
  P   P4        1.0  0.06090  0.31500  0.40800  1.0000
  P   P5        1.0  0.37600  0.68500  0.40800  1.0000
  P   P6        1.0  0.79900  0.00000  0.41600  1.0000
  P   P7        1.0  0.20100  0.00000  0.58400  1.0000
  P   P8        1.0  0.62400  0.31500  0.59200  1.0000
  P   P9        1.0  0.93900  0.68500  0.59200  1.0000
  P   P10       1.0  0.12400  0.31500  0.90800  1.0000
  P   P11       1.0  0.43900  0.68500  0.90800  1.0000
  P   P12       1.0  0.70100  0.00000  0.91600  1.0000
  Sn  Sn1       1.0  0.41300  0.17500  0.00000  1.0000
  Sn  Sn2       1.0  0.58700  0.82500  0.00000  1.0000
  Sn  Sn3       1.0  0.91300  0.17500  0.50000  1.0000
  Sn  Sn4       1.0  0.08750  0.82500  0.50000  1.0000
