data_image0
_chemical_formula_structural       Ba2N20Si14
_chemical_formula_sum              "Ba2 N20 Si14"
_cell_length_a       6.87813
_cell_length_b       6.72028
_cell_length_c       9.63616
_cell_angle_alpha    90
_cell_angle_beta     106.302
_cell_angle_gamma    90

_space_group_name_H-M_alt    "P 1"
_space_group_IT_number       1

loop_
  _space_group_symop_operation_xyz
  'x, y, z'

loop_
  _atom_site_type_symbol
  _atom_site_label
  _atom_site_symmetry_multiplicity
  _atom_site_fract_x
  _atom_site_fract_y
  _atom_site_fract_z
  _atom_site_occupancy
  Ba  Ba1       1.0  0.28900  0.40200  0.21200  1.0000
  Ba  Ba2       1.0  0.28900  0.59800  0.71200  1.0000
  N   N1        1.0  0.89800  0.63100  0.01630  1.0000
  N   N2        1.0  0.48400  0.66600  0.05500  1.0000
  N   N3        1.0  0.82800  0.03740  0.06290  1.0000
  N   N4        1.0  0.21800  0.89000  0.17200  1.0000
  N   N5        1.0  0.77400  0.38300  0.21100  1.0000
  N   N6        1.0  0.61400  0.00136  0.26300  1.0000
  N   N7        1.0  0.03490  0.08640  0.36300  1.0000
  N   N8        1.0  0.07480  0.65800  0.37000  1.0000
  N   N9        1.0  0.64800  0.63000  0.40300  1.0000
  N   N10       1.0  0.40800  0.92100  0.47700  1.0000
  N   N11       1.0  0.89800  0.36900  0.51600  1.0000
  N   N12       1.0  0.48400  0.33400  0.55500  1.0000
  N   N13       1.0  0.82800  0.96300  0.56300  1.0000
  N   N14       1.0  0.21800  0.11000  0.67200  1.0000
  N   N15       1.0  0.77400  0.61700  0.71100  1.0000
  N   N16       1.0  0.61400  0.99900  0.76300  1.0000
  N   N17       1.0  0.03490  0.91400  0.86300  1.0000
  N   N18       1.0  0.07480  0.34200  0.87000  1.0000
  N   N19       1.0  0.64800  0.37000  0.90300  1.0000
  N   N20       1.0  0.40800  0.07910  0.97700  1.0000
  Si  Si1       1.0  0.99700  0.86500  0.03200  1.0000
  Si  Si2       1.0  0.68400  0.52800  0.05490  1.0000
  Si  Si3       1.0  0.43800  0.89400  0.11200  1.0000
  Si  Si4       1.0  0.81300  0.12900  0.22700  1.0000
  Si  Si5       1.0  0.17900  0.87600  0.34700  1.0000
  Si  Si6       1.0  0.86800  0.52700  0.36700  1.0000
  Si  Si7       1.0  0.62500  0.88100  0.42300  1.0000
  Si  Si8       1.0  0.99700  0.13500  0.53200  1.0000
  Si  Si9       1.0  0.68400  0.47200  0.55500  1.0000
  Si  Si10      1.0  0.43800  0.10600  0.61200  1.0000
  Si  Si11      1.0  0.81300  0.87100  0.72700  1.0000
  Si  Si12      1.0  0.17900  0.12400  0.84700  1.0000
  Si  Si13      1.0  0.86800  0.47300  0.86700  1.0000
  Si  Si14      1.0  0.62500  0.11900  0.92300  1.0000
