data_image0
_chemical_formula_structural       K4Na16Sb12Sn4
_chemical_formula_sum              "K4 Na16 Sb12 Sn4"
_cell_length_a       14.7679
_cell_length_b       8.25625
_cell_length_c       9.14971
_cell_angle_alpha    90
_cell_angle_beta     89.7697
_cell_angle_gamma    90

_space_group_name_H-M_alt    "P 1"
_space_group_IT_number       1

loop_
  _space_group_symop_operation_xyz
  'x, y, z'

loop_
  _atom_site_type_symbol
  _atom_site_label
  _atom_site_symmetry_multiplicity
  _atom_site_fract_x
  _atom_site_fract_y
  _atom_site_fract_z
  _atom_site_occupancy
  K   K1        1.0  0.91300  0.97800  0.17600  1.0000
  K   K2        1.0  0.58700  0.47800  0.32400  1.0000
  K   K3        1.0  0.41300  0.52200  0.67600  1.0000
  K   K4        1.0  0.08720  0.02200  0.82400  1.0000
  Na  Na1       1.0  0.75700  0.63400  0.07130  1.0000
  Na  Na2       1.0  0.08210  0.66100  0.07760  1.0000
  Na  Na3       1.0  0.25800  0.00060  0.17300  1.0000
  Na  Na4       1.0  0.59100  0.96000  0.18000  1.0000
  Na  Na5       1.0  0.90900  0.46000  0.32000  1.0000
  Na  Na6       1.0  0.24200  0.50100  0.32700  1.0000
  Na  Na7       1.0  0.41800  0.16100  0.42200  1.0000
  Na  Na8       1.0  0.74300  0.13400  0.42900  1.0000
  Na  Na9       1.0  0.25700  0.86600  0.57100  1.0000
  Na  Na10      1.0  0.58200  0.83900  0.57800  1.0000
  Na  Na11      1.0  0.75800  0.49900  0.67300  1.0000
  Na  Na12      1.0  0.09110  0.54000  0.68000  1.0000
  Na  Na13      1.0  0.40900  0.03990  0.82000  1.0000
  Na  Na14      1.0  0.74200  0.99900  0.82700  1.0000
  Na  Na15      1.0  0.91800  0.33900  0.92200  1.0000
  Na  Na16      1.0  0.24300  0.36600  0.92900  1.0000
  Sb  Sb1       1.0  0.42400  0.29300  0.09220  1.0000
  Sb  Sb2       1.0  0.74100  0.24500  0.09600  1.0000
  Sb  Sb3       1.0  0.08590  0.28700  0.14500  1.0000
  Sb  Sb4       1.0  0.41400  0.78700  0.35500  1.0000
  Sb  Sb5       1.0  0.75900  0.74500  0.40400  1.0000
  Sb  Sb6       1.0  0.07600  0.79300  0.40800  1.0000
  Sb  Sb7       1.0  0.92400  0.20700  0.59200  1.0000
  Sb  Sb8       1.0  0.24100  0.25500  0.59600  1.0000
  Sb  Sb9       1.0  0.58600  0.21300  0.64500  1.0000
  Sb  Sb10      1.0  0.91400  0.71300  0.85500  1.0000
  Sb  Sb11      1.0  0.25900  0.75500  0.90400  1.0000
  Sb  Sb12      1.0  0.57600  0.70700  0.90800  1.0000
  Sn  Sn1       1.0  0.40900  0.65000  0.07040  1.0000
  Sn  Sn2       1.0  0.09060  0.15000  0.43000  1.0000
  Sn  Sn3       1.0  0.90900  0.85000  0.57000  1.0000
  Sn  Sn4       1.0  0.59100  0.35000  0.93000  1.0000
