data_image0
_chemical_formula_structural       N8O24Pb4
_chemical_formula_sum              "N8 O24 Pb4"
_cell_length_a       7.72327
_cell_length_b       7.72327
_cell_length_c       7.72327
_cell_angle_alpha    90
_cell_angle_beta     90
_cell_angle_gamma    90

_space_group_name_H-M_alt    "P 1"
_space_group_IT_number       1

loop_
  _space_group_symop_operation_xyz
  'x, y, z'

loop_
  _atom_site_type_symbol
  _atom_site_label
  _atom_site_symmetry_multiplicity
  _atom_site_fract_x
  _atom_site_fract_y
  _atom_site_fract_z
  _atom_site_occupancy
  N   N1        1.0  0.84200  0.34200  0.15800  1.0000
  N   N2        1.0  0.65800  0.84200  0.15800  1.0000
  N   N3        1.0  0.34200  0.34200  0.34200  1.0000
  N   N4        1.0  0.15800  0.84200  0.34200  1.0000
  N   N5        1.0  0.84200  0.15800  0.65800  1.0000
  N   N6        1.0  0.65800  0.65800  0.65800  1.0000
  N   N7        1.0  0.34200  0.15800  0.84200  1.0000
  N   N8        1.0  0.15800  0.65800  0.84200  1.0000
  O   O1        1.0  0.77000  0.28000  0.02400  1.0000
  O   O2        1.0  0.73000  0.78000  0.02400  1.0000
  O   O3        1.0  0.97600  0.27000  0.22000  1.0000
  O   O4        1.0  0.52400  0.77000  0.22000  1.0000
  O   O5        1.0  0.78000  0.47600  0.23000  1.0000
  O   O6        1.0  0.72000  0.97600  0.23000  1.0000
  O   O7        1.0  0.28000  0.47600  0.27000  1.0000
  O   O8        1.0  0.22000  0.97600  0.27000  1.0000
  O   O9        1.0  0.47600  0.27000  0.28000  1.0000
  O   O10       1.0  0.02400  0.77000  0.28000  1.0000
  O   O11       1.0  0.27000  0.28000  0.47600  1.0000
  O   O12       1.0  0.23000  0.78000  0.47600  1.0000
  O   O13       1.0  0.77000  0.22000  0.52400  1.0000
  O   O14       1.0  0.73000  0.72000  0.52400  1.0000
  O   O15       1.0  0.97600  0.23000  0.72000  1.0000
  O   O16       1.0  0.52400  0.73000  0.72000  1.0000
  O   O17       1.0  0.78000  0.02400  0.73000  1.0000
  O   O18       1.0  0.72000  0.52400  0.73000  1.0000
  O   O19       1.0  0.28000  0.02400  0.77000  1.0000
  O   O20       1.0  0.22000  0.52400  0.77000  1.0000
  O   O21       1.0  0.47600  0.23000  0.78000  1.0000
  O   O22       1.0  0.02400  0.73000  0.78000  1.0000
  O   O23       1.0  0.27000  0.22000  0.97600  1.0000
  O   O24       1.0  0.23000  0.72000  0.97600  1.0000
  Pb  Pb1       1.0  0.00000  0.00000  0.00000  1.0000
  Pb  Pb2       1.0  0.50000  0.50000  0.00000  1.0000
  Pb  Pb3       1.0  0.50000  0.00000  0.50000  1.0000
  Pb  Pb4       1.0  0.00000  0.50000  0.50000  1.0000
