data_image0
_chemical_formula_structural       Ba10Sb8
_chemical_formula_sum              "Ba10 Sb8"
_cell_length_a       9.14739
_cell_length_b       9.18727
_cell_length_c       10.0925
_cell_angle_alpha    90
_cell_angle_beta     63.0522
_cell_angle_gamma    90

_space_group_name_H-M_alt    "P 1"
_space_group_IT_number       1

loop_
  _space_group_symop_operation_xyz
  'x, y, z'

loop_
  _atom_site_type_symbol
  _atom_site_label
  _atom_site_symmetry_multiplicity
  _atom_site_fract_x
  _atom_site_fract_y
  _atom_site_fract_z
  _atom_site_occupancy
  Ba  Ba1       1.0  0.00000  0.00000  0.00000  1.0000
  Ba  Ba2       1.0  0.50000  0.50000  0.00000  1.0000
  Ba  Ba3       1.0  0.52300  0.16400  0.29200  1.0000
  Ba  Ba4       1.0  0.02260  0.33600  0.29200  1.0000
  Ba  Ba5       1.0  0.68500  0.66400  0.29200  1.0000
  Ba  Ba6       1.0  0.18500  0.83600  0.29200  1.0000
  Ba  Ba7       1.0  0.81500  0.16400  0.70800  1.0000
  Ba  Ba8       1.0  0.31500  0.33600  0.70800  1.0000
  Ba  Ba9       1.0  0.97700  0.66400  0.70800  1.0000
  Ba  Ba10      1.0  0.47700  0.83600  0.70800  1.0000
  Sb  Sb1       1.0  0.38700  0.11300  0.00000  1.0000
  Sb  Sb2       1.0  0.88700  0.38700  0.00000  1.0000
  Sb  Sb3       1.0  0.11300  0.61300  0.00000  1.0000
  Sb  Sb4       1.0  0.61300  0.88700  0.00000  1.0000
  Sb  Sb5       1.0  0.80200  0.00000  0.39700  1.0000
  Sb  Sb6       1.0  0.30200  0.50000  0.39700  1.0000
  Sb  Sb7       1.0  0.19800  0.00000  0.60300  1.0000
  Sb  Sb8       1.0  0.69800  0.50000  0.60300  1.0000
