data_image0
_chemical_formula_structural       Al8Ba12N16
_chemical_formula_sum              "Al8 Ba12 N16"
_cell_length_a       6.22609
_cell_length_b       10.2324
_cell_length_c       10.1036
_cell_angle_alpha    90
_cell_angle_beta     90
_cell_angle_gamma    90

_space_group_name_H-M_alt    "P 1"
_space_group_IT_number       1

loop_
  _space_group_symop_operation_xyz
  'x, y, z'

loop_
  _atom_site_type_symbol
  _atom_site_label
  _atom_site_symmetry_multiplicity
  _atom_site_fract_x
  _atom_site_fract_y
  _atom_site_fract_z
  _atom_site_occupancy
  Al  Al1       1.0  0.25000  0.50000  0.23100  1.0000
  Al  Al2       1.0  0.17200  0.25000  0.25000  1.0000
  Al  Al3       1.0  0.32800  0.75000  0.25000  1.0000
  Al  Al4       1.0  0.25000  0.00000  0.26900  1.0000
  Al  Al5       1.0  0.75000  0.00000  0.73100  1.0000
  Al  Al6       1.0  0.67200  0.25000  0.75000  1.0000
  Al  Al7       1.0  0.82800  0.75000  0.75000  1.0000
  Al  Al8       1.0  0.75000  0.50000  0.76900  1.0000
  Ba  Ba1       1.0  0.61600  0.15500  0.08570  1.0000
  Ba  Ba2       1.0  0.88400  0.84500  0.08570  1.0000
  Ba  Ba3       1.0  0.75000  0.50000  0.09330  1.0000
  Ba  Ba4       1.0  0.75000  0.00000  0.40700  1.0000
  Ba  Ba5       1.0  0.61600  0.34500  0.41400  1.0000
  Ba  Ba6       1.0  0.88400  0.65500  0.41400  1.0000
  Ba  Ba7       1.0  0.11600  0.34500  0.58600  1.0000
  Ba  Ba8       1.0  0.38400  0.65500  0.58600  1.0000
  Ba  Ba9       1.0  0.25000  0.00000  0.59300  1.0000
  Ba  Ba10      1.0  0.25000  0.50000  0.90700  1.0000
  Ba  Ba11      1.0  0.11600  0.15500  0.91400  1.0000
  Ba  Ba12      1.0  0.38400  0.84500  0.91400  1.0000
  N   N1        1.0  0.35500  0.35400  0.13200  1.0000
  N   N2        1.0  0.14500  0.64600  0.13200  1.0000
  N   N3        1.0  0.03290  0.09830  0.17300  1.0000
  N   N4        1.0  0.46700  0.90200  0.17300  1.0000
  N   N5        1.0  0.03290  0.40200  0.32700  1.0000
  N   N6        1.0  0.46700  0.59800  0.32700  1.0000
  N   N7        1.0  0.35500  0.14600  0.36800  1.0000
  N   N8        1.0  0.14500  0.85400  0.36800  1.0000
  N   N9        1.0  0.85500  0.14600  0.63200  1.0000
  N   N10       1.0  0.64500  0.85400  0.63200  1.0000
  N   N11       1.0  0.53300  0.40200  0.67300  1.0000
  N   N12       1.0  0.96700  0.59800  0.67300  1.0000
  N   N13       1.0  0.53300  0.09830  0.82700  1.0000
  N   N14       1.0  0.96700  0.90200  0.82700  1.0000
  N   N15       1.0  0.85500  0.35400  0.86800  1.0000
  N   N16       1.0  0.64500  0.64600  0.86800  1.0000
