data_image0
_chemical_formula_structural       Ge24Pd4Yb8
_chemical_formula_sum              "Ge24 Pd4 Yb8"
_cell_length_a       5.74715
_cell_length_b       5.74715
_cell_length_c       22.37
_cell_angle_alpha    90
_cell_angle_beta     90
_cell_angle_gamma    88.5102

_space_group_name_H-M_alt    "P 1"
_space_group_IT_number       1

loop_
  _space_group_symop_operation_xyz
  'x, y, z'

loop_
  _atom_site_type_symbol
  _atom_site_label
  _atom_site_symmetry_multiplicity
  _atom_site_fract_x
  _atom_site_fract_y
  _atom_site_fract_z
  _atom_site_occupancy
  Ge  Ge1       1.0  0.13000  0.87000  0.02990  1.0000
  Ge  Ge2       1.0  0.62100  0.37900  0.03620  1.0000
  Ge  Ge3       1.0  0.84700  0.15300  0.19400  1.0000
  Ge  Ge4       1.0  0.40500  0.59500  0.19400  1.0000
  Ge  Ge5       1.0  0.40000  0.14800  0.19500  1.0000
  Ge  Ge6       1.0  0.85200  0.60000  0.19500  1.0000
  Ge  Ge7       1.0  0.35200  0.10000  0.30500  1.0000
  Ge  Ge8       1.0  0.90000  0.64800  0.30500  1.0000
  Ge  Ge9       1.0  0.90500  0.09540  0.30600  1.0000
  Ge  Ge10      1.0  0.34700  0.65300  0.30600  1.0000
  Ge  Ge11      1.0  0.12100  0.87900  0.46400  1.0000
  Ge  Ge12      1.0  0.63000  0.37000  0.47000  1.0000
  Ge  Ge13      1.0  0.37000  0.63000  0.53000  1.0000
  Ge  Ge14      1.0  0.87900  0.12100  0.53600  1.0000
  Ge  Ge15      1.0  0.65300  0.34700  0.69400  1.0000
  Ge  Ge16      1.0  0.09540  0.90500  0.69400  1.0000
  Ge  Ge17      1.0  0.10000  0.35200  0.69500  1.0000
  Ge  Ge18      1.0  0.64800  0.90000  0.69500  1.0000
  Ge  Ge19      1.0  0.14800  0.40000  0.80500  1.0000
  Ge  Ge20      1.0  0.60000  0.85200  0.80500  1.0000
  Ge  Ge21      1.0  0.59500  0.40500  0.80600  1.0000
  Ge  Ge22      1.0  0.15300  0.84700  0.80600  1.0000
  Ge  Ge23      1.0  0.37900  0.62100  0.96400  1.0000
  Ge  Ge24      1.0  0.87000  0.13000  0.97000  1.0000
  Pd  Pd1       1.0  0.12600  0.87400  0.14100  1.0000
  Pd  Pd2       1.0  0.62600  0.37400  0.35900  1.0000
  Pd  Pd3       1.0  0.37400  0.62600  0.64100  1.0000
  Pd  Pd4       1.0  0.87400  0.12600  0.85900  1.0000
  Yb  Yb1       1.0  0.12600  0.37500  0.08460  1.0000
  Yb  Yb2       1.0  0.62500  0.87400  0.08460  1.0000
  Yb  Yb3       1.0  0.12500  0.37400  0.41500  1.0000
  Yb  Yb4       1.0  0.62600  0.87500  0.41500  1.0000
  Yb  Yb5       1.0  0.37400  0.12500  0.58500  1.0000
  Yb  Yb6       1.0  0.87500  0.62600  0.58500  1.0000
  Yb  Yb7       1.0  0.37500  0.12600  0.91500  1.0000
  Yb  Yb8       1.0  0.87400  0.62500  0.91500  1.0000
