data_image0
_chemical_formula_structural       As6Na2O24Ti4
_chemical_formula_sum              "As6 Na2 O24 Ti4"
_cell_length_a       8.8765
_cell_length_b       8.8765
_cell_length_c       9.00842
_cell_angle_alpha    119.517
_cell_angle_beta     119.517
_cell_angle_gamma    60

_space_group_name_H-M_alt    "P 1"
_space_group_IT_number       1

loop_
  _space_group_symop_operation_xyz
  'x, y, z'

loop_
  _atom_site_type_symbol
  _atom_site_label
  _atom_site_symmetry_multiplicity
  _atom_site_fract_x
  _atom_site_fract_y
  _atom_site_fract_z
  _atom_site_occupancy
  As  As1       1.0  0.75000  0.03700  0.25000  1.0000
  As  As2       1.0  0.03700  0.46300  0.25000  1.0000
  As  As3       1.0  0.46300  0.75000  0.25000  1.0000
  As  As4       1.0  0.53700  0.25000  0.75000  1.0000
  As  As5       1.0  0.96300  0.53700  0.75000  1.0000
  As  As6       1.0  0.25000  0.96300  0.75000  1.0000
  Na  Na1       1.0  0.00000  0.00000  0.00000  1.0000
  Na  Na2       1.0  0.50000  0.50000  0.50000  1.0000
  O   O1        1.0  0.85700  0.49300  0.05930  1.0000
  O   O2        1.0  0.49300  0.70900  0.05930  1.0000
  O   O3        1.0  0.70900  0.85700  0.05930  1.0000
  O   O4        1.0  0.93100  0.05400  0.24800  1.0000
  O   O5        1.0  0.05400  0.26400  0.24800  1.0000
  O   O6        1.0  0.26400  0.93100  0.24800  1.0000
  O   O7        1.0  0.56900  0.23600  0.25200  1.0000
  O   O8        1.0  0.23600  0.44600  0.25200  1.0000
  O   O9        1.0  0.44600  0.56900  0.25200  1.0000
  O   O10       1.0  0.79100  0.00650  0.44100  1.0000
  O   O11       1.0  0.00650  0.64300  0.44100  1.0000
  O   O12       1.0  0.64300  0.79100  0.44100  1.0000
  O   O13       1.0  0.35700  0.20900  0.55900  1.0000
  O   O14       1.0  0.99300  0.35700  0.55900  1.0000
  O   O15       1.0  0.20900  0.99300  0.55900  1.0000
  O   O16       1.0  0.55400  0.43100  0.74800  1.0000
  O   O17       1.0  0.76400  0.55400  0.74800  1.0000
  O   O18       1.0  0.43100  0.76400  0.74800  1.0000
  O   O19       1.0  0.73600  0.06930  0.75200  1.0000
  O   O20       1.0  0.94600  0.73600  0.75200  1.0000
  O   O21       1.0  0.06930  0.94600  0.75200  1.0000
  O   O22       1.0  0.29100  0.14300  0.94100  1.0000
  O   O23       1.0  0.50700  0.29100  0.94100  1.0000
  O   O24       1.0  0.14300  0.50700  0.94100  1.0000
  Ti  Ti1       1.0  0.35900  0.35900  0.07620  1.0000
  Ti  Ti2       1.0  0.14100  0.14100  0.42400  1.0000
  Ti  Ti3       1.0  0.85900  0.85900  0.57600  1.0000
  Ti  Ti4       1.0  0.64100  0.64100  0.92400  1.0000
