data_image0
_chemical_formula_structural       As8Cl12Hg12Tl4
_chemical_formula_sum              "As8 Cl12 Hg12 Tl4"
_cell_length_a       6.33766
_cell_length_b       12.6273
_cell_length_c       12.5588
_cell_angle_alpha    90
_cell_angle_beta     90
_cell_angle_gamma    90

_space_group_name_H-M_alt    "P 1"
_space_group_IT_number       1

loop_
  _space_group_symop_operation_xyz
  'x, y, z'

loop_
  _atom_site_type_symbol
  _atom_site_label
  _atom_site_symmetry_multiplicity
  _atom_site_fract_x
  _atom_site_fract_y
  _atom_site_fract_z
  _atom_site_occupancy
  As  As1       1.0  0.37900  0.05570  0.05080  1.0000
  As  As2       1.0  0.62100  0.55600  0.05080  1.0000
  As  As3       1.0  0.37900  0.05570  0.44900  1.0000
  As  As4       1.0  0.62100  0.55600  0.44900  1.0000
  As  As5       1.0  0.37900  0.44400  0.55100  1.0000
  As  As6       1.0  0.62100  0.94400  0.55100  1.0000
  As  As7       1.0  0.37900  0.44400  0.94900  1.0000
  As  As8       1.0  0.62100  0.94400  0.94900  1.0000
  Cl  Cl1       1.0  0.90600  0.25000  0.00000  1.0000
  Cl  Cl2       1.0  0.09350  0.75000  0.00000  1.0000
  Cl  Cl3       1.0  0.90100  0.00407  0.25000  1.0000
  Cl  Cl4       1.0  0.54000  0.29400  0.25000  1.0000
  Cl  Cl5       1.0  0.09870  0.50400  0.25000  1.0000
  Cl  Cl6       1.0  0.46000  0.79400  0.25000  1.0000
  Cl  Cl7       1.0  0.90600  0.25000  0.50000  1.0000
  Cl  Cl8       1.0  0.09350  0.75000  0.50000  1.0000
  Cl  Cl9       1.0  0.54000  0.20600  0.75000  1.0000
  Cl  Cl10      1.0  0.90100  0.49600  0.75000  1.0000
  Cl  Cl11      1.0  0.46000  0.70600  0.75000  1.0000
  Cl  Cl12      1.0  0.09870  0.99600  0.75000  1.0000
  Hg  Hg1       1.0  0.00000  0.00000  0.00000  1.0000
  Hg  Hg2       1.0  0.46100  0.25000  0.00000  1.0000
  Hg  Hg3       1.0  0.00000  0.50000  0.00000  1.0000
  Hg  Hg4       1.0  0.53900  0.75000  0.00000  1.0000
  Hg  Hg5       1.0  0.45500  0.01900  0.25000  1.0000
  Hg  Hg6       1.0  0.54500  0.51900  0.25000  1.0000
  Hg  Hg7       1.0  0.00000  0.00000  0.50000  1.0000
  Hg  Hg8       1.0  0.46100  0.25000  0.50000  1.0000
  Hg  Hg9       1.0  0.00000  0.50000  0.50000  1.0000
  Hg  Hg10      1.0  0.53900  0.75000  0.50000  1.0000
  Hg  Hg11      1.0  0.45500  0.48100  0.75000  1.0000
  Hg  Hg12      1.0  0.54500  0.98100  0.75000  1.0000
  Tl  Tl1       1.0  0.01230  0.25300  0.25000  1.0000
  Tl  Tl2       1.0  0.98800  0.75300  0.25000  1.0000
  Tl  Tl3       1.0  0.01230  0.24700  0.75000  1.0000
  Tl  Tl4       1.0  0.98800  0.74700  0.75000  1.0000
