data_image0
_chemical_formula_structural       Li2O24P8Tb2
_chemical_formula_sum              "Li2 O24 P8 Tb2"
_cell_length_a       6.9702
_cell_length_b       8.78237
_cell_length_c       8.80853
_cell_angle_alpha    96.167
_cell_angle_beta     113.307
_cell_angle_gamma    113.38

_space_group_name_H-M_alt    "P 1"
_space_group_IT_number       1

loop_
  _space_group_symop_operation_xyz
  'x, y, z'

loop_
  _atom_site_type_symbol
  _atom_site_label
  _atom_site_symmetry_multiplicity
  _atom_site_fract_x
  _atom_site_fract_y
  _atom_site_fract_z
  _atom_site_occupancy
  Li  Li1       1.0  0.45400  0.25000  0.25000  1.0000
  Li  Li2       1.0  0.54600  0.75000  0.75000  1.0000
  O   O1        1.0  0.15500  0.81600  0.04750  1.0000
  O   O2        1.0  0.79600  0.76000  0.07840  1.0000
  O   O3        1.0  0.56800  0.22200  0.08520  1.0000
  O   O4        1.0  0.47000  0.63800  0.15000  1.0000
  O   O5        1.0  0.13700  0.07500  0.19900  1.0000
  O   O6        1.0  0.71900  0.97100  0.23700  1.0000
  O   O7        1.0  0.01080  0.52900  0.26300  1.0000
  O   O8        1.0  0.36300  0.42500  0.30100  1.0000
  O   O9        1.0  0.18100  0.86200  0.35000  1.0000
  O   O10       1.0  0.76100  0.27800  0.41500  1.0000
  O   O11       1.0  0.45800  0.74000  0.42200  1.0000
  O   O12       1.0  0.79100  0.68400  0.45200  1.0000
  O   O13       1.0  0.20900  0.31600  0.54800  1.0000
  O   O14       1.0  0.54200  0.26000  0.57800  1.0000
  O   O15       1.0  0.23900  0.72200  0.58500  1.0000
  O   O16       1.0  0.81900  0.13800  0.65000  1.0000
  O   O17       1.0  0.63700  0.57500  0.69900  1.0000
  O   O18       1.0  0.98900  0.47100  0.73700  1.0000
  O   O19       1.0  0.28100  0.02870  0.76300  1.0000
  O   O20       1.0  0.86300  0.92500  0.80100  1.0000
  O   O21       1.0  0.53000  0.36200  0.85000  1.0000
  O   O22       1.0  0.43200  0.77800  0.91500  1.0000
  O   O23       1.0  0.20400  0.24000  0.92200  1.0000
  O   O24       1.0  0.84500  0.18400  0.95200  1.0000
  P   P1        1.0  0.59900  0.80200  0.09720  1.0000
  P   P2        1.0  0.07630  0.88600  0.16000  1.0000
  P   P3        1.0  0.53000  0.61400  0.34000  1.0000
  P   P4        1.0  0.20000  0.69800  0.40300  1.0000
  P   P5        1.0  0.80000  0.30200  0.59700  1.0000
  P   P6        1.0  0.47000  0.38600  0.66000  1.0000
  P   P7        1.0  0.92400  0.11400  0.84000  1.0000
  P   P8        1.0  0.40100  0.19800  0.90300  1.0000
  Tb  Tb1       1.0  0.95400  0.25000  0.25000  1.0000
  Tb  Tb2       1.0  0.04650  0.75000  0.75000  1.0000
