data_image0
_chemical_formula_structural       C4F12Li4O12S4
_chemical_formula_sum              "C4 F12 Li4 O12 S4"
_cell_length_a       9.59654
_cell_length_b       4.82532
_cell_length_c       9.19788
_cell_angle_alpha    90
_cell_angle_beta     91.4041
_cell_angle_gamma    90

_space_group_name_H-M_alt    "P 1"
_space_group_IT_number       1

loop_
  _space_group_symop_operation_xyz
  'x, y, z'

loop_
  _atom_site_type_symbol
  _atom_site_label
  _atom_site_symmetry_multiplicity
  _atom_site_fract_x
  _atom_site_fract_y
  _atom_site_fract_z
  _atom_site_occupancy
  C   C1        1.0  0.64500  0.21900  0.09500  1.0000
  C   C2        1.0  0.35500  0.71900  0.40500  1.0000
  C   C3        1.0  0.64500  0.28100  0.59500  1.0000
  C   C4        1.0  0.35500  0.78100  0.90500  1.0000
  F   F1        1.0  0.38400  0.88300  0.03950  1.0000
  F   F2        1.0  0.54500  0.39500  0.13500  1.0000
  F   F3        1.0  0.65500  0.00906  0.19000  1.0000
  F   F4        1.0  0.34500  0.50900  0.31000  1.0000
  F   F5        1.0  0.45500  0.89500  0.36500  1.0000
  F   F6        1.0  0.61600  0.38300  0.46100  1.0000
  F   F7        1.0  0.38400  0.61700  0.53900  1.0000
  F   F8        1.0  0.54500  0.10500  0.63500  1.0000
  F   F9        1.0  0.65500  0.49100  0.69000  1.0000
  F   F10       1.0  0.34500  0.99100  0.81000  1.0000
  F   F11       1.0  0.45500  0.60400  0.86500  1.0000
  F   F12       1.0  0.61600  0.11700  0.96100  1.0000
  Li  Li1       1.0  0.10100  0.11000  0.09230  1.0000
  Li  Li2       1.0  0.89900  0.61000  0.40800  1.0000
  Li  Li3       1.0  0.10100  0.39000  0.59200  1.0000
  Li  Li4       1.0  0.89900  0.89000  0.90800  1.0000
  O   O1        1.0  0.21100  0.40600  0.03460  1.0000
  O   O2        1.0  0.90900  0.17600  0.05100  1.0000
  O   O3        1.0  0.84000  0.52500  0.22500  1.0000
  O   O4        1.0  0.16000  0.02550  0.27500  1.0000
  O   O5        1.0  0.09100  0.67600  0.44900  1.0000
  O   O6        1.0  0.78900  0.90600  0.46500  1.0000
  O   O7        1.0  0.21100  0.09370  0.53500  1.0000
  O   O8        1.0  0.90900  0.32400  0.55100  1.0000
  O   O9        1.0  0.84000  0.97500  0.72500  1.0000
  O   O10       1.0  0.16000  0.47500  0.77500  1.0000
  O   O11       1.0  0.09100  0.82400  0.94900  1.0000
  O   O12       1.0  0.78900  0.59400  0.96500  1.0000
  S   S1        1.0  0.81200  0.40100  0.08420  1.0000
  S   S2        1.0  0.18800  0.90100  0.41600  1.0000
  S   S3        1.0  0.81200  0.09850  0.58400  1.0000
  S   S4        1.0  0.18800  0.59900  0.91600  1.0000
