data_image0
_chemical_formula_structural       B8Na4O20Sc4
_chemical_formula_sum              "B8 Na4 O20 Sc4"
_cell_length_a       7.21507
_cell_length_b       9.74948
_cell_length_c       5.83535
_cell_angle_alpha    90
_cell_angle_beta     71.874
_cell_angle_gamma    90

_space_group_name_H-M_alt    "P 1"
_space_group_IT_number       1

loop_
  _space_group_symop_operation_xyz
  'x, y, z'

loop_
  _atom_site_type_symbol
  _atom_site_label
  _atom_site_symmetry_multiplicity
  _atom_site_fract_x
  _atom_site_fract_y
  _atom_site_fract_z
  _atom_site_occupancy
  B   B1        1.0  0.90600  0.62300  0.16500  1.0000
  B   B2        1.0  0.55200  0.59300  0.23400  1.0000
  B   B3        1.0  0.44800  0.09300  0.26600  1.0000
  B   B4        1.0  0.09400  0.12300  0.33500  1.0000
  B   B5        1.0  0.90600  0.87700  0.66500  1.0000
  B   B6        1.0  0.55200  0.90700  0.73400  1.0000
  B   B7        1.0  0.44800  0.40700  0.76600  1.0000
  B   B8        1.0  0.09400  0.37700  0.83500  1.0000
  Na  Na1       1.0  0.78200  0.91800  0.19800  1.0000
  Na  Na2       1.0  0.21800  0.41800  0.30200  1.0000
  Na  Na3       1.0  0.78200  0.58200  0.69800  1.0000
  Na  Na4       1.0  0.21800  0.08210  0.80200  1.0000
  O   O1        1.0  0.06050  0.70900  0.06850  1.0000
  O   O2        1.0  0.72700  0.67000  0.14200  1.0000
  O   O3        1.0  0.61700  0.16600  0.16700  1.0000
  O   O4        1.0  0.08160  0.00493  0.21800  1.0000
  O   O5        1.0  0.55200  0.45500  0.22400  1.0000
  O   O6        1.0  0.44800  0.95500  0.27600  1.0000
  O   O7        1.0  0.91800  0.50500  0.28200  1.0000
  O   O8        1.0  0.38300  0.66600  0.33300  1.0000
  O   O9        1.0  0.27300  0.17000  0.35800  1.0000
  O   O10       1.0  0.93900  0.20900  0.43100  1.0000
  O   O11       1.0  0.06050  0.79100  0.56900  1.0000
  O   O12       1.0  0.72700  0.83000  0.64200  1.0000
  O   O13       1.0  0.61700  0.33400  0.66700  1.0000
  O   O14       1.0  0.08160  0.49500  0.71800  1.0000
  O   O15       1.0  0.55200  0.04500  0.72400  1.0000
  O   O16       1.0  0.44800  0.54500  0.77600  1.0000
  O   O17       1.0  0.91800  0.99500  0.78200  1.0000
  O   O18       1.0  0.38300  0.83400  0.83300  1.0000
  O   O19       1.0  0.27300  0.33000  0.85800  1.0000
  O   O20       1.0  0.93900  0.29100  0.93100  1.0000
  Sc  Sc1       1.0  0.24500  0.82900  0.21200  1.0000
  Sc  Sc2       1.0  0.75500  0.32900  0.28800  1.0000
  Sc  Sc3       1.0  0.24500  0.67100  0.71200  1.0000
  Sc  Sc4       1.0  0.75500  0.17100  0.78800  1.0000
