data_image0
_chemical_formula_structural       Hg33Rb3
_chemical_formula_sum              "Hg33 Rb3"
_cell_length_a       9.97562
_cell_length_b       9.97562
_cell_length_c       9.97562
_cell_angle_alpha    90
_cell_angle_beta     90
_cell_angle_gamma    90

_space_group_name_H-M_alt    "P 1"
_space_group_IT_number       1

loop_
  _space_group_symop_operation_xyz
  'x, y, z'

loop_
  _atom_site_type_symbol
  _atom_site_label
  _atom_site_symmetry_multiplicity
  _atom_site_fract_x
  _atom_site_fract_y
  _atom_site_fract_z
  _atom_site_occupancy
  Hg  Hg1       1.0  0.34600  0.34600  0.00000  1.0000
  Hg  Hg2       1.0  0.65400  0.34600  0.00000  1.0000
  Hg  Hg3       1.0  0.34600  0.65400  0.00000  1.0000
  Hg  Hg4       1.0  0.65400  0.65400  0.00000  1.0000
  Hg  Hg5       1.0  0.15400  0.15400  0.15400  1.0000
  Hg  Hg6       1.0  0.84600  0.15400  0.15400  1.0000
  Hg  Hg7       1.0  0.15400  0.84600  0.15400  1.0000
  Hg  Hg8       1.0  0.84600  0.84600  0.15400  1.0000
  Hg  Hg9       1.0  0.50000  0.26800  0.26800  1.0000
  Hg  Hg10      1.0  0.26800  0.50000  0.26800  1.0000
  Hg  Hg11      1.0  0.73200  0.50000  0.26800  1.0000
  Hg  Hg12      1.0  0.50000  0.73200  0.26800  1.0000
  Hg  Hg13      1.0  0.34600  0.00000  0.34600  1.0000
  Hg  Hg14      1.0  0.65400  0.00000  0.34600  1.0000
  Hg  Hg15      1.0  0.00000  0.34600  0.34600  1.0000
  Hg  Hg16      1.0  0.00000  0.65400  0.34600  1.0000
  Hg  Hg17      1.0  0.26800  0.26800  0.50000  1.0000
  Hg  Hg18      1.0  0.73200  0.26800  0.50000  1.0000
  Hg  Hg19      1.0  0.50000  0.50000  0.50000  1.0000
  Hg  Hg20      1.0  0.26800  0.73200  0.50000  1.0000
  Hg  Hg21      1.0  0.73200  0.73200  0.50000  1.0000
  Hg  Hg22      1.0  0.34600  0.00000  0.65400  1.0000
  Hg  Hg23      1.0  0.65400  0.00000  0.65400  1.0000
  Hg  Hg24      1.0  0.00000  0.34600  0.65400  1.0000
  Hg  Hg25      1.0  0.00000  0.65400  0.65400  1.0000
  Hg  Hg26      1.0  0.50000  0.26800  0.73200  1.0000
  Hg  Hg27      1.0  0.26800  0.50000  0.73200  1.0000
  Hg  Hg28      1.0  0.73200  0.50000  0.73200  1.0000
  Hg  Hg29      1.0  0.50000  0.73200  0.73200  1.0000
  Hg  Hg30      1.0  0.15400  0.15400  0.84600  1.0000
  Hg  Hg31      1.0  0.84600  0.15400  0.84600  1.0000
  Hg  Hg32      1.0  0.15400  0.84600  0.84600  1.0000
  Hg  Hg33      1.0  0.84600  0.84600  0.84600  1.0000
  Rb  Rb1       1.0  0.50000  0.00000  0.00000  1.0000
  Rb  Rb2       1.0  0.00000  0.50000  0.00000  1.0000
  Rb  Rb3       1.0  0.00000  0.00000  0.50000  1.0000
