data_image0
_chemical_formula_structural       B6Ba10Cl2O18
_chemical_formula_sum              "B6 Ba10 Cl2 O18"
_cell_length_a       7.86886
_cell_length_b       9.1127
_cell_length_c       9.1127
_cell_angle_alpha    109.765
_cell_angle_beta     90
_cell_angle_gamma    90

_space_group_name_H-M_alt    "P 1"
_space_group_IT_number       1

loop_
  _space_group_symop_operation_xyz
  'x, y, z'

loop_
  _atom_site_type_symbol
  _atom_site_label
  _atom_site_symmetry_multiplicity
  _atom_site_fract_x
  _atom_site_fract_y
  _atom_site_fract_z
  _atom_site_occupancy
  B   B1        1.0  0.53100  0.59600  0.01490  1.0000
  B   B2        1.0  0.50000  0.37200  0.37200  1.0000
  B   B3        1.0  0.96900  0.98500  0.40400  1.0000
  B   B4        1.0  0.46900  0.01490  0.59600  1.0000
  B   B5        1.0  0.00000  0.62800  0.62800  1.0000
  B   B6        1.0  0.03120  0.40400  0.98500  1.0000
  Ba  Ba1       1.0  0.44500  0.26300  0.00495  1.0000
  Ba  Ba2       1.0  0.00000  0.23800  0.23800  1.0000
  Ba  Ba3       1.0  0.55500  0.00495  0.26300  1.0000
  Ba  Ba4       1.0  0.75000  0.64100  0.35900  1.0000
  Ba  Ba5       1.0  0.25000  0.63700  0.36300  1.0000
  Ba  Ba6       1.0  0.75000  0.36300  0.63700  1.0000
  Ba  Ba7       1.0  0.25000  0.35900  0.64100  1.0000
  Ba  Ba8       1.0  0.05450  0.99500  0.73700  1.0000
  Ba  Ba9       1.0  0.50000  0.76200  0.76200  1.0000
  Ba  Ba10      1.0  0.94500  0.73700  0.99500  1.0000
  Cl  Cl1       1.0  0.25000  0.95300  0.04720  1.0000
  Cl  Cl2       1.0  0.75000  0.04720  0.95300  1.0000
  O   O1        1.0  0.62000  0.73100  0.02890  1.0000
  O   O2        1.0  0.99200  0.51000  0.13300  1.0000
  O   O3        1.0  0.48500  0.56500  0.14900  1.0000
  O   O4        1.0  0.88000  0.97100  0.26900  1.0000
  O   O5        1.0  0.65400  0.31000  0.30600  1.0000
  O   O6        1.0  0.34600  0.30600  0.31000  1.0000
  O   O7        1.0  0.01460  0.85100  0.43500  1.0000
  O   O8        1.0  0.50800  0.86700  0.49000  1.0000
  O   O9        1.0  0.00000  0.49400  0.49400  1.0000
  O   O10       1.0  0.50000  0.50600  0.50600  1.0000
  O   O11       1.0  0.00836  0.13300  0.51000  1.0000
  O   O12       1.0  0.51500  0.14900  0.56500  1.0000
  O   O13       1.0  0.84600  0.69400  0.69000  1.0000
  O   O14       1.0  0.15400  0.69000  0.69400  1.0000
  O   O15       1.0  0.38000  0.02890  0.73100  1.0000
  O   O16       1.0  0.98500  0.43500  0.85100  1.0000
  O   O17       1.0  0.49200  0.49000  0.86700  1.0000
  O   O18       1.0  0.12000  0.26900  0.97100  1.0000
