data_image0
_chemical_formula_structural       H12O16P4Sr4
_chemical_formula_sum              "H12 O16 P4 Sr4"
_cell_length_a       7.41777
_cell_length_b       7.01568
_cell_length_c       8.12158
_cell_angle_alpha    90
_cell_angle_beta     107.937
_cell_angle_gamma    90

_space_group_name_H-M_alt    "P 1"
_space_group_IT_number       1

loop_
  _space_group_symop_operation_xyz
  'x, y, z'

loop_
  _atom_site_type_symbol
  _atom_site_label
  _atom_site_symmetry_multiplicity
  _atom_site_fract_x
  _atom_site_fract_y
  _atom_site_fract_z
  _atom_site_occupancy
  H   H1        1.0  0.09740  0.74700  0.00116  1.0000
  H   H2        1.0  0.99800  0.88500  0.20100  1.0000
  H   H3        1.0  0.80500  0.95400  0.22300  1.0000
  H   H4        1.0  0.19500  0.45400  0.27700  1.0000
  H   H5        1.0  0.00167  0.38500  0.29900  1.0000
  H   H6        1.0  0.90300  0.24700  0.49900  1.0000
  H   H7        1.0  0.09740  0.75300  0.50100  1.0000
  H   H8        1.0  0.99800  0.61500  0.70100  1.0000
  H   H9        1.0  0.80500  0.54600  0.72300  1.0000
  H   H10       1.0  0.19500  0.04550  0.77700  1.0000
  H   H11       1.0  0.00167  0.11500  0.79900  1.0000
  H   H12       1.0  0.90300  0.25300  0.99900  1.0000
  O   O1        1.0  0.42600  0.80900  0.04350  1.0000
  O   O2        1.0  0.31500  0.50100  0.13300  1.0000
  O   O3        1.0  0.85800  0.87500  0.14700  1.0000
  O   O4        1.0  0.77500  0.41400  0.19100  1.0000
  O   O5        1.0  0.22500  0.91400  0.30900  1.0000
  O   O6        1.0  0.14200  0.37500  0.35300  1.0000
  O   O7        1.0  0.68500  0.00102  0.36700  1.0000
  O   O8        1.0  0.57400  0.30900  0.45700  1.0000
  O   O9        1.0  0.42600  0.69100  0.54300  1.0000
  O   O10       1.0  0.31500  0.99900  0.63300  1.0000
  O   O11       1.0  0.85800  0.62500  0.64700  1.0000
  O   O12       1.0  0.77500  0.08560  0.69100  1.0000
  O   O13       1.0  0.22500  0.58600  0.80900  1.0000
  O   O14       1.0  0.14200  0.12500  0.85300  1.0000
  O   O15       1.0  0.68500  0.49900  0.86700  1.0000
  O   O16       1.0  0.57400  0.19100  0.95700  1.0000
  P   P1        1.0  0.73400  0.34100  0.00555  1.0000
  P   P2        1.0  0.26600  0.84100  0.49400  1.0000
  P   P3        1.0  0.73400  0.15900  0.50600  1.0000
  P   P4        1.0  0.26600  0.65900  0.99400  1.0000
  Sr  Sr1       1.0  0.37100  0.14600  0.15800  1.0000
  Sr  Sr2       1.0  0.62900  0.64600  0.34200  1.0000
  Sr  Sr3       1.0  0.37100  0.35400  0.65800  1.0000
  Sr  Sr4       1.0  0.62900  0.85400  0.84200  1.0000
