data_image0
_chemical_formula_structural       B2Cr4O24P6
_chemical_formula_sum              "B2 Cr4 O24 P6"
_cell_length_a       7.90065
_cell_length_b       7.90065
_cell_length_c       7.38204
_cell_angle_alpha    90
_cell_angle_beta     90
_cell_angle_gamma    120

_space_group_name_H-M_alt    "P 1"
_space_group_IT_number       1

loop_
  _space_group_symop_operation_xyz
  'x, y, z'

loop_
  _atom_site_type_symbol
  _atom_site_label
  _atom_site_symmetry_multiplicity
  _atom_site_fract_x
  _atom_site_fract_y
  _atom_site_fract_z
  _atom_site_occupancy
  B   B1        1.0  0.33300  0.66700  0.25400  1.0000
  B   B2        1.0  0.33300  0.66700  0.75500  1.0000
  Cr  Cr1       1.0  0.66700  0.33300  0.06210  1.0000
  Cr  Cr2       1.0  0.66700  0.33300  0.44600  1.0000
  Cr  Cr3       1.0  0.00000  0.00000  0.56300  1.0000
  Cr  Cr4       1.0  0.00000  0.00000  0.94700  1.0000
  O   O1        1.0  0.07320  0.83500  0.08170  1.0000
  O   O2        1.0  0.16500  0.23800  0.08170  1.0000
  O   O3        1.0  0.76200  0.92700  0.08170  1.0000
  O   O4        1.0  0.45300  0.25800  0.25400  1.0000
  O   O5        1.0  0.74200  0.19500  0.25400  1.0000
  O   O6        1.0  0.80500  0.54700  0.25400  1.0000
  O   O7        1.0  0.13800  0.60100  0.25500  1.0000
  O   O8        1.0  0.39900  0.53700  0.25500  1.0000
  O   O9        1.0  0.46300  0.86200  0.25500  1.0000
  O   O10       1.0  0.07200  0.83400  0.42800  1.0000
  O   O11       1.0  0.16600  0.23800  0.42800  1.0000
  O   O12       1.0  0.76200  0.92800  0.42800  1.0000
  O   O13       1.0  0.50100  0.09560  0.58100  1.0000
  O   O14       1.0  0.59400  0.49900  0.58100  1.0000
  O   O15       1.0  0.90400  0.40600  0.58100  1.0000
  O   O16       1.0  0.20300  0.47100  0.75500  1.0000
  O   O17       1.0  0.26800  0.79700  0.75500  1.0000
  O   O18       1.0  0.52900  0.73200  0.75500  1.0000
  O   O19       1.0  0.21400  0.07570  0.75500  1.0000
  O   O20       1.0  0.86100  0.78600  0.75500  1.0000
  O   O21       1.0  0.92400  0.13900  0.75500  1.0000
  O   O22       1.0  0.50200  0.09560  0.92700  1.0000
  O   O23       1.0  0.59300  0.49800  0.92700  1.0000
  O   O24       1.0  0.90400  0.40700  0.92700  1.0000
  P   P1        1.0  0.02110  0.71700  0.25500  1.0000
  P   P2        1.0  0.28300  0.30400  0.25500  1.0000
  P   P3        1.0  0.69600  0.97900  0.25500  1.0000
  P   P4        1.0  0.38400  0.02910  0.75400  1.0000
  P   P5        1.0  0.64500  0.61600  0.75400  1.0000
  P   P6        1.0  0.97100  0.35500  0.75400  1.0000
