data_image0
_chemical_formula_structural       In16Pt12Sr8
_chemical_formula_sum              "In16 Pt12 Sr8"
_cell_length_a       14.8188
_cell_length_b       14.8188
_cell_length_c       4.52888
_cell_angle_alpha    90
_cell_angle_beta     90
_cell_angle_gamma    120

_space_group_name_H-M_alt    "P 1"
_space_group_IT_number       1

loop_
  _space_group_symop_operation_xyz
  'x, y, z'

loop_
  _atom_site_type_symbol
  _atom_site_label
  _atom_site_symmetry_multiplicity
  _atom_site_fract_x
  _atom_site_fract_y
  _atom_site_fract_z
  _atom_site_occupancy
  In  In1       1.0  0.00000  0.00000  0.00000  1.0000
  In  In2       1.0  0.80400  0.18300  0.00000  1.0000
  In  In3       1.0  0.37800  0.19600  0.00000  1.0000
  In  In4       1.0  0.19600  0.37800  0.00000  1.0000
  In  In5       1.0  0.81700  0.62200  0.00000  1.0000
  In  In6       1.0  0.18300  0.80400  0.00000  1.0000
  In  In7       1.0  0.62200  0.81700  0.00000  1.0000
  In  In8       1.0  0.72200  0.00000  0.50000  1.0000
  In  In9       1.0  0.47900  0.12500  0.50000  1.0000
  In  In10      1.0  0.27800  0.27800  0.50000  1.0000
  In  In11      1.0  0.87500  0.35400  0.50000  1.0000
  In  In12      1.0  0.12500  0.47900  0.50000  1.0000
  In  In13      1.0  0.64600  0.52100  0.50000  1.0000
  In  In14      1.0  0.52100  0.64600  0.50000  1.0000
  In  In15      1.0  0.00000  0.72200  0.50000  1.0000
  In  In16      1.0  0.35400  0.87500  0.50000  1.0000
  Pt  Pt1       1.0  0.35100  0.00000  0.00000  1.0000
  Pt  Pt2       1.0  0.82000  0.00000  0.00000  1.0000
  Pt  Pt3       1.0  0.18000  0.18000  0.00000  1.0000
  Pt  Pt4       1.0  0.00000  0.35100  0.00000  1.0000
  Pt  Pt5       1.0  0.64900  0.64900  0.00000  1.0000
  Pt  Pt6       1.0  0.00000  0.82000  0.00000  1.0000
  Pt  Pt7       1.0  0.68500  0.17000  0.50000  1.0000
  Pt  Pt8       1.0  0.48400  0.31500  0.50000  1.0000
  Pt  Pt9       1.0  0.31500  0.48400  0.50000  1.0000
  Pt  Pt10      1.0  0.83000  0.51600  0.50000  1.0000
  Pt  Pt11      1.0  0.17000  0.68500  0.50000  1.0000
  Pt  Pt12      1.0  0.51600  0.83000  0.50000  1.0000
  Sr  Sr1       1.0  0.55100  0.00000  0.00000  1.0000
  Sr  Sr2       1.0  0.66700  0.33300  0.00000  1.0000
  Sr  Sr3       1.0  0.44900  0.44900  0.00000  1.0000
  Sr  Sr4       1.0  0.00000  0.55100  0.00000  1.0000
  Sr  Sr5       1.0  0.33300  0.66700  0.00000  1.0000
  Sr  Sr6       1.0  0.18600  0.00000  0.50000  1.0000
  Sr  Sr7       1.0  0.00000  0.18600  0.50000  1.0000
  Sr  Sr8       1.0  0.81400  0.81400  0.50000  1.0000
