data_image0
_chemical_formula_structural       Al2B2H6Na2O20P4
_chemical_formula_sum              "Al2 B2 H6 Na2 O20 P4"
_cell_length_a       6.50026
_cell_length_b       6.50026
_cell_length_c       8.98214
_cell_angle_alpha    100.051
_cell_angle_beta     111.127
_cell_angle_gamma    105.117

_space_group_name_H-M_alt    "P 1"
_space_group_IT_number       1

loop_
  _space_group_symop_operation_xyz
  'x, y, z'

loop_
  _atom_site_type_symbol
  _atom_site_label
  _atom_site_symmetry_multiplicity
  _atom_site_fract_x
  _atom_site_fract_y
  _atom_site_fract_z
  _atom_site_occupancy
  Al  Al1       1.0  0.50000  0.00000  0.00000  1.0000
  Al  Al2       1.0  0.50000  0.50000  0.50000  1.0000
  B   B1        1.0  0.72100  0.47100  0.25000  1.0000
  B   B2        1.0  0.27900  0.52900  0.75000  1.0000
  H   H1        1.0  0.00000  0.50000  0.00000  1.0000
  H   H2        1.0  0.38000  0.32700  0.06420  1.0000
  H   H3        1.0  0.76300  0.31500  0.43600  1.0000
  H   H4        1.0  0.00000  0.00000  0.50000  1.0000
  H   H5        1.0  0.23700  0.68500  0.56400  1.0000
  H   H6        1.0  0.62000  0.67300  0.93600  1.0000
  Na  Na1       1.0  0.11700  0.86700  0.25000  1.0000
  Na  Na2       1.0  0.88300  0.13300  0.75000  1.0000
  O   O1        1.0  0.09090  0.36600  0.04170  1.0000
  O   O2        1.0  0.53100  0.30200  0.09610  1.0000
  O   O3        1.0  0.82500  0.06420  0.10800  1.0000
  O   O4        1.0  0.45800  0.92500  0.18500  1.0000
  O   O5        1.0  0.71800  0.69300  0.24300  1.0000
  O   O6        1.0  0.95000  0.47500  0.25700  1.0000
  O   O7        1.0  0.23900  0.27200  0.31500  1.0000
  O   O8        1.0  0.45700  0.71800  0.39200  1.0000
  O   O9        1.0  0.70600  0.43500  0.40400  1.0000
  O   O10       1.0  0.82400  0.04910  0.45800  1.0000
  O   O11       1.0  0.17600  0.95100  0.54200  1.0000
  O   O12       1.0  0.29400  0.56500  0.59600  1.0000
  O   O13       1.0  0.54300  0.28200  0.60800  1.0000
  O   O14       1.0  0.76100  0.72800  0.68500  1.0000
  O   O15       1.0  0.05020  0.52500  0.74300  1.0000
  O   O16       1.0  0.28200  0.30700  0.75700  1.0000
  O   O17       1.0  0.54200  0.07540  0.81500  1.0000
  O   O18       1.0  0.17500  0.93600  0.89200  1.0000
  O   O19       1.0  0.46900  0.69800  0.90400  1.0000
  O   O20       1.0  0.90900  0.63400  0.95800  1.0000
  P   P1        1.0  0.02680  0.29000  0.18000  1.0000
  P   P2        1.0  0.61000  0.84700  0.32000  1.0000
  P   P3        1.0  0.39000  0.15300  0.68000  1.0000
  P   P4        1.0  0.97300  0.71000  0.82000  1.0000
