data_image0
_chemical_formula_structural       C22F14
_chemical_formula_sum              "C22 F14"
_cell_length_a       5.68492
_cell_length_b       5.68492
_cell_length_c       12.6584
_cell_angle_alpha    100.114
_cell_angle_beta     79.8856
_cell_angle_gamma    98.3566

_space_group_name_H-M_alt    "P 1"
_space_group_IT_number       1

loop_
  _space_group_symop_operation_xyz
  'x, y, z'

loop_
  _atom_site_type_symbol
  _atom_site_label
  _atom_site_symmetry_multiplicity
  _atom_site_fract_x
  _atom_site_fract_y
  _atom_site_fract_z
  _atom_site_occupancy
  C   C1        1.0  0.39100  0.28600  0.03380  1.0000
  C   C2        1.0  0.71400  0.60900  0.03380  1.0000
  C   C3        1.0  0.60700  0.39300  0.06930  1.0000
  C   C4        1.0  0.71200  0.28800  0.13800  1.0000
  C   C5        1.0  0.80400  0.19600  0.19700  1.0000
  C   C6        1.0  0.91100  0.08920  0.26500  1.0000
  C   C7        1.0  0.12700  0.19500  0.30100  1.0000
  C   C8        1.0  0.80500  0.87300  0.30100  1.0000
  C   C9        1.0  0.23500  0.09000  0.36700  1.0000
  C   C10       1.0  0.91000  0.76500  0.36700  1.0000
  C   C11       1.0  0.12800  0.87200  0.39900  1.0000
  C   C12       1.0  0.87200  0.12800  0.60100  1.0000
  C   C13       1.0  0.09000  0.23500  0.63300  1.0000
  C   C14       1.0  0.76500  0.91000  0.63300  1.0000
  C   C15       1.0  0.19500  0.12700  0.69900  1.0000
  C   C16       1.0  0.87300  0.80500  0.69900  1.0000
  C   C17       1.0  0.08920  0.91100  0.73500  1.0000
  C   C18       1.0  0.19600  0.80400  0.80300  1.0000
  C   C19       1.0  0.28800  0.71200  0.86200  1.0000
  C   C20       1.0  0.39300  0.60700  0.93100  1.0000
  C   C21       1.0  0.28600  0.39100  0.96600  1.0000
  C   C22       1.0  0.60900  0.71400  0.96600  1.0000
  F   F1        1.0  0.28500  0.07870  0.06700  1.0000
  F   F2        1.0  0.92100  0.71500  0.06700  1.0000
  F   F3        1.0  0.23100  0.40500  0.26900  1.0000
  F   F4        1.0  0.59500  0.76900  0.26900  1.0000
  F   F5        1.0  0.44000  0.19600  0.40200  1.0000
  F   F6        1.0  0.80400  0.56000  0.40200  1.0000
  F   F7        1.0  0.23400  0.76600  0.46200  1.0000
  F   F8        1.0  0.76600  0.23400  0.53800  1.0000
  F   F9        1.0  0.19600  0.44000  0.59800  1.0000
  F   F10       1.0  0.56000  0.80400  0.59800  1.0000
  F   F11       1.0  0.40500  0.23100  0.73100  1.0000
  F   F12       1.0  0.76900  0.59500  0.73100  1.0000
  F   F13       1.0  0.07870  0.28500  0.93300  1.0000
  F   F14       1.0  0.71500  0.92100  0.93300  1.0000
