data_image0
_chemical_formula_structural       F2K4O20Sc2Si8
_chemical_formula_sum              "F2 K4 O20 Sc2 Si8"
_cell_length_a       8.1133
_cell_length_b       8.88472
_cell_length_c       8.88472
_cell_angle_alpha    102.033
_cell_angle_beta     117.167
_cell_angle_gamma    62.8329

_space_group_name_H-M_alt    "P 1"
_space_group_IT_number       1

loop_
  _space_group_symop_operation_xyz
  'x, y, z'

loop_
  _atom_site_type_symbol
  _atom_site_label
  _atom_site_symmetry_multiplicity
  _atom_site_fract_x
  _atom_site_fract_y
  _atom_site_fract_z
  _atom_site_occupancy
  F   F1        1.0  0.00000  0.00000  0.00000  1.0000
  F   F2        1.0  0.50000  0.00000  0.00000  1.0000
  K   K1        1.0  0.31600  0.36900  0.00098  1.0000
  K   K2        1.0  0.68500  0.99900  0.36900  1.0000
  K   K3        1.0  0.31500  0.00099  0.63100  1.0000
  K   K4        1.0  0.68400  0.63100  0.99900  1.0000
  O   O1        1.0  0.45200  0.81300  0.18000  1.0000
  O   O2        1.0  0.91600  0.81300  0.18000  1.0000
  O   O3        1.0  0.27100  0.18000  0.18700  1.0000
  O   O4        1.0  0.73600  0.18000  0.18700  1.0000
  O   O5        1.0  0.94100  0.37500  0.25600  1.0000
  O   O6        1.0  0.18800  0.49800  0.27100  1.0000
  O   O7        1.0  0.58500  0.49800  0.27100  1.0000
  O   O8        1.0  0.31500  0.74400  0.37500  1.0000
  O   O9        1.0  0.08320  0.72900  0.49800  1.0000
  O   O10       1.0  0.68600  0.72900  0.49800  1.0000
  O   O11       1.0  0.31400  0.27100  0.50200  1.0000
  O   O12       1.0  0.91700  0.27100  0.50200  1.0000
  O   O13       1.0  0.68500  0.25600  0.62500  1.0000
  O   O14       1.0  0.41500  0.50200  0.72900  1.0000
  O   O15       1.0  0.81200  0.50200  0.72900  1.0000
  O   O16       1.0  0.05920  0.62500  0.74400  1.0000
  O   O17       1.0  0.26400  0.82000  0.81300  1.0000
  O   O18       1.0  0.72900  0.82000  0.81300  1.0000
  O   O19       1.0  0.08400  0.18700  0.82000  1.0000
  O   O20       1.0  0.54800  0.18700  0.82000  1.0000
  Sc  Sc1       1.0  0.24600  0.00000  0.00000  1.0000
  Sc  Sc2       1.0  0.75400  0.00000  0.00000  1.0000
  Si  Si1       1.0  0.18000  0.32500  0.30200  1.0000
  Si  Si2       1.0  0.79600  0.32500  0.30200  1.0000
  Si  Si3       1.0  0.12100  0.69800  0.32500  1.0000
  Si  Si4       1.0  0.50500  0.69800  0.32500  1.0000
  Si  Si5       1.0  0.49500  0.30200  0.67500  1.0000
  Si  Si6       1.0  0.87900  0.30200  0.67500  1.0000
  Si  Si7       1.0  0.20400  0.67500  0.69800  1.0000
  Si  Si8       1.0  0.82000  0.67500  0.69800  1.0000
