data_image0
_chemical_formula_structural       Br24Cs8Sb4
_chemical_formula_sum              "Br24 Cs8 Sb4"
_cell_length_a       11.0077
_cell_length_b       11.0077
_cell_length_c       13.4898
_cell_angle_alpha    114.079
_cell_angle_beta     114.079
_cell_angle_gamma    90

_space_group_name_H-M_alt    "P 1"
_space_group_IT_number       1

loop_
  _space_group_symop_operation_xyz
  'x, y, z'

loop_
  _atom_site_type_symbol
  _atom_site_label
  _atom_site_symmetry_multiplicity
  _atom_site_fract_x
  _atom_site_fract_y
  _atom_site_fract_z
  _atom_site_occupancy
  Br  Br1       1.0  0.50200  0.25200  0.00310  1.0000
  Br  Br2       1.0  0.00200  0.75200  0.00400  1.0000
  Br  Br3       1.0  0.12500  0.62800  0.24900  1.0000
  Br  Br4       1.0  0.12500  0.12100  0.24900  1.0000
  Br  Br5       1.0  0.87200  0.37500  0.24900  1.0000
  Br  Br6       1.0  0.37800  0.37500  0.24900  1.0000
  Br  Br7       1.0  0.62500  0.62200  0.25100  1.0000
  Br  Br8       1.0  0.62500  0.12800  0.25100  1.0000
  Br  Br9       1.0  0.87900  0.87500  0.25100  1.0000
  Br  Br10      1.0  0.37200  0.87500  0.25100  1.0000
  Br  Br11      1.0  0.24800  0.99800  0.49600  1.0000
  Br  Br12      1.0  0.74800  0.49800  0.49700  1.0000
  Br  Br13      1.0  0.25200  0.50200  0.50300  1.0000
  Br  Br14      1.0  0.75200  0.00200  0.50400  1.0000
  Br  Br15      1.0  0.62800  0.12500  0.74900  1.0000
  Br  Br16      1.0  0.12100  0.12500  0.74900  1.0000
  Br  Br17      1.0  0.37500  0.87200  0.74900  1.0000
  Br  Br18      1.0  0.37500  0.37800  0.74900  1.0000
  Br  Br19      1.0  0.62200  0.62500  0.75100  1.0000
  Br  Br20      1.0  0.12800  0.62500  0.75100  1.0000
  Br  Br21      1.0  0.87500  0.87900  0.75100  1.0000
  Br  Br22      1.0  0.87500  0.37200  0.75100  1.0000
  Br  Br23      1.0  0.99800  0.24800  0.99600  1.0000
  Br  Br24      1.0  0.49800  0.74800  0.99700  1.0000
  Cs  Cs1       1.0  0.25200  0.00000  0.00000  1.0000
  Cs  Cs2       1.0  0.74800  0.00000  0.00000  1.0000
  Cs  Cs3       1.0  0.74800  0.50000  0.00000  1.0000
  Cs  Cs4       1.0  0.25200  0.50000  0.00000  1.0000
  Cs  Cs5       1.0  0.50000  0.74800  0.50000  1.0000
  Cs  Cs6       1.0  0.50000  0.25200  0.50000  1.0000
  Cs  Cs7       1.0  0.00000  0.74800  0.50000  1.0000
  Cs  Cs8       1.0  0.00000  0.25200  0.50000  1.0000
  Sb  Sb1       1.0  0.12500  0.87500  0.25000  1.0000
  Sb  Sb2       1.0  0.62500  0.37500  0.25000  1.0000
  Sb  Sb3       1.0  0.87500  0.12500  0.75000  1.0000
  Sb  Sb4       1.0  0.37500  0.62500  0.75000  1.0000
