data_image0
_chemical_formula_structural       Ba4Cu4O20Sm8
_chemical_formula_sum              "Ba4 Cu4 O20 Sm8"
_cell_length_a       5.74959
_cell_length_b       7.27043
_cell_length_c       12.3668
_cell_angle_alpha    90
_cell_angle_beta     90
_cell_angle_gamma    90

_space_group_name_H-M_alt    "P 1"
_space_group_IT_number       1

loop_
  _space_group_symop_operation_xyz
  'x, y, z'

loop_
  _atom_site_type_symbol
  _atom_site_label
  _atom_site_symmetry_multiplicity
  _atom_site_fract_x
  _atom_site_fract_y
  _atom_site_fract_z
  _atom_site_occupancy
  Ba  Ba1       1.0  0.75000  0.06900  0.09460  1.0000
  Ba  Ba2       1.0  0.25000  0.56900  0.40500  1.0000
  Ba  Ba3       1.0  0.75000  0.43100  0.59500  1.0000
  Ba  Ba4       1.0  0.25000  0.93100  0.90500  1.0000
  Cu  Cu1       1.0  0.25000  0.78700  0.15900  1.0000
  Cu  Cu2       1.0  0.75000  0.28700  0.34100  1.0000
  Cu  Cu3       1.0  0.25000  0.71300  0.65900  1.0000
  Cu  Cu4       1.0  0.75000  0.21300  0.84100  1.0000
  O   O1        1.0  0.01070  0.66900  0.06660  1.0000
  O   O2        1.0  0.48900  0.66900  0.06660  1.0000
  O   O3        1.0  0.25000  0.07560  0.09860  1.0000
  O   O4        1.0  0.50700  0.35100  0.22800  1.0000
  O   O5        1.0  0.99300  0.35100  0.22800  1.0000
  O   O6        1.0  0.00725  0.85100  0.27200  1.0000
  O   O7        1.0  0.49300  0.85100  0.27200  1.0000
  O   O8        1.0  0.75000  0.57600  0.40100  1.0000
  O   O9        1.0  0.51100  0.16900  0.43300  1.0000
  O   O10       1.0  0.98900  0.16900  0.43300  1.0000
  O   O11       1.0  0.01070  0.83100  0.56700  1.0000
  O   O12       1.0  0.48900  0.83100  0.56700  1.0000
  O   O13       1.0  0.25000  0.42400  0.59900  1.0000
  O   O14       1.0  0.50700  0.14900  0.72800  1.0000
  O   O15       1.0  0.99300  0.14900  0.72800  1.0000
  O   O16       1.0  0.00725  0.64900  0.77200  1.0000
  O   O17       1.0  0.49300  0.64900  0.77200  1.0000
  O   O18       1.0  0.75000  0.92400  0.90100  1.0000
  O   O19       1.0  0.51100  0.33100  0.93300  1.0000
  O   O20       1.0  0.98900  0.33100  0.93300  1.0000
  Sm  Sm1       1.0  0.25000  0.39500  0.07440  1.0000
  Sm  Sm2       1.0  0.75000  0.61400  0.21100  1.0000
  Sm  Sm3       1.0  0.25000  0.11400  0.28900  1.0000
  Sm  Sm4       1.0  0.75000  0.89500  0.42600  1.0000
  Sm  Sm5       1.0  0.25000  0.10500  0.57400  1.0000
  Sm  Sm6       1.0  0.75000  0.88600  0.71100  1.0000
  Sm  Sm7       1.0  0.25000  0.38600  0.78900  1.0000
  Sm  Sm8       1.0  0.75000  0.60500  0.92600  1.0000
