data_image0
_chemical_formula_structural       Cu4I4P16S12
_chemical_formula_sum              "Cu4 I4 P16 S12"
_cell_length_a       7.93788
_cell_length_b       10.567
_cell_length_c       11.621
_cell_angle_alpha    90
_cell_angle_beta     70.0298
_cell_angle_gamma    90

_space_group_name_H-M_alt    "P 1"
_space_group_IT_number       1

loop_
  _space_group_symop_operation_xyz
  'x, y, z'

loop_
  _atom_site_type_symbol
  _atom_site_label
  _atom_site_symmetry_multiplicity
  _atom_site_fract_x
  _atom_site_fract_y
  _atom_site_fract_z
  _atom_site_occupancy
  Cu  Cu1       1.0  0.30400  0.00000  0.00000  1.0000
  Cu  Cu2       1.0  0.69600  0.00000  0.00000  1.0000
  Cu  Cu3       1.0  0.19600  0.50000  0.00000  1.0000
  Cu  Cu4       1.0  0.80400  0.50000  0.00000  1.0000
  I   I1        1.0  0.46700  0.18900  0.06540  1.0000
  I   I2        1.0  0.96700  0.31100  0.06540  1.0000
  I   I3        1.0  0.03270  0.68900  0.93500  1.0000
  I   I4        1.0  0.53300  0.81100  0.93500  1.0000
  P   P1        1.0  0.27500  0.54500  0.16600  1.0000
  P   P2        1.0  0.55800  0.54500  0.16600  1.0000
  P   P3        1.0  0.05840  0.95500  0.16600  1.0000
  P   P4        1.0  0.77500  0.95500  0.16600  1.0000
  P   P5        1.0  0.37800  0.71500  0.24400  1.0000
  P   P6        1.0  0.87800  0.78500  0.24400  1.0000
  P   P7        1.0  0.78000  0.02730  0.44000  1.0000
  P   P8        1.0  0.28000  0.47300  0.44000  1.0000
  P   P9        1.0  0.72000  0.52700  0.56000  1.0000
  P   P10       1.0  0.22000  0.97300  0.56000  1.0000
  P   P11       1.0  0.12200  0.21500  0.75600  1.0000
  P   P12       1.0  0.62200  0.28500  0.75600  1.0000
  P   P13       1.0  0.22500  0.04510  0.83400  1.0000
  P   P14       1.0  0.94200  0.04510  0.83400  1.0000
  P   P15       1.0  0.44200  0.45500  0.83400  1.0000
  P   P16       1.0  0.72500  0.45500  0.83400  1.0000
  S   S1        1.0  0.04420  0.06450  0.32000  1.0000
  S   S2        1.0  0.63600  0.06450  0.32000  1.0000
  S   S3        1.0  0.13600  0.43600  0.32000  1.0000
  S   S4        1.0  0.54400  0.43600  0.32000  1.0000
  S   S5        1.0  0.28300  0.67400  0.43300  1.0000
  S   S6        1.0  0.78300  0.82600  0.43300  1.0000
  S   S7        1.0  0.21700  0.17400  0.56700  1.0000
  S   S8        1.0  0.71700  0.32600  0.56700  1.0000
  S   S9        1.0  0.45600  0.56400  0.68000  1.0000
  S   S10       1.0  0.86400  0.56400  0.68000  1.0000
  S   S11       1.0  0.36400  0.93600  0.68000  1.0000
  S   S12       1.0  0.95600  0.93600  0.68000  1.0000
