data_image0
_chemical_formula_structural       Ba8Cl24Co4
_chemical_formula_sum              "Ba8 Cl24 Co4"
_cell_length_a       9.17923
_cell_length_b       8.12748
_cell_length_c       12.8167
_cell_angle_alpha    90
_cell_angle_beta     89.7282
_cell_angle_gamma    90

_space_group_name_H-M_alt    "P 1"
_space_group_IT_number       1

loop_
  _space_group_symop_operation_xyz
  'x, y, z'

loop_
  _atom_site_type_symbol
  _atom_site_label
  _atom_site_symmetry_multiplicity
  _atom_site_fract_x
  _atom_site_fract_y
  _atom_site_fract_z
  _atom_site_occupancy
  Ba  Ba1       1.0  0.62300  0.72200  0.09540  1.0000
  Ba  Ba2       1.0  0.13900  0.60900  0.20600  1.0000
  Ba  Ba3       1.0  0.36100  0.10900  0.29400  1.0000
  Ba  Ba4       1.0  0.87700  0.22200  0.40500  1.0000
  Ba  Ba5       1.0  0.12300  0.77800  0.59500  1.0000
  Ba  Ba6       1.0  0.63900  0.89100  0.70600  1.0000
  Ba  Ba7       1.0  0.86100  0.39100  0.79400  1.0000
  Ba  Ba8       1.0  0.37700  0.27800  0.90500  1.0000
  Cl  Cl1       1.0  0.82600  0.42400  0.03890  1.0000
  Cl  Cl2       1.0  0.32100  0.92700  0.07030  1.0000
  Cl  Cl3       1.0  0.94900  0.85700  0.07690  1.0000
  Cl  Cl4       1.0  0.42100  0.40000  0.13300  1.0000
  Cl  Cl5       1.0  0.05780  0.23200  0.19600  1.0000
  Cl  Cl6       1.0  0.69600  0.08180  0.20200  1.0000
  Cl  Cl7       1.0  0.80400  0.58200  0.29800  1.0000
  Cl  Cl8       1.0  0.44200  0.73200  0.30400  1.0000
  Cl  Cl9       1.0  0.07900  0.90000  0.36700  1.0000
  Cl  Cl10      1.0  0.55100  0.35700  0.42300  1.0000
  Cl  Cl11      1.0  0.17900  0.42700  0.43000  1.0000
  Cl  Cl12      1.0  0.67400  0.92400  0.46100  1.0000
  Cl  Cl13      1.0  0.32600  0.07610  0.53900  1.0000
  Cl  Cl14      1.0  0.82100  0.57300  0.57000  1.0000
  Cl  Cl15      1.0  0.44900  0.64300  0.57700  1.0000
  Cl  Cl16      1.0  0.92100  0.10000  0.63300  1.0000
  Cl  Cl17      1.0  0.55800  0.26800  0.69600  1.0000
  Cl  Cl18      1.0  0.19600  0.41800  0.70200  1.0000
  Cl  Cl19      1.0  0.30400  0.91800  0.79800  1.0000
  Cl  Cl20      1.0  0.94200  0.76800  0.80400  1.0000
  Cl  Cl21      1.0  0.57900  0.60000  0.86700  1.0000
  Cl  Cl22      1.0  0.05120  0.14300  0.92300  1.0000
  Cl  Cl23      1.0  0.67900  0.07310  0.93000  1.0000
  Cl  Cl24      1.0  0.17400  0.57600  0.96100  1.0000
  Co  Co1       1.0  0.87200  0.14600  0.06730  1.0000
  Co  Co2       1.0  0.62800  0.64600  0.43300  1.0000
  Co  Co3       1.0  0.37200  0.35400  0.56700  1.0000
  Co  Co4       1.0  0.12800  0.85400  0.93300  1.0000
