data_image0
_chemical_formula_structural       Ge8Se20Sr8
_chemical_formula_sum              "Ge8 Se20 Sr8"
_cell_length_a       8.5762
_cell_length_b       12.4348
_cell_length_c       9.2896
_cell_angle_alpha    90
_cell_angle_beta     93.932
_cell_angle_gamma    90

_space_group_name_H-M_alt    "P 1"
_space_group_IT_number       1

loop_
  _space_group_symop_operation_xyz
  'x, y, z'

loop_
  _atom_site_type_symbol
  _atom_site_label
  _atom_site_symmetry_multiplicity
  _atom_site_fract_x
  _atom_site_fract_y
  _atom_site_fract_z
  _atom_site_occupancy
  Ge  Ge1       1.0  0.00661  0.55000  0.16500  1.0000
  Ge  Ge2       1.0  0.70100  0.98000  0.18700  1.0000
  Ge  Ge3       1.0  0.79900  0.48000  0.31300  1.0000
  Ge  Ge4       1.0  0.49300  0.05030  0.33500  1.0000
  Ge  Ge5       1.0  0.50700  0.95000  0.66500  1.0000
  Ge  Ge6       1.0  0.20100  0.52000  0.68700  1.0000
  Ge  Ge7       1.0  0.29900  0.01970  0.81300  1.0000
  Ge  Ge8       1.0  0.99300  0.45000  0.83500  1.0000
  Se  Se1       1.0  0.29400  0.94200  0.04430  1.0000
  Se  Se2       1.0  0.15800  0.41000  0.05930  1.0000
  Se  Se3       1.0  0.68700  0.78700  0.20500  1.0000
  Se  Se4       1.0  0.53700  0.50800  0.21400  1.0000
  Se  Se5       1.0  0.15700  0.70700  0.22000  1.0000
  Se  Se6       1.0  0.34300  0.20700  0.28000  1.0000
  Se  Se7       1.0  0.96300  0.00808  0.28600  1.0000
  Se  Se8       1.0  0.81300  0.28700  0.29500  1.0000
  Se  Se9       1.0  0.34200  0.91000  0.44100  1.0000
  Se  Se10      1.0  0.20600  0.44200  0.45600  1.0000
  Se  Se11      1.0  0.79400  0.55800  0.54400  1.0000
  Se  Se12      1.0  0.65800  0.08980  0.55900  1.0000
  Se  Se13      1.0  0.18700  0.71300  0.70500  1.0000
  Se  Se14      1.0  0.03690  0.99200  0.71400  1.0000
  Se  Se15      1.0  0.65700  0.79300  0.72000  1.0000
  Se  Se16      1.0  0.84300  0.29300  0.78000  1.0000
  Se  Se17      1.0  0.46300  0.49200  0.78600  1.0000
  Se  Se18      1.0  0.31300  0.21300  0.79500  1.0000
  Se  Se19      1.0  0.84200  0.59000  0.94100  1.0000
  Se  Se20      1.0  0.70600  0.05780  0.95600  1.0000
  Sr  Sr1       1.0  0.56100  0.30200  0.02270  1.0000
  Sr  Sr2       1.0  0.04480  0.16300  0.03180  1.0000
  Sr  Sr3       1.0  0.45500  0.66300  0.46800  1.0000
  Sr  Sr4       1.0  0.93900  0.80200  0.47700  1.0000
  Sr  Sr5       1.0  0.06070  0.19800  0.52300  1.0000
  Sr  Sr6       1.0  0.54500  0.33700  0.53200  1.0000
  Sr  Sr7       1.0  0.95500  0.83700  0.96800  1.0000
  Sr  Sr8       1.0  0.43900  0.69800  0.97700  1.0000
