data_image0
_chemical_formula_structural       H4Mn4O20Pb4V4
_chemical_formula_sum              "H4 Mn4 O20 Pb4 V4"
_cell_length_a       7.5885
_cell_length_b       6.18651
_cell_length_c       9.46598
_cell_angle_alpha    90
_cell_angle_beta     90
_cell_angle_gamma    90

_space_group_name_H-M_alt    "P 1"
_space_group_IT_number       1

loop_
  _space_group_symop_operation_xyz
  'x, y, z'

loop_
  _atom_site_type_symbol
  _atom_site_label
  _atom_site_symmetry_multiplicity
  _atom_site_fract_x
  _atom_site_fract_y
  _atom_site_fract_z
  _atom_site_occupancy
  H   H1        1.0  0.77500  0.25000  0.02200  1.0000
  H   H2        1.0  0.27500  0.25000  0.47800  1.0000
  H   H3        1.0  0.72500  0.75000  0.52200  1.0000
  H   H4        1.0  0.22500  0.75000  0.97800  1.0000
  Mn  Mn1       1.0  0.50000  0.00000  0.00000  1.0000
  Mn  Mn2       1.0  0.50000  0.50000  0.00000  1.0000
  Mn  Mn3       1.0  0.00000  0.00000  0.50000  1.0000
  Mn  Mn4       1.0  0.00000  0.50000  0.50000  1.0000
  O   O1        1.0  0.68500  0.75000  0.07180  1.0000
  O   O2        1.0  0.66000  0.25000  0.07300  1.0000
  O   O3        1.0  0.04520  0.75000  0.08060  1.0000
  O   O4        1.0  0.37600  0.51100  0.21000  1.0000
  O   O5        1.0  0.37600  0.98900  0.21000  1.0000
  O   O6        1.0  0.87600  0.51100  0.29000  1.0000
  O   O7        1.0  0.87600  0.98900  0.29000  1.0000
  O   O8        1.0  0.54500  0.75000  0.41900  1.0000
  O   O9        1.0  0.16000  0.25000  0.42700  1.0000
  O   O10       1.0  0.18500  0.75000  0.42800  1.0000
  O   O11       1.0  0.81500  0.25000  0.57200  1.0000
  O   O12       1.0  0.84000  0.75000  0.57300  1.0000
  O   O13       1.0  0.45500  0.25000  0.58100  1.0000
  O   O14       1.0  0.12400  0.01070  0.71000  1.0000
  O   O15       1.0  0.12400  0.48900  0.71000  1.0000
  O   O16       1.0  0.62400  0.01070  0.79000  1.0000
  O   O17       1.0  0.62400  0.48900  0.79000  1.0000
  O   O18       1.0  0.95500  0.25000  0.91900  1.0000
  O   O19       1.0  0.34000  0.75000  0.92700  1.0000
  O   O20       1.0  0.31500  0.25000  0.92800  1.0000
  Pb  Pb1       1.0  0.12800  0.25000  0.17700  1.0000
  Pb  Pb2       1.0  0.62800  0.25000  0.32300  1.0000
  Pb  Pb3       1.0  0.37200  0.75000  0.67700  1.0000
  Pb  Pb4       1.0  0.87200  0.75000  0.82300  1.0000
  V   V1        1.0  0.86700  0.75000  0.18800  1.0000
  V   V2        1.0  0.36700  0.75000  0.31200  1.0000
  V   V3        1.0  0.63300  0.25000  0.68800  1.0000
  V   V4        1.0  0.13300  0.25000  0.81200  1.0000
