data_image0
_chemical_formula_structural       Ce20Si16
_chemical_formula_sum              "Ce20 Si16"
_cell_length_a       8.01238
_cell_length_b       8.01238
_cell_length_c       15.505
_cell_angle_alpha    90
_cell_angle_beta     90
_cell_angle_gamma    90

_space_group_name_H-M_alt    "P 1"
_space_group_IT_number       1

loop_
  _space_group_symop_operation_xyz
  'x, y, z'

loop_
  _atom_site_type_symbol
  _atom_site_label
  _atom_site_symmetry_multiplicity
  _atom_site_fract_x
  _atom_site_fract_y
  _atom_site_fract_z
  _atom_site_occupancy
  Ce  Ce1       1.0  0.30800  0.30800  0.00000  1.0000
  Ce  Ce2       1.0  0.98800  0.62000  0.05330  1.0000
  Ce  Ce3       1.0  0.97900  0.12500  0.12400  1.0000
  Ce  Ce4       1.0  0.52100  0.62500  0.12600  1.0000
  Ce  Ce5       1.0  0.51200  0.12000  0.19700  1.0000
  Ce  Ce6       1.0  0.19200  0.80800  0.25000  1.0000
  Ce  Ce7       1.0  0.88000  0.48800  0.30300  1.0000
  Ce  Ce8       1.0  0.37500  0.47900  0.37400  1.0000
  Ce  Ce9       1.0  0.87500  0.02060  0.37600  1.0000
  Ce  Ce10      1.0  0.38000  0.01180  0.44700  1.0000
  Ce  Ce11      1.0  0.69200  0.69200  0.50000  1.0000
  Ce  Ce12      1.0  0.01180  0.38000  0.55300  1.0000
  Ce  Ce13      1.0  0.02060  0.87500  0.62400  1.0000
  Ce  Ce14      1.0  0.47900  0.37500  0.62600  1.0000
  Ce  Ce15      1.0  0.48800  0.88000  0.69700  1.0000
  Ce  Ce16      1.0  0.80800  0.19200  0.75000  1.0000
  Ce  Ce17      1.0  0.12000  0.51200  0.80300  1.0000
  Ce  Ce18      1.0  0.62500  0.52100  0.87400  1.0000
  Ce  Ce19      1.0  0.12500  0.97900  0.87600  1.0000
  Ce  Ce20      1.0  0.62000  0.98800  0.94700  1.0000
  Si  Si1       1.0  0.69400  0.32900  0.04560  1.0000
  Si  Si2       1.0  0.28800  0.92000  0.05950  1.0000
  Si  Si3       1.0  0.21200  0.42000  0.19000  1.0000
  Si  Si4       1.0  0.80600  0.82900  0.20400  1.0000
  Si  Si5       1.0  0.17100  0.19400  0.29600  1.0000
  Si  Si6       1.0  0.58000  0.78800  0.31000  1.0000
  Si  Si7       1.0  0.08000  0.71200  0.44000  1.0000
  Si  Si8       1.0  0.67100  0.30600  0.45400  1.0000
  Si  Si9       1.0  0.30600  0.67100  0.54600  1.0000
  Si  Si10      1.0  0.71200  0.08000  0.56000  1.0000
  Si  Si11      1.0  0.78800  0.58000  0.69000  1.0000
  Si  Si12      1.0  0.19400  0.17100  0.70400  1.0000
  Si  Si13      1.0  0.82900  0.80600  0.79600  1.0000
  Si  Si14      1.0  0.42000  0.21200  0.81000  1.0000
  Si  Si15      1.0  0.92000  0.28800  0.94000  1.0000
  Si  Si16      1.0  0.32900  0.69400  0.95400  1.0000
