data_image0
_chemical_formula_structural       As6Cl2O18Pb10
_chemical_formula_sum              "As6 Cl2 O18 Pb10"
_cell_length_a       10.6977
_cell_length_b       10.6838
_cell_length_c       6.74423
_cell_angle_alpha    90
_cell_angle_beta     90
_cell_angle_gamma    120.015

_space_group_name_H-M_alt    "P 1"
_space_group_IT_number       1

loop_
  _space_group_symop_operation_xyz
  'x, y, z'

loop_
  _atom_site_type_symbol
  _atom_site_label
  _atom_site_symmetry_multiplicity
  _atom_site_fract_x
  _atom_site_fract_y
  _atom_site_fract_z
  _atom_site_occupancy
  As  As1       1.0  0.96500  0.30100  0.29000  1.0000
  As  As2       1.0  0.33700  0.03460  0.29100  1.0000
  As  As3       1.0  0.69900  0.66300  0.29400  1.0000
  As  As4       1.0  0.03510  0.69900  0.79000  1.0000
  As  As5       1.0  0.66300  0.96500  0.79100  1.0000
  As  As6       1.0  0.30100  0.33700  0.79400  1.0000
  Cl  Cl1       1.0  0.33300  0.66600  0.21400  1.0000
  Cl  Cl2       1.0  0.66700  0.33400  0.71400  1.0000
  O   O1        1.0  0.45800  0.02430  0.11100  1.0000
  O   O2        1.0  0.97600  0.43400  0.11200  1.0000
  O   O3        1.0  0.56600  0.54200  0.11600  1.0000
  O   O4        1.0  0.02070  0.19300  0.15600  1.0000
  O   O5        1.0  0.17200  0.98100  0.15700  1.0000
  O   O6        1.0  0.80700  0.82800  0.16300  1.0000
  O   O7        1.0  0.80700  0.57800  0.28200  1.0000
  O   O8        1.0  0.77200  0.19300  0.28200  1.0000
  O   O9        1.0  0.42200  0.22800  0.28600  1.0000
  O   O10       1.0  0.54200  0.97600  0.61100  1.0000
  O   O11       1.0  0.02450  0.56600  0.61200  1.0000
  O   O12       1.0  0.43400  0.45800  0.61600  1.0000
  O   O13       1.0  0.97900  0.80700  0.65600  1.0000
  O   O14       1.0  0.82800  0.01940  0.65700  1.0000
  O   O15       1.0  0.19300  0.17200  0.66300  1.0000
  O   O16       1.0  0.19300  0.42200  0.78200  1.0000
  O   O17       1.0  0.22800  0.80700  0.78200  1.0000
  O   O18       1.0  0.57800  0.77200  0.78600  1.0000
  Pb  Pb1       1.0  0.66700  0.33300  0.15700  1.0000
  Pb  Pb2       1.0  0.61400  0.95000  0.27000  1.0000
  Pb  Pb3       1.0  0.05000  0.66400  0.27100  1.0000
  Pb  Pb4       1.0  0.33700  0.38600  0.27400  1.0000
  Pb  Pb5       1.0  0.00023  0.00000  0.43400  1.0000
  Pb  Pb6       1.0  0.33300  0.66700  0.65700  1.0000
  Pb  Pb7       1.0  0.38600  0.05030  0.77000  1.0000
  Pb  Pb8       1.0  0.95000  0.33600  0.77100  1.0000
  Pb  Pb9       1.0  0.66300  0.61400  0.77400  1.0000
  Pb  Pb10      1.0  0.00000  0.00000  0.93400  1.0000
