data_image0
_chemical_formula_structural       Ce16N8Te12
_chemical_formula_sum              "Ce16 N8 Te12"
_cell_length_a       7.49505
_cell_length_b       11.8844
_cell_length_c       11.5823
_cell_angle_alpha    90
_cell_angle_beta     90
_cell_angle_gamma    90

_space_group_name_H-M_alt    "P 1"
_space_group_IT_number       1

loop_
  _space_group_symop_operation_xyz
  'x, y, z'

loop_
  _atom_site_type_symbol
  _atom_site_label
  _atom_site_symmetry_multiplicity
  _atom_site_fract_x
  _atom_site_fract_y
  _atom_site_fract_z
  _atom_site_occupancy
  Ce  Ce1       1.0  0.22500  0.25000  0.03030  1.0000
  Ce  Ce2       1.0  0.64700  0.05100  0.11000  1.0000
  Ce  Ce3       1.0  0.64700  0.44900  0.11000  1.0000
  Ce  Ce4       1.0  0.40900  0.75000  0.16100  1.0000
  Ce  Ce5       1.0  0.90900  0.75000  0.33900  1.0000
  Ce  Ce6       1.0  0.14700  0.05100  0.39000  1.0000
  Ce  Ce7       1.0  0.14700  0.44900  0.39000  1.0000
  Ce  Ce8       1.0  0.72500  0.25000  0.47000  1.0000
  Ce  Ce9       1.0  0.27500  0.75000  0.53000  1.0000
  Ce  Ce10      1.0  0.85300  0.55100  0.61000  1.0000
  Ce  Ce11      1.0  0.85300  0.94900  0.61000  1.0000
  Ce  Ce12      1.0  0.09060  0.25000  0.66100  1.0000
  Ce  Ce13      1.0  0.59100  0.25000  0.83900  1.0000
  Ce  Ce14      1.0  0.35300  0.55100  0.89000  1.0000
  Ce  Ce15      1.0  0.35300  0.94900  0.89000  1.0000
  Ce  Ce16      1.0  0.77500  0.75000  0.97000  1.0000
  N   N1        1.0  0.55400  0.62200  0.03380  1.0000
  N   N2        1.0  0.55400  0.87800  0.03380  1.0000
  N   N3        1.0  0.05400  0.62200  0.46600  1.0000
  N   N4        1.0  0.05400  0.87800  0.46600  1.0000
  N   N5        1.0  0.94600  0.12200  0.53400  1.0000
  N   N6        1.0  0.94600  0.37800  0.53400  1.0000
  N   N7        1.0  0.44600  0.12200  0.96600  1.0000
  N   N8        1.0  0.44600  0.37800  0.96600  1.0000
  Te  Te1       1.0  0.06680  0.57800  0.13500  1.0000
  Te  Te2       1.0  0.06680  0.92200  0.13500  1.0000
  Te  Te3       1.0  0.92000  0.25000  0.22900  1.0000
  Te  Te4       1.0  0.42000  0.25000  0.27100  1.0000
  Te  Te5       1.0  0.56700  0.57800  0.36500  1.0000
  Te  Te6       1.0  0.56700  0.92200  0.36500  1.0000
  Te  Te7       1.0  0.43300  0.07800  0.63500  1.0000
  Te  Te8       1.0  0.43300  0.42200  0.63500  1.0000
  Te  Te9       1.0  0.58000  0.75000  0.72900  1.0000
  Te  Te10      1.0  0.07990  0.75000  0.77100  1.0000
  Te  Te11      1.0  0.93300  0.07800  0.86500  1.0000
  Te  Te12      1.0  0.93300  0.42200  0.86500  1.0000
