data_image0
_chemical_formula_structural       Br12Hg12Sb8Tl4
_chemical_formula_sum              "Br12 Hg12 Sb8 Tl4"
_cell_length_a       6.68927
_cell_length_b       13.3089
_cell_length_c       13.2929
_cell_angle_alpha    90
_cell_angle_beta     90
_cell_angle_gamma    90

_space_group_name_H-M_alt    "P 1"
_space_group_IT_number       1

loop_
  _space_group_symop_operation_xyz
  'x, y, z'

loop_
  _atom_site_type_symbol
  _atom_site_label
  _atom_site_symmetry_multiplicity
  _atom_site_fract_x
  _atom_site_fract_y
  _atom_site_fract_z
  _atom_site_occupancy
  Br  Br1       1.0  0.90400  0.25000  0.00000  1.0000
  Br  Br2       1.0  0.09560  0.75000  0.00000  1.0000
  Br  Br3       1.0  0.90500  0.00880  0.25000  1.0000
  Br  Br4       1.0  0.52400  0.29300  0.25000  1.0000
  Br  Br5       1.0  0.09540  0.50900  0.25000  1.0000
  Br  Br6       1.0  0.47600  0.79300  0.25000  1.0000
  Br  Br7       1.0  0.90400  0.25000  0.50000  1.0000
  Br  Br8       1.0  0.09560  0.75000  0.50000  1.0000
  Br  Br9       1.0  0.52400  0.20700  0.75000  1.0000
  Br  Br10      1.0  0.90500  0.49100  0.75000  1.0000
  Br  Br11      1.0  0.47600  0.70700  0.75000  1.0000
  Br  Br12      1.0  0.09540  0.99100  0.75000  1.0000
  Hg  Hg1       1.0  0.00000  0.00000  0.00000  1.0000
  Hg  Hg2       1.0  0.47000  0.25000  0.00000  1.0000
  Hg  Hg3       1.0  0.00000  0.50000  0.00000  1.0000
  Hg  Hg4       1.0  0.53000  0.75000  0.00000  1.0000
  Hg  Hg5       1.0  0.47100  0.01090  0.25000  1.0000
  Hg  Hg6       1.0  0.52900  0.51100  0.25000  1.0000
  Hg  Hg7       1.0  0.00000  0.00000  0.50000  1.0000
  Hg  Hg8       1.0  0.47000  0.25000  0.50000  1.0000
  Hg  Hg9       1.0  0.00000  0.50000  0.50000  1.0000
  Hg  Hg10      1.0  0.53000  0.75000  0.50000  1.0000
  Hg  Hg11      1.0  0.47100  0.48900  0.75000  1.0000
  Hg  Hg12      1.0  0.52900  0.98900  0.75000  1.0000
  Sb  Sb1       1.0  0.37200  0.05990  0.05720  1.0000
  Sb  Sb2       1.0  0.62800  0.56000  0.05720  1.0000
  Sb  Sb3       1.0  0.37200  0.05990  0.44300  1.0000
  Sb  Sb4       1.0  0.62800  0.56000  0.44300  1.0000
  Sb  Sb5       1.0  0.37200  0.44000  0.55700  1.0000
  Sb  Sb6       1.0  0.62800  0.94000  0.55700  1.0000
  Sb  Sb7       1.0  0.37200  0.44000  0.94300  1.0000
  Sb  Sb8       1.0  0.62800  0.94000  0.94300  1.0000
  Tl  Tl1       1.0  0.99900  0.25800  0.25000  1.0000
  Tl  Tl2       1.0  0.00126  0.75800  0.25000  1.0000
  Tl  Tl3       1.0  0.99900  0.24200  0.75000  1.0000
  Tl  Tl4       1.0  0.00126  0.74200  0.75000  1.0000
