data_image0
_chemical_formula_structural       Ca2H11KO18P4
_chemical_formula_sum              "Ca2 H11 K1 O18 P4"
_cell_length_a       5.58085
_cell_length_b       6.18401
_cell_length_c       11.9583
_cell_angle_alpha    76.5079
_cell_angle_beta     84.3319
_cell_angle_gamma    64.759

_space_group_name_H-M_alt    "P 1"
_space_group_IT_number       1

loop_
  _space_group_symop_operation_xyz
  'x, y, z'

loop_
  _atom_site_type_symbol
  _atom_site_label
  _atom_site_symmetry_multiplicity
  _atom_site_fract_x
  _atom_site_fract_y
  _atom_site_fract_z
  _atom_site_occupancy
  Ca  Ca1       1.0  0.99800  0.70400  0.10400  1.0000
  Ca  Ca2       1.0  0.99600  0.29200  0.90300  1.0000
  H   H1        1.0  0.63100  0.41500  0.19500  1.0000
  H   H2        1.0  0.37000  0.92500  0.21300  1.0000
  H   H3        1.0  0.02920  0.93700  0.30500  1.0000
  H   H4        1.0  0.27300  0.68300  0.31100  1.0000
  H   H5        1.0  0.97700  0.01440  0.48800  1.0000
  H   H6        1.0  0.48700  0.50600  0.50800  1.0000
  H   H7        1.0  0.98900  0.49900  0.50800  1.0000
  H   H8        1.0  0.73700  0.31900  0.69900  1.0000
  H   H9        1.0  0.96100  0.05640  0.70000  1.0000
  H   H10       1.0  0.62900  0.07440  0.79700  1.0000
  H   H11       1.0  0.36200  0.58300  0.81000  1.0000
  K   K1        1.0  0.49000  0.01510  0.53700  1.0000
  O   O1        1.0  0.24300  0.31600  0.03650  1.0000
  O   O2        1.0  0.75600  0.13900  0.03940  1.0000
  O   O3        1.0  0.45800  0.40500  0.17600  1.0000
  O   O4        1.0  0.53400  0.95900  0.19200  1.0000
  O   O5        1.0  0.86200  0.43000  0.23600  1.0000
  O   O6        1.0  0.15100  0.82600  0.25500  1.0000
  O   O7        1.0  0.56400  0.54800  0.40600  1.0000
  O   O8        1.0  0.87800  0.10400  0.40700  1.0000
  O   O9        1.0  0.06480  0.40100  0.42500  1.0000
  O   O10       1.0  0.92200  0.58400  0.58900  1.0000
  O   O11       1.0  0.09140  0.89900  0.59800  1.0000
  O   O12       1.0  0.42000  0.45800  0.60000  1.0000
  O   O13       1.0  0.84900  0.16800  0.75200  1.0000
  O   O14       1.0  0.13200  0.56500  0.77200  1.0000
  O   O15       1.0  0.46500  0.03740  0.81300  1.0000
  O   O16       1.0  0.53600  0.59600  0.82600  1.0000
  O   O17       1.0  0.23500  0.85700  0.96400  1.0000
  O   O18       1.0  0.74900  0.67800  0.97100  1.0000
  P   P1        1.0  0.49700  0.20700  0.10400  1.0000
  P   P2        1.0  0.84200  0.38300  0.36700  1.0000
  P   P3        1.0  0.14000  0.62600  0.64100  1.0000
  P   P4        1.0  0.49700  0.78900  0.90100  1.0000
