data_image0
_chemical_formula_structural       Sc24Te12
_chemical_formula_sum              "Sc24 Te12"
_cell_length_a       20.1215
_cell_length_b       3.91495
_cell_length_c       10.6859
_cell_angle_alpha    90
_cell_angle_beta     90
_cell_angle_gamma    90

_space_group_name_H-M_alt    "P 1"
_space_group_IT_number       1

loop_
  _space_group_symop_operation_xyz
  'x, y, z'

loop_
  _atom_site_type_symbol
  _atom_site_label
  _atom_site_symmetry_multiplicity
  _atom_site_fract_x
  _atom_site_fract_y
  _atom_site_fract_z
  _atom_site_occupancy
  Sc  Sc1       1.0  0.83700  0.25000  0.03460  1.0000
  Sc  Sc2       1.0  0.63700  0.25000  0.06980  1.0000
  Sc  Sc3       1.0  0.51000  0.75000  0.10700  1.0000
  Sc  Sc4       1.0  0.03260  0.25000  0.11900  1.0000
  Sc  Sc5       1.0  0.39300  0.25000  0.15700  1.0000
  Sc  Sc6       1.0  0.27200  0.75000  0.24700  1.0000
  Sc  Sc7       1.0  0.77200  0.75000  0.25300  1.0000
  Sc  Sc8       1.0  0.89300  0.25000  0.34300  1.0000
  Sc  Sc9       1.0  0.53300  0.25000  0.38100  1.0000
  Sc  Sc10      1.0  0.01010  0.75000  0.39300  1.0000
  Sc  Sc11      1.0  0.13700  0.25000  0.43000  1.0000
  Sc  Sc12      1.0  0.33700  0.25000  0.46500  1.0000
  Sc  Sc13      1.0  0.66300  0.75000  0.53500  1.0000
  Sc  Sc14      1.0  0.86300  0.75000  0.57000  1.0000
  Sc  Sc15      1.0  0.99000  0.25000  0.60700  1.0000
  Sc  Sc16      1.0  0.46700  0.75000  0.61900  1.0000
  Sc  Sc17      1.0  0.10700  0.75000  0.65700  1.0000
  Sc  Sc18      1.0  0.22800  0.25000  0.74700  1.0000
  Sc  Sc19      1.0  0.72800  0.25000  0.75300  1.0000
  Sc  Sc20      1.0  0.60700  0.75000  0.84300  1.0000
  Sc  Sc21      1.0  0.96700  0.75000  0.88100  1.0000
  Sc  Sc22      1.0  0.49000  0.25000  0.89300  1.0000
  Sc  Sc23      1.0  0.36300  0.75000  0.93000  1.0000
  Sc  Sc24      1.0  0.16300  0.75000  0.96500  1.0000
  Te  Te1       1.0  0.26400  0.25000  0.03240  1.0000
  Te  Te2       1.0  0.92500  0.75000  0.14700  1.0000
  Te  Te3       1.0  0.12600  0.75000  0.22300  1.0000
  Te  Te4       1.0  0.62600  0.75000  0.27700  1.0000
  Te  Te5       1.0  0.42500  0.75000  0.35300  1.0000
  Te  Te6       1.0  0.76400  0.25000  0.46800  1.0000
  Te  Te7       1.0  0.23600  0.75000  0.53200  1.0000
  Te  Te8       1.0  0.57500  0.25000  0.64700  1.0000
  Te  Te9       1.0  0.37400  0.25000  0.72300  1.0000
  Te  Te10      1.0  0.87400  0.25000  0.77700  1.0000
  Te  Te11      1.0  0.07460  0.25000  0.85300  1.0000
  Te  Te12      1.0  0.73600  0.75000  0.96800  1.0000
