data_image0
_chemical_formula_structural       Al8F8O16Si4
_chemical_formula_sum              "Al8 F8 O16 Si4"
_cell_length_a       4.62462
_cell_length_b       8.34391
_cell_length_c       8.77599
_cell_angle_alpha    90
_cell_angle_beta     90
_cell_angle_gamma    90

_space_group_name_H-M_alt    "P 1"
_space_group_IT_number       1

loop_
  _space_group_symop_operation_xyz
  'x, y, z'

loop_
  _atom_site_type_symbol
  _atom_site_label
  _atom_site_symmetry_multiplicity
  _atom_site_fract_x
  _atom_site_fract_y
  _atom_site_fract_z
  _atom_site_occupancy
  Al  Al1       1.0  0.90400  0.08260  0.13100  1.0000
  Al  Al2       1.0  0.90400  0.41700  0.13100  1.0000
  Al  Al3       1.0  0.40400  0.58300  0.36900  1.0000
  Al  Al4       1.0  0.40400  0.91700  0.36900  1.0000
  Al  Al5       1.0  0.59600  0.08260  0.63100  1.0000
  Al  Al6       1.0  0.59600  0.41700  0.63100  1.0000
  Al  Al7       1.0  0.09620  0.58300  0.86900  1.0000
  Al  Al8       1.0  0.09620  0.91700  0.86900  1.0000
  F   F1        1.0  0.09100  0.56200  0.24800  1.0000
  F   F2        1.0  0.09100  0.93800  0.24800  1.0000
  F   F3        1.0  0.59100  0.06190  0.25200  1.0000
  F   F4        1.0  0.59100  0.43800  0.25200  1.0000
  F   F5        1.0  0.40900  0.56200  0.74800  1.0000
  F   F6        1.0  0.40900  0.93800  0.74800  1.0000
  F   F7        1.0  0.90900  0.06190  0.75200  1.0000
  F   F8        1.0  0.90900  0.43800  0.75200  1.0000
  O   O1        1.0  0.78400  0.59000  0.00876  1.0000
  O   O2        1.0  0.78400  0.91000  0.00876  1.0000
  O   O3        1.0  0.71200  0.25000  0.02890  1.0000
  O   O4        1.0  0.54700  0.75000  0.24500  1.0000
  O   O5        1.0  0.04660  0.25000  0.25500  1.0000
  O   O6        1.0  0.21200  0.75000  0.47100  1.0000
  O   O7        1.0  0.28400  0.09010  0.49100  1.0000
  O   O8        1.0  0.28400  0.41000  0.49100  1.0000
  O   O9        1.0  0.71600  0.59000  0.50900  1.0000
  O   O10       1.0  0.71600  0.91000  0.50900  1.0000
  O   O11       1.0  0.78800  0.25000  0.52900  1.0000
  O   O12       1.0  0.95300  0.75000  0.74500  1.0000
  O   O13       1.0  0.45300  0.25000  0.75500  1.0000
  O   O14       1.0  0.28800  0.75000  0.97100  1.0000
  O   O15       1.0  0.21600  0.09010  0.99100  1.0000
  O   O16       1.0  0.21600  0.41000  0.99100  1.0000
  Si  Si1       1.0  0.60000  0.75000  0.05960  1.0000
  Si  Si2       1.0  0.10000  0.25000  0.44000  1.0000
  Si  Si3       1.0  0.90000  0.75000  0.56000  1.0000
  Si  Si4       1.0  0.40000  0.25000  0.94000  1.0000
