data_image0
_chemical_formula_structural       Ba2O22V12
_chemical_formula_sum              "Ba2 O22 V12"
_cell_length_a       5.86424
_cell_length_b       5.86424
_cell_length_c       13.3815
_cell_angle_alpha    90
_cell_angle_beta     90
_cell_angle_gamma    120

_space_group_name_H-M_alt    "P 1"
_space_group_IT_number       1

loop_
  _space_group_symop_operation_xyz
  'x, y, z'

loop_
  _atom_site_type_symbol
  _atom_site_label
  _atom_site_symmetry_multiplicity
  _atom_site_fract_x
  _atom_site_fract_y
  _atom_site_fract_z
  _atom_site_occupancy
  Ba  Ba1       1.0  0.33300  0.66700  0.25000  1.0000
  Ba  Ba2       1.0  0.66700  0.33300  0.75000  1.0000
  O   O1        1.0  0.17500  0.34900  0.07820  1.0000
  O   O2        1.0  0.65100  0.82500  0.07820  1.0000
  O   O3        1.0  0.17500  0.82500  0.07820  1.0000
  O   O4        1.0  0.66700  0.33300  0.08580  1.0000
  O   O5        1.0  0.29600  0.14800  0.25000  1.0000
  O   O6        1.0  0.85200  0.14800  0.25000  1.0000
  O   O7        1.0  0.85200  0.70400  0.25000  1.0000
  O   O8        1.0  0.66700  0.33300  0.41400  1.0000
  O   O9        1.0  0.17500  0.34900  0.42200  1.0000
  O   O10       1.0  0.65100  0.82500  0.42200  1.0000
  O   O11       1.0  0.17500  0.82500  0.42200  1.0000
  O   O12       1.0  0.82500  0.17500  0.57800  1.0000
  O   O13       1.0  0.34900  0.17500  0.57800  1.0000
  O   O14       1.0  0.82500  0.65100  0.57800  1.0000
  O   O15       1.0  0.33300  0.66700  0.58600  1.0000
  O   O16       1.0  0.14800  0.29600  0.75000  1.0000
  O   O17       1.0  0.14800  0.85200  0.75000  1.0000
  O   O18       1.0  0.70400  0.85200  0.75000  1.0000
  O   O19       1.0  0.33300  0.66700  0.91400  1.0000
  O   O20       1.0  0.82500  0.17500  0.92200  1.0000
  O   O21       1.0  0.34900  0.17500  0.92200  1.0000
  O   O22       1.0  0.82500  0.65100  0.92200  1.0000
  V   V1        1.0  0.50000  0.00000  0.00000  1.0000
  V   V2        1.0  0.00000  0.50000  0.00000  1.0000
  V   V3        1.0  0.50000  0.50000  0.00000  1.0000
  V   V4        1.0  0.00000  0.00000  0.14600  1.0000
  V   V5        1.0  0.66700  0.33300  0.25000  1.0000
  V   V6        1.0  0.00000  0.00000  0.35400  1.0000
  V   V7        1.0  0.50000  0.00000  0.50000  1.0000
  V   V8        1.0  0.00000  0.50000  0.50000  1.0000
  V   V9        1.0  0.50000  0.50000  0.50000  1.0000
  V   V10       1.0  0.00000  0.00000  0.64600  1.0000
  V   V11       1.0  0.33300  0.66700  0.75000  1.0000
  V   V12       1.0  0.00000  0.00000  0.85400  1.0000
