data_image0
_chemical_formula_structural       Na16Se16Si4
_chemical_formula_sum              "Na16 Se16 Si4"
_cell_length_a       14.1417
_cell_length_b       9.18317
_cell_length_c       7.12736
_cell_angle_alpha    90
_cell_angle_beta     90
_cell_angle_gamma    90

_space_group_name_H-M_alt    "P 1"
_space_group_IT_number       1

loop_
  _space_group_symop_operation_xyz
  'x, y, z'

loop_
  _atom_site_type_symbol
  _atom_site_label
  _atom_site_symmetry_multiplicity
  _atom_site_fract_x
  _atom_site_fract_y
  _atom_site_fract_z
  _atom_site_occupancy
  Na  Na1       1.0  0.00000  0.00000  0.00000  1.0000
  Na  Na2       1.0  0.00000  0.50000  0.00000  1.0000
  Na  Na3       1.0  0.54600  0.75000  0.00324  1.0000
  Na  Na4       1.0  0.26700  0.55200  0.13900  1.0000
  Na  Na5       1.0  0.26700  0.94800  0.13900  1.0000
  Na  Na6       1.0  0.76700  0.55200  0.36100  1.0000
  Na  Na7       1.0  0.76700  0.94800  0.36100  1.0000
  Na  Na8       1.0  0.04630  0.75000  0.49700  1.0000
  Na  Na9       1.0  0.50000  0.00000  0.50000  1.0000
  Na  Na10      1.0  0.50000  0.50000  0.50000  1.0000
  Na  Na11      1.0  0.95400  0.25000  0.50300  1.0000
  Na  Na12      1.0  0.23300  0.05170  0.63900  1.0000
  Na  Na13      1.0  0.23300  0.44800  0.63900  1.0000
  Na  Na14      1.0  0.73300  0.05170  0.86100  1.0000
  Na  Na15      1.0  0.73300  0.44800  0.86100  1.0000
  Na  Na16      1.0  0.45400  0.25000  0.99700  1.0000
  Se  Se1       1.0  0.86200  0.75000  0.09700  1.0000
  Se  Se2       1.0  0.59500  0.04690  0.15500  1.0000
  Se  Se3       1.0  0.59500  0.45300  0.15500  1.0000
  Se  Se4       1.0  0.82100  0.25000  0.18200  1.0000
  Se  Se5       1.0  0.32100  0.25000  0.31800  1.0000
  Se  Se6       1.0  0.09460  0.04690  0.34500  1.0000
  Se  Se7       1.0  0.09460  0.45300  0.34500  1.0000
  Se  Se8       1.0  0.36200  0.75000  0.40300  1.0000
  Se  Se9       1.0  0.63800  0.25000  0.59700  1.0000
  Se  Se10      1.0  0.90500  0.54700  0.65500  1.0000
  Se  Se11      1.0  0.90500  0.95300  0.65500  1.0000
  Se  Se12      1.0  0.67900  0.75000  0.68200  1.0000
  Se  Se13      1.0  0.17900  0.75000  0.81800  1.0000
  Se  Se14      1.0  0.40500  0.54700  0.84500  1.0000
  Se  Se15      1.0  0.40500  0.95300  0.84500  1.0000
  Se  Se16      1.0  0.13800  0.25000  0.90300  1.0000
  Si  Si1       1.0  0.16600  0.25000  0.22100  1.0000
  Si  Si2       1.0  0.66600  0.25000  0.27900  1.0000
  Si  Si3       1.0  0.33400  0.75000  0.72100  1.0000
  Si  Si4       1.0  0.83400  0.75000  0.77900  1.0000
