data_image0
_chemical_formula_structural       Ge4O16Rb16
_chemical_formula_sum              "Ge4 O16 Rb16"
_cell_length_a       11.0119
_cell_length_b       6.73876
_cell_length_c       10.8269
_cell_angle_alpha    90
_cell_angle_beta     112.472
_cell_angle_gamma    90

_space_group_name_H-M_alt    "P 1"
_space_group_IT_number       1

loop_
  _space_group_symop_operation_xyz
  'x, y, z'

loop_
  _atom_site_type_symbol
  _atom_site_label
  _atom_site_symmetry_multiplicity
  _atom_site_fract_x
  _atom_site_fract_y
  _atom_site_fract_z
  _atom_site_occupancy
  Ge  Ge1       1.0  0.26000  0.12300  0.01400  1.0000
  Ge  Ge2       1.0  0.74000  0.62300  0.48600  1.0000
  Ge  Ge3       1.0  0.26000  0.37700  0.51400  1.0000
  Ge  Ge4       1.0  0.74000  0.87700  0.98600  1.0000
  O   O1        1.0  0.85100  0.67400  0.00020  1.0000
  O   O2        1.0  0.41300  0.22800  0.02380  1.0000
  O   O3        1.0  0.81300  0.03380  0.13000  1.0000
  O   O4        1.0  0.29100  0.98800  0.16600  1.0000
  O   O5        1.0  0.70900  0.48800  0.33400  1.0000
  O   O6        1.0  0.18700  0.53400  0.37000  1.0000
  O   O7        1.0  0.58700  0.72800  0.47600  1.0000
  O   O8        1.0  0.14900  0.17400  0.50000  1.0000
  O   O9        1.0  0.85100  0.82600  0.50000  1.0000
  O   O10       1.0  0.41300  0.27200  0.52400  1.0000
  O   O11       1.0  0.81300  0.46600  0.63000  1.0000
  O   O12       1.0  0.29100  0.51200  0.66600  1.0000
  O   O13       1.0  0.70900  0.01170  0.83400  1.0000
  O   O14       1.0  0.18700  0.96600  0.87000  1.0000
  O   O15       1.0  0.58700  0.77200  0.97600  1.0000
  O   O16       1.0  0.14900  0.32600  0.00000  1.0000
  Rb  Rb1       1.0  0.65400  0.38200  0.07300  1.0000
  Rb  Rb2       1.0  0.12500  0.67500  0.10700  1.0000
  Rb  Rb3       1.0  0.57000  0.91700  0.20900  1.0000
  Rb  Rb4       1.0  0.08300  0.17900  0.21400  1.0000
  Rb  Rb5       1.0  0.91700  0.67900  0.28600  1.0000
  Rb  Rb6       1.0  0.43000  0.41700  0.29100  1.0000
  Rb  Rb7       1.0  0.87500  0.17500  0.39300  1.0000
  Rb  Rb8       1.0  0.34600  0.88200  0.42700  1.0000
  Rb  Rb9       1.0  0.65400  0.11800  0.57300  1.0000
  Rb  Rb10      1.0  0.12500  0.82500  0.60700  1.0000
  Rb  Rb11      1.0  0.57000  0.58300  0.70900  1.0000
  Rb  Rb12      1.0  0.08300  0.32100  0.71400  1.0000
  Rb  Rb13      1.0  0.91700  0.82100  0.78600  1.0000
  Rb  Rb14      1.0  0.43000  0.08260  0.79100  1.0000
  Rb  Rb15      1.0  0.87500  0.32500  0.89300  1.0000
  Rb  Rb16      1.0  0.34600  0.61800  0.92700  1.0000
