data_image0
_chemical_formula_structural       Al8F8Ge4O16
_chemical_formula_sum              "Al8 F8 Ge4 O16"
_cell_length_a       8.95923
_cell_length_b       8.48731
_cell_length_c       4.72709
_cell_angle_alpha    90
_cell_angle_beta     90
_cell_angle_gamma    90

_space_group_name_H-M_alt    "P 1"
_space_group_IT_number       1

loop_
  _space_group_symop_operation_xyz
  'x, y, z'

loop_
  _atom_site_type_symbol
  _atom_site_label
  _atom_site_symmetry_multiplicity
  _atom_site_fract_x
  _atom_site_fract_y
  _atom_site_fract_z
  _atom_site_occupancy
  Al  Al1       1.0  0.36900  0.58200  0.09290  1.0000
  Al  Al2       1.0  0.36900  0.91800  0.09290  1.0000
  Al  Al3       1.0  0.86900  0.58200  0.40700  1.0000
  Al  Al4       1.0  0.86900  0.91800  0.40700  1.0000
  Al  Al5       1.0  0.13100  0.08190  0.59300  1.0000
  Al  Al6       1.0  0.13100  0.41800  0.59300  1.0000
  Al  Al7       1.0  0.63100  0.08190  0.90700  1.0000
  Al  Al8       1.0  0.63100  0.41800  0.90700  1.0000
  F   F1        1.0  0.74900  0.55800  0.09830  1.0000
  F   F2        1.0  0.74900  0.94200  0.09830  1.0000
  F   F3        1.0  0.24900  0.55800  0.40200  1.0000
  F   F4        1.0  0.24900  0.94200  0.40200  1.0000
  F   F5        1.0  0.75100  0.05810  0.59800  1.0000
  F   F6        1.0  0.75100  0.44200  0.59800  1.0000
  F   F7        1.0  0.25100  0.05810  0.90200  1.0000
  F   F8        1.0  0.25100  0.44200  0.90200  1.0000
  Ge  Ge1       1.0  0.94000  0.25000  0.09860  1.0000
  Ge  Ge2       1.0  0.44000  0.25000  0.40100  1.0000
  Ge  Ge3       1.0  0.56000  0.75000  0.59900  1.0000
  Ge  Ge4       1.0  0.05990  0.75000  0.90100  1.0000
  O   O1        1.0  0.74500  0.25000  0.04990  1.0000
  O   O2        1.0  0.49300  0.08120  0.21100  1.0000
  O   O3        1.0  0.49300  0.41900  0.21100  1.0000
  O   O4        1.0  0.96800  0.75000  0.22800  1.0000
  O   O5        1.0  0.46800  0.75000  0.27200  1.0000
  O   O6        1.0  0.99300  0.08120  0.28900  1.0000
  O   O7        1.0  0.99300  0.41900  0.28900  1.0000
  O   O8        1.0  0.24500  0.25000  0.45000  1.0000
  O   O9        1.0  0.75500  0.75000  0.55000  1.0000
  O   O10       1.0  0.00668  0.58100  0.71100  1.0000
  O   O11       1.0  0.00668  0.91900  0.71100  1.0000
  O   O12       1.0  0.53200  0.25000  0.72800  1.0000
  O   O13       1.0  0.03160  0.25000  0.77200  1.0000
  O   O14       1.0  0.50700  0.58100  0.78900  1.0000
  O   O15       1.0  0.50700  0.91900  0.78900  1.0000
  O   O16       1.0  0.25500  0.75000  0.95000  1.0000
