data_image0
_chemical_formula_structural       Ca5P12Rh19
_chemical_formula_sum              "Ca5 P12 Rh19"
_cell_length_a       12.6982
_cell_length_b       12.6982
_cell_length_c       3.92924
_cell_angle_alpha    90
_cell_angle_beta     90
_cell_angle_gamma    119.998

_space_group_name_H-M_alt    "P 1"
_space_group_IT_number       1

loop_
  _space_group_symop_operation_xyz
  'x, y, z'

loop_
  _atom_site_type_symbol
  _atom_site_label
  _atom_site_symmetry_multiplicity
  _atom_site_fract_x
  _atom_site_fract_y
  _atom_site_fract_z
  _atom_site_occupancy
  Ca  Ca1       1.0  0.66700  0.33300  0.00000  1.0000
  Ca  Ca2       1.0  0.33300  0.66700  0.00000  1.0000
  Ca  Ca3       1.0  0.18400  0.00000  0.50000  1.0000
  Ca  Ca4       1.0  0.00000  0.18400  0.50000  1.0000
  Ca  Ca5       1.0  0.81600  0.81600  0.50000  1.0000
  P   P1        1.0  0.36500  0.00000  0.00000  1.0000
  P   P2        1.0  0.81900  0.00000  0.00000  1.0000
  P   P3        1.0  0.18100  0.18100  0.00000  1.0000
  P   P4        1.0  0.00000  0.36500  0.00000  1.0000
  P   P5        1.0  0.63500  0.63500  0.00000  1.0000
  P   P6        1.0  0.00000  0.81900  0.00000  1.0000
  P   P7        1.0  0.68600  0.16800  0.50000  1.0000
  P   P8        1.0  0.48200  0.31400  0.50000  1.0000
  P   P9        1.0  0.31400  0.48200  0.50000  1.0000
  P   P10       1.0  0.83200  0.51800  0.50000  1.0000
  P   P11       1.0  0.16800  0.68600  0.50000  1.0000
  P   P12       1.0  0.51800  0.83200  0.50000  1.0000
  Rh  Rh1       1.0  0.00000  0.00000  0.00000  1.0000
  Rh  Rh2       1.0  0.54600  0.00000  0.00000  1.0000
  Rh  Rh3       1.0  0.80400  0.18100  0.00000  1.0000
  Rh  Rh4       1.0  0.37600  0.19600  0.00000  1.0000
  Rh  Rh5       1.0  0.19600  0.37600  0.00000  1.0000
  Rh  Rh6       1.0  0.45400  0.45400  0.00000  1.0000
  Rh  Rh7       1.0  0.00000  0.54600  0.00000  1.0000
  Rh  Rh8       1.0  0.82000  0.62400  0.00000  1.0000
  Rh  Rh9       1.0  0.18100  0.80400  0.00000  1.0000
  Rh  Rh10      1.0  0.62400  0.82000  0.00000  1.0000
  Rh  Rh11      1.0  0.71600  0.00000  0.50000  1.0000
  Rh  Rh12      1.0  0.48800  0.12900  0.50000  1.0000
  Rh  Rh13      1.0  0.28400  0.28400  0.50000  1.0000
  Rh  Rh14      1.0  0.87100  0.35900  0.50000  1.0000
  Rh  Rh15      1.0  0.12900  0.48800  0.50000  1.0000
  Rh  Rh16      1.0  0.64100  0.51200  0.50000  1.0000
  Rh  Rh17      1.0  0.51200  0.64100  0.50000  1.0000
  Rh  Rh18      1.0  0.00000  0.71600  0.50000  1.0000
  Rh  Rh19      1.0  0.35900  0.87100  0.50000  1.0000
