data_image0
_chemical_formula_structural       Bi12K12Na8Sn4
_chemical_formula_sum              "Bi12 K12 Na8 Sn4"
_cell_length_a       7.19507
_cell_length_b       14.2366
_cell_length_c       14.2366
_cell_angle_alpha    98.8419
_cell_angle_beta     104.637
_cell_angle_gamma    104.637

_space_group_name_H-M_alt    "P 1"
_space_group_IT_number       1

loop_
  _space_group_symop_operation_xyz
  'x, y, z'

loop_
  _atom_site_type_symbol
  _atom_site_label
  _atom_site_symmetry_multiplicity
  _atom_site_fract_x
  _atom_site_fract_y
  _atom_site_fract_z
  _atom_site_occupancy
  Bi  Bi1       1.0  0.15000  0.70300  0.02360  1.0000
  Bi  Bi2       1.0  0.39700  0.14700  0.14700  1.0000
  Bi  Bi3       1.0  0.65000  0.52400  0.20300  1.0000
  Bi  Bi4       1.0  0.92400  0.97600  0.29700  1.0000
  Bi  Bi5       1.0  0.10300  0.35300  0.35300  1.0000
  Bi  Bi6       1.0  0.42400  0.79700  0.47600  1.0000
  Bi  Bi7       1.0  0.57600  0.20300  0.52400  1.0000
  Bi  Bi8       1.0  0.89700  0.64700  0.64700  1.0000
  Bi  Bi9       1.0  0.07590  0.02360  0.70300  1.0000
  Bi  Bi10      1.0  0.35000  0.47600  0.79700  1.0000
  Bi  Bi11      1.0  0.60300  0.85300  0.85300  1.0000
  Bi  Bi12      1.0  0.85000  0.29700  0.97600  1.0000
  K   K1        1.0  0.82700  0.07680  0.07680  1.0000
  K   K2        1.0  0.70300  0.75600  0.08760  1.0000
  K   K3        1.0  0.35900  0.91200  0.24400  1.0000
  K   K4        1.0  0.20300  0.58800  0.25600  1.0000
  K   K5        1.0  0.85900  0.74400  0.41200  1.0000
  K   K6        1.0  0.67300  0.42300  0.42300  1.0000
  K   K7        1.0  0.32700  0.57700  0.57700  1.0000
  K   K8        1.0  0.14100  0.25600  0.58800  1.0000
  K   K9        1.0  0.79700  0.41200  0.74400  1.0000
  K   K10       1.0  0.64100  0.08760  0.75600  1.0000
  K   K11       1.0  0.29700  0.24400  0.91200  1.0000
  K   K12       1.0  0.17300  0.92300  0.92300  1.0000
  Na  Na1       1.0  0.25000  0.49700  0.00305  1.0000
  Na  Na2       1.0  0.25000  0.33800  0.16200  1.0000
  Na  Na3       1.0  0.75000  0.16200  0.33800  1.0000
  Na  Na4       1.0  0.75000  0.00305  0.49700  1.0000
  Na  Na5       1.0  0.25000  0.99700  0.50300  1.0000
  Na  Na6       1.0  0.25000  0.83800  0.66200  1.0000
  Na  Na7       1.0  0.75000  0.66200  0.83800  1.0000
  Na  Na8       1.0  0.75000  0.50300  0.99700  1.0000
  Sn  Sn1       1.0  0.75000  0.33300  0.16700  1.0000
  Sn  Sn2       1.0  0.25000  0.16700  0.33300  1.0000
  Sn  Sn3       1.0  0.75000  0.83300  0.66700  1.0000
  Sn  Sn4       1.0  0.25000  0.66700  0.83300  1.0000
