data_image0
_chemical_formula_structural       Ba8Ge8Se20
_chemical_formula_sum              "Ba8 Ge8 Se20"
_cell_length_a       12.8088
_cell_length_b       9.25457
_cell_length_c       9.35231
_cell_angle_alpha    90
_cell_angle_beta     90
_cell_angle_gamma    90

_space_group_name_H-M_alt    "P 1"
_space_group_IT_number       1

loop_
  _space_group_symop_operation_xyz
  'x, y, z'

loop_
  _atom_site_type_symbol
  _atom_site_label
  _atom_site_symmetry_multiplicity
  _atom_site_fract_x
  _atom_site_fract_y
  _atom_site_fract_z
  _atom_site_occupancy
  Ba  Ba1       1.0  0.82200  0.50500  0.12200  1.0000
  Ba  Ba2       1.0  0.82200  0.99500  0.12200  1.0000
  Ba  Ba3       1.0  0.32200  0.50500  0.37800  1.0000
  Ba  Ba4       1.0  0.32200  0.99500  0.37800  1.0000
  Ba  Ba5       1.0  0.67800  0.00488  0.62200  1.0000
  Ba  Ba6       1.0  0.67800  0.49500  0.62200  1.0000
  Ba  Ba7       1.0  0.17800  0.00488  0.87800  1.0000
  Ba  Ba8       1.0  0.17800  0.49500  0.87800  1.0000
  Ge  Ge1       1.0  0.46500  0.25000  0.02670  1.0000
  Ge  Ge2       1.0  0.09650  0.75000  0.18200  1.0000
  Ge  Ge3       1.0  0.59600  0.75000  0.31800  1.0000
  Ge  Ge4       1.0  0.96500  0.25000  0.47300  1.0000
  Ge  Ge5       1.0  0.03500  0.75000  0.52700  1.0000
  Ge  Ge6       1.0  0.40400  0.25000  0.68200  1.0000
  Ge  Ge7       1.0  0.90400  0.25000  0.81800  1.0000
  Ge  Ge8       1.0  0.53500  0.75000  0.97300  1.0000
  Se  Se1       1.0  0.00581  0.25000  0.02690  1.0000
  Se  Se2       1.0  0.27600  0.75000  0.11500  1.0000
  Se  Se3       1.0  0.28300  0.25000  0.11900  1.0000
  Se  Se4       1.0  0.55800  0.54300  0.17300  1.0000
  Se  Se5       1.0  0.55800  0.95700  0.17300  1.0000
  Se  Se6       1.0  0.05800  0.54300  0.32700  1.0000
  Se  Se7       1.0  0.05800  0.95700  0.32700  1.0000
  Se  Se8       1.0  0.78300  0.25000  0.38100  1.0000
  Se  Se9       1.0  0.77600  0.75000  0.38500  1.0000
  Se  Se10      1.0  0.50600  0.25000  0.47300  1.0000
  Se  Se11      1.0  0.49400  0.75000  0.52700  1.0000
  Se  Se12      1.0  0.22400  0.25000  0.61500  1.0000
  Se  Se13      1.0  0.21700  0.75000  0.61900  1.0000
  Se  Se14      1.0  0.94200  0.04340  0.67300  1.0000
  Se  Se15      1.0  0.94200  0.45700  0.67300  1.0000
  Se  Se16      1.0  0.44200  0.04340  0.82700  1.0000
  Se  Se17      1.0  0.44200  0.45700  0.82700  1.0000
  Se  Se18      1.0  0.71700  0.75000  0.88100  1.0000
  Se  Se19      1.0  0.72400  0.25000  0.88500  1.0000
  Se  Se20      1.0  0.99400  0.75000  0.97300  1.0000
