data_image0
_chemical_formula_structural       Ge8K8S20
_chemical_formula_sum              "Ge8 K8 S20"
_cell_length_a       8.87658
_cell_length_b       10.8788
_cell_length_c       10.8788
_cell_angle_alpha    90.0975
_cell_angle_beta     100.727
_cell_angle_gamma    100.727

_space_group_name_H-M_alt    "P 1"
_space_group_IT_number       1

loop_
  _space_group_symop_operation_xyz
  'x, y, z'

loop_
  _atom_site_type_symbol
  _atom_site_label
  _atom_site_symmetry_multiplicity
  _atom_site_fract_x
  _atom_site_fract_y
  _atom_site_fract_z
  _atom_site_occupancy
  Ge  Ge1       1.0  0.38900  0.73000  0.13300  1.0000
  Ge  Ge2       1.0  0.09260  0.52300  0.26700  1.0000
  Ge  Ge3       1.0  0.11100  0.86700  0.27000  1.0000
  Ge  Ge4       1.0  0.40700  0.73300  0.47700  1.0000
  Ge  Ge5       1.0  0.59300  0.26700  0.52300  1.0000
  Ge  Ge6       1.0  0.88900  0.13300  0.73000  1.0000
  Ge  Ge7       1.0  0.90700  0.47700  0.73300  1.0000
  Ge  Ge8       1.0  0.61100  0.27000  0.86700  1.0000
  K   K1        1.0  0.12100  0.21100  0.06300  1.0000
  K   K2        1.0  0.62100  0.06300  0.21100  1.0000
  K   K3        1.0  0.61800  0.47100  0.21200  1.0000
  K   K4        1.0  0.11800  0.21200  0.47100  1.0000
  K   K5        1.0  0.88200  0.78800  0.52900  1.0000
  K   K6        1.0  0.38200  0.52900  0.78800  1.0000
  K   K7        1.0  0.37900  0.93700  0.78900  1.0000
  K   K8        1.0  0.87900  0.78900  0.93700  1.0000
  S   S1        1.0  0.46700  0.24700  0.00626  1.0000
  S   S2        1.0  0.23600  0.53900  0.11200  1.0000
  S   S3        1.0  0.25000  0.88700  0.11300  1.0000
  S   S4        1.0  0.93800  0.34500  0.24200  1.0000
  S   S5        1.0  0.94900  0.67700  0.24400  1.0000
  S   S6        1.0  0.96700  0.00626  0.24700  1.0000
  S   S7        1.0  0.55100  0.75600  0.32300  1.0000
  S   S8        1.0  0.43800  0.24200  0.34500  1.0000
  S   S9        1.0  0.25000  0.54200  0.45800  1.0000
  S   S10       1.0  0.26400  0.88800  0.46100  1.0000
  S   S11       1.0  0.73600  0.11200  0.53900  1.0000
  S   S12       1.0  0.75000  0.45800  0.54200  1.0000
  S   S13       1.0  0.56200  0.75800  0.65500  1.0000
  S   S14       1.0  0.44900  0.24400  0.67700  1.0000
  S   S15       1.0  0.03270  0.99400  0.75300  1.0000
  S   S16       1.0  0.05140  0.32300  0.75600  1.0000
  S   S17       1.0  0.06240  0.65500  0.75800  1.0000
  S   S18       1.0  0.75000  0.11300  0.88700  1.0000
  S   S19       1.0  0.76400  0.46100  0.88800  1.0000
  S   S20       1.0  0.53300  0.75300  0.99400  1.0000
