data_image0
_chemical_formula_structural       Eu2H2O24P8
_chemical_formula_sum              "Eu2 H2 O24 P8"
_cell_length_a       7.04919
_cell_length_b       8.65353
_cell_length_c       8.84282
_cell_angle_alpha    99.1616
_cell_angle_beta     112.437
_cell_angle_gamma    108.113

_space_group_name_H-M_alt    "P 1"
_space_group_IT_number       1

loop_
  _space_group_symop_operation_xyz
  'x, y, z'

loop_
  _atom_site_type_symbol
  _atom_site_label
  _atom_site_symmetry_multiplicity
  _atom_site_fract_x
  _atom_site_fract_y
  _atom_site_fract_z
  _atom_site_occupancy
  Eu  Eu1       1.0  0.08130  0.25800  0.25700  1.0000
  Eu  Eu2       1.0  0.91900  0.74200  0.74300  1.0000
  H   H1        1.0  0.51100  0.14800  0.21600  1.0000
  H   H2        1.0  0.48900  0.85200  0.78400  1.0000
  O   O1        1.0  0.18400  0.80700  0.04290  1.0000
  O   O2        1.0  0.25400  0.20500  0.07410  1.0000
  O   O3        1.0  0.53900  0.76500  0.10100  1.0000
  O   O4        1.0  0.81200  0.63400  0.14200  1.0000
  O   O5        1.0  0.57500  0.06570  0.18900  1.0000
  O   O6        1.0  0.95700  0.96300  0.24700  1.0000
  O   O7        1.0  0.31800  0.54600  0.29300  1.0000
  O   O8        1.0  0.87700  0.42700  0.29900  1.0000
  O   O9        1.0  0.48400  0.87200  0.35300  1.0000
  O   O10       1.0  0.44600  0.24100  0.39800  1.0000
  O   O11       1.0  0.17000  0.74000  0.41600  1.0000
  O   O12       1.0  0.81300  0.68000  0.43600  1.0000
  O   O13       1.0  0.18700  0.32000  0.56400  1.0000
  O   O14       1.0  0.83000  0.26000  0.58400  1.0000
  O   O15       1.0  0.55400  0.75900  0.60200  1.0000
  O   O16       1.0  0.51600  0.12800  0.64700  1.0000
  O   O17       1.0  0.12300  0.57300  0.70100  1.0000
  O   O18       1.0  0.68200  0.45400  0.70700  1.0000
  O   O19       1.0  0.04280  0.03740  0.75300  1.0000
  O   O20       1.0  0.42500  0.93400  0.81100  1.0000
  O   O21       1.0  0.18800  0.36600  0.85800  1.0000
  O   O22       1.0  0.46100  0.23500  0.89900  1.0000
  O   O23       1.0  0.74600  0.79500  0.92600  1.0000
  O   O24       1.0  0.81600  0.19300  0.95700  1.0000
  P   P1        1.0  0.78000  0.80100  0.10500  1.0000
  P   P2        1.0  0.42700  0.87700  0.16200  1.0000
  P   P3        1.0  0.90800  0.61000  0.33100  1.0000
  P   P4        1.0  0.38600  0.71600  0.41800  1.0000
  P   P5        1.0  0.61400  0.28400  0.58200  1.0000
  P   P6        1.0  0.09160  0.39000  0.66900  1.0000
  P   P7        1.0  0.57300  0.12300  0.83800  1.0000
  P   P8        1.0  0.22000  0.19900  0.89500  1.0000
