data_image0
_chemical_formula_structural       H12N12Pb4S8
_chemical_formula_sum              "H12 N12 Pb4 S8"
_cell_length_a       5.58277
_cell_length_b       6.03614
_cell_length_c       15.8973
_cell_angle_alpha    90
_cell_angle_beta     90
_cell_angle_gamma    93.9998

_space_group_name_H-M_alt    "P 1"
_space_group_IT_number       1

loop_
  _space_group_symop_operation_xyz
  'x, y, z'

loop_
  _atom_site_type_symbol
  _atom_site_label
  _atom_site_symmetry_multiplicity
  _atom_site_fract_x
  _atom_site_fract_y
  _atom_site_fract_z
  _atom_site_occupancy
  H   H1        1.0  0.66400  0.78500  0.15600  1.0000
  H   H2        1.0  0.55000  0.03340  0.16800  1.0000
  H   H3        1.0  0.44700  0.81300  0.22400  1.0000
  H   H4        1.0  0.94700  0.81300  0.27600  1.0000
  H   H5        1.0  0.05030  0.03340  0.33200  1.0000
  H   H6        1.0  0.16400  0.78500  0.34400  1.0000
  H   H7        1.0  0.83600  0.21500  0.65600  1.0000
  H   H8        1.0  0.95000  0.96700  0.66800  1.0000
  H   H9        1.0  0.05340  0.18700  0.72400  1.0000
  H   H10       1.0  0.55300  0.18700  0.77600  1.0000
  H   H11       1.0  0.45000  0.96700  0.83200  1.0000
  H   H12       1.0  0.33600  0.21500  0.84400  1.0000
  N   N1        1.0  0.12800  0.22600  0.12700  1.0000
  N   N2        1.0  0.96000  0.62200  0.16400  1.0000
  N   N3        1.0  0.50800  0.86600  0.16500  1.0000
  N   N4        1.0  0.00835  0.86600  0.33500  1.0000
  N   N5        1.0  0.46000  0.62200  0.33600  1.0000
  N   N6        1.0  0.62800  0.22600  0.37300  1.0000
  N   N7        1.0  0.37200  0.77400  0.62700  1.0000
  N   N8        1.0  0.54000  0.37800  0.66400  1.0000
  N   N9        1.0  0.99200  0.13400  0.66500  1.0000
  N   N10       1.0  0.49200  0.13400  0.83500  1.0000
  N   N11       1.0  0.03950  0.37800  0.83600  1.0000
  N   N12       1.0  0.87200  0.77400  0.87300  1.0000
  Pb  Pb1       1.0  0.19800  0.79000  0.05660  1.0000
  Pb  Pb2       1.0  0.69800  0.79000  0.44300  1.0000
  Pb  Pb3       1.0  0.30200  0.21000  0.55700  1.0000
  Pb  Pb4       1.0  0.80200  0.21000  0.94300  1.0000
  S   S1        1.0  0.30700  0.34600  0.05060  1.0000
  S   S2        1.0  0.95800  0.37300  0.18000  1.0000
  S   S3        1.0  0.45800  0.37300  0.32000  1.0000
  S   S4        1.0  0.80700  0.34600  0.44900  1.0000
  S   S5        1.0  0.19300  0.65400  0.55100  1.0000
  S   S6        1.0  0.54200  0.62700  0.68000  1.0000
  S   S7        1.0  0.04210  0.62700  0.82000  1.0000
  S   S8        1.0  0.69300  0.65400  0.94900  1.0000
