data_image0
_chemical_formula_structural       Fe8Rb12Se16
_chemical_formula_sum              "Fe8 Rb12 Se16"
_cell_length_a       7.72359
_cell_length_b       11.265
_cell_length_c       12.6381
_cell_angle_alpha    90
_cell_angle_beta     90
_cell_angle_gamma    90

_space_group_name_H-M_alt    "P 1"
_space_group_IT_number       1

loop_
  _space_group_symop_operation_xyz
  'x, y, z'

loop_
  _atom_site_type_symbol
  _atom_site_label
  _atom_site_symmetry_multiplicity
  _atom_site_fract_x
  _atom_site_fract_y
  _atom_site_fract_z
  _atom_site_occupancy
  Fe  Fe1       1.0  0.55200  0.13400  0.02800  1.0000
  Fe  Fe2       1.0  0.55200  0.36600  0.02800  1.0000
  Fe  Fe3       1.0  0.05250  0.13400  0.47200  1.0000
  Fe  Fe4       1.0  0.05250  0.36600  0.47200  1.0000
  Fe  Fe5       1.0  0.94800  0.63400  0.52800  1.0000
  Fe  Fe6       1.0  0.94800  0.86600  0.52800  1.0000
  Fe  Fe7       1.0  0.44800  0.63400  0.97200  1.0000
  Fe  Fe8       1.0  0.44800  0.86600  0.97200  1.0000
  Rb  Rb1       1.0  0.07690  0.06790  0.13500  1.0000
  Rb  Rb2       1.0  0.07690  0.43200  0.13500  1.0000
  Rb  Rb3       1.0  0.90800  0.75000  0.23500  1.0000
  Rb  Rb4       1.0  0.40800  0.75000  0.26500  1.0000
  Rb  Rb5       1.0  0.57700  0.06790  0.36500  1.0000
  Rb  Rb6       1.0  0.57700  0.43200  0.36500  1.0000
  Rb  Rb7       1.0  0.42300  0.56800  0.63500  1.0000
  Rb  Rb8       1.0  0.42300  0.93200  0.63500  1.0000
  Rb  Rb9       1.0  0.59200  0.25000  0.73500  1.0000
  Rb  Rb10      1.0  0.09180  0.25000  0.76500  1.0000
  Rb  Rb11      1.0  0.92300  0.56800  0.86500  1.0000
  Rb  Rb12      1.0  0.92300  0.93200  0.86500  1.0000
  Se  Se1       1.0  0.20000  0.75000  0.03200  1.0000
  Se  Se2       1.0  0.64500  0.55300  0.10600  1.0000
  Se  Se3       1.0  0.64500  0.94700  0.10600  1.0000
  Se  Se4       1.0  0.42100  0.25000  0.16400  1.0000
  Se  Se5       1.0  0.92100  0.25000  0.33600  1.0000
  Se  Se6       1.0  0.14500  0.55300  0.39400  1.0000
  Se  Se7       1.0  0.14500  0.94700  0.39400  1.0000
  Se  Se8       1.0  0.70000  0.75000  0.46800  1.0000
  Se  Se9       1.0  0.30000  0.25000  0.53200  1.0000
  Se  Se10      1.0  0.85500  0.05310  0.60600  1.0000
  Se  Se11      1.0  0.85500  0.44700  0.60600  1.0000
  Se  Se12      1.0  0.07890  0.75000  0.66400  1.0000
  Se  Se13      1.0  0.57900  0.75000  0.83600  1.0000
  Se  Se14      1.0  0.35500  0.05310  0.89400  1.0000
  Se  Se15      1.0  0.35500  0.44700  0.89400  1.0000
  Se  Se16      1.0  0.80000  0.25000  0.96800  1.0000
