data_image0
_chemical_formula_structural       B2Fe2H6Na2O20P4
_chemical_formula_sum              "B2 Fe2 H6 Na2 O20 P4"
_cell_length_a       6.54692
_cell_length_b       6.54692
_cell_length_c       9.13348
_cell_angle_alpha    110.41
_cell_angle_beta     69.59
_cell_angle_gamma    103.284

_space_group_name_H-M_alt    "P 1"
_space_group_IT_number       1

loop_
  _space_group_symop_operation_xyz
  'x, y, z'

loop_
  _atom_site_type_symbol
  _atom_site_label
  _atom_site_symmetry_multiplicity
  _atom_site_fract_x
  _atom_site_fract_y
  _atom_site_fract_z
  _atom_site_occupancy
  B   B1        1.0  0.52400  0.52400  0.25000  1.0000
  B   B2        1.0  0.47600  0.47600  0.75000  1.0000
  Fe  Fe1       1.0  0.00000  0.50000  0.00000  1.0000
  Fe  Fe2       1.0  0.50000  0.00000  0.50000  1.0000
  H   H1        1.0  0.50000  0.00000  0.00000  1.0000
  H   H2        1.0  0.65700  0.69000  0.07320  1.0000
  H   H3        1.0  0.69000  0.65700  0.42700  1.0000
  H   H4        1.0  0.00000  0.50000  0.50000  1.0000
  H   H5        1.0  0.31000  0.34300  0.57300  1.0000
  H   H6        1.0  0.34300  0.31000  0.92700  1.0000
  Na  Na1       1.0  0.13400  0.13400  0.25000  1.0000
  Na  Na2       1.0  0.86600  0.86600  0.75000  1.0000
  O   O1        1.0  0.63800  0.95100  0.03900  1.0000
  O   O2        1.0  0.68100  0.56400  0.09880  1.0000
  O   O3        1.0  0.93600  0.26900  0.10700  1.0000
  O   O4        1.0  0.06600  0.73200  0.19400  1.0000
  O   O5        1.0  0.52700  0.30000  0.24900  1.0000
  O   O6        1.0  0.30000  0.52700  0.25100  1.0000
  O   O7        1.0  0.73200  0.06600  0.30600  1.0000
  O   O8        1.0  0.26900  0.93600  0.39300  1.0000
  O   O9        1.0  0.56400  0.68100  0.40100  1.0000
  O   O10       1.0  0.95100  0.63800  0.46100  1.0000
  O   O11       1.0  0.04860  0.36200  0.53900  1.0000
  O   O12       1.0  0.43600  0.31900  0.59900  1.0000
  O   O13       1.0  0.73100  0.06410  0.60700  1.0000
  O   O14       1.0  0.26800  0.93400  0.69400  1.0000
  O   O15       1.0  0.70000  0.47300  0.74900  1.0000
  O   O16       1.0  0.47300  0.70000  0.75100  1.0000
  O   O17       1.0  0.93400  0.26800  0.80600  1.0000
  O   O18       1.0  0.06410  0.73100  0.89300  1.0000
  O   O19       1.0  0.31900  0.43600  0.90100  1.0000
  O   O20       1.0  0.36200  0.04860  0.96100  1.0000
  P   P1        1.0  0.71200  0.14600  0.17500  1.0000
  P   P2        1.0  0.14600  0.71200  0.32500  1.0000
  P   P3        1.0  0.85400  0.28800  0.67500  1.0000
  P   P4        1.0  0.28800  0.85400  0.82500  1.0000
