data_image0
_chemical_formula_structural       Ca4N8O24
_chemical_formula_sum              "Ca4 N8 O24"
_cell_length_a       7.37385
_cell_length_b       7.37385
_cell_length_c       7.37385
_cell_angle_alpha    90
_cell_angle_beta     90
_cell_angle_gamma    90

_space_group_name_H-M_alt    "P 1"
_space_group_IT_number       1

loop_
  _space_group_symop_operation_xyz
  'x, y, z'

loop_
  _atom_site_type_symbol
  _atom_site_label
  _atom_site_symmetry_multiplicity
  _atom_site_fract_x
  _atom_site_fract_y
  _atom_site_fract_z
  _atom_site_occupancy
  Ca  Ca1       1.0  0.00000  0.00000  0.00000  1.0000
  Ca  Ca2       1.0  0.50000  0.50000  0.00000  1.0000
  Ca  Ca3       1.0  0.50000  0.00000  0.50000  1.0000
  Ca  Ca4       1.0  0.00000  0.50000  0.50000  1.0000
  N   N1        1.0  0.83900  0.33900  0.16100  1.0000
  N   N2        1.0  0.66100  0.83900  0.16100  1.0000
  N   N3        1.0  0.33900  0.33900  0.33900  1.0000
  N   N4        1.0  0.16100  0.83900  0.33900  1.0000
  N   N5        1.0  0.83900  0.16100  0.66100  1.0000
  N   N6        1.0  0.66100  0.66100  0.66100  1.0000
  N   N7        1.0  0.33900  0.16100  0.83900  1.0000
  N   N8        1.0  0.16100  0.66100  0.83900  1.0000
  O   O1        1.0  0.76000  0.27900  0.02170  1.0000
  O   O2        1.0  0.74000  0.77900  0.02170  1.0000
  O   O3        1.0  0.97800  0.26000  0.22100  1.0000
  O   O4        1.0  0.52200  0.76000  0.22100  1.0000
  O   O5        1.0  0.77900  0.47800  0.24000  1.0000
  O   O6        1.0  0.72100  0.97800  0.24000  1.0000
  O   O7        1.0  0.27900  0.47800  0.26000  1.0000
  O   O8        1.0  0.22100  0.97800  0.26000  1.0000
  O   O9        1.0  0.47800  0.26000  0.27900  1.0000
  O   O10       1.0  0.02170  0.76000  0.27900  1.0000
  O   O11       1.0  0.26000  0.27900  0.47800  1.0000
  O   O12       1.0  0.24000  0.77900  0.47800  1.0000
  O   O13       1.0  0.76000  0.22100  0.52200  1.0000
  O   O14       1.0  0.74000  0.72100  0.52200  1.0000
  O   O15       1.0  0.97800  0.24000  0.72100  1.0000
  O   O16       1.0  0.52200  0.74000  0.72100  1.0000
  O   O17       1.0  0.77900  0.02170  0.74000  1.0000
  O   O18       1.0  0.72100  0.52200  0.74000  1.0000
  O   O19       1.0  0.27900  0.02170  0.76000  1.0000
  O   O20       1.0  0.22100  0.52200  0.76000  1.0000
  O   O21       1.0  0.47800  0.24000  0.77900  1.0000
  O   O22       1.0  0.02170  0.74000  0.77900  1.0000
  O   O23       1.0  0.26000  0.22100  0.97800  1.0000
  O   O24       1.0  0.24000  0.72100  0.97800  1.0000
