data_image0
_chemical_formula_structural       Ca4H12O16P4
_chemical_formula_sum              "Ca4 H12 O16 P4"
_cell_length_a       7.54691
_cell_length_b       6.63953
_cell_length_c       7.85435
_cell_angle_alpha    90
_cell_angle_beta     109.797
_cell_angle_gamma    90

_space_group_name_H-M_alt    "P 1"
_space_group_IT_number       1

loop_
  _space_group_symop_operation_xyz
  'x, y, z'

loop_
  _atom_site_type_symbol
  _atom_site_label
  _atom_site_symmetry_multiplicity
  _atom_site_fract_x
  _atom_site_fract_y
  _atom_site_fract_z
  _atom_site_occupancy
  Ca  Ca1       1.0  0.39100  0.37000  0.15000  1.0000
  Ca  Ca2       1.0  0.60900  0.87000  0.35000  1.0000
  Ca  Ca3       1.0  0.39100  0.13000  0.65000  1.0000
  Ca  Ca4       1.0  0.60900  0.63000  0.85000  1.0000
  H   H1        1.0  0.89800  0.23100  0.01180  1.0000
  H   H2        1.0  0.00100  0.58600  0.17500  1.0000
  H   H3        1.0  0.81300  0.56100  0.22000  1.0000
  H   H4        1.0  0.18700  0.06090  0.28000  1.0000
  H   H5        1.0  0.99900  0.08610  0.32500  1.0000
  H   H6        1.0  0.10200  0.73100  0.48800  1.0000
  H   H7        1.0  0.89800  0.26900  0.51200  1.0000
  H   H8        1.0  0.00100  0.91400  0.67500  1.0000
  H   H9        1.0  0.81300  0.93900  0.72000  1.0000
  H   H10       1.0  0.18700  0.43900  0.78000  1.0000
  H   H11       1.0  0.99900  0.41400  0.82500  1.0000
  H   H12       1.0  0.10200  0.76900  0.98800  1.0000
  O   O1        1.0  0.43200  0.70800  0.04440  1.0000
  O   O2        1.0  0.86200  0.60200  0.12300  1.0000
  O   O3        1.0  0.31500  0.02560  0.13900  1.0000
  O   O4        1.0  0.76900  0.05480  0.20200  1.0000
  O   O5        1.0  0.23100  0.55500  0.29800  1.0000
  O   O6        1.0  0.68500  0.52600  0.36100  1.0000
  O   O7        1.0  0.13800  0.10200  0.37700  1.0000
  O   O8        1.0  0.56800  0.20800  0.45600  1.0000
  O   O9        1.0  0.43200  0.79200  0.54400  1.0000
  O   O10       1.0  0.86200  0.89800  0.62300  1.0000
  O   O11       1.0  0.31500  0.47400  0.63900  1.0000
  O   O12       1.0  0.76900  0.44500  0.70200  1.0000
  O   O13       1.0  0.23100  0.94500  0.79800  1.0000
  O   O14       1.0  0.68500  0.97400  0.86100  1.0000
  O   O15       1.0  0.13800  0.39800  0.87700  1.0000
  O   O16       1.0  0.56800  0.29200  0.95600  1.0000
  P   P1        1.0  0.73200  0.13600  0.01120  1.0000
  P   P2        1.0  0.26800  0.63600  0.48900  1.0000
  P   P3        1.0  0.73200  0.36400  0.51100  1.0000
  P   P4        1.0  0.26800  0.86400  0.98900  1.0000
