data_image0
_chemical_formula_structural       Ge8Rb8S20
_chemical_formula_sum              "Ge8 Rb8 S20"
_cell_length_a       9.24167
_cell_length_b       11.1229
_cell_length_c       11.1229
_cell_angle_alpha    90.2135
_cell_angle_beta     100.468
_cell_angle_gamma    100.468

_space_group_name_H-M_alt    "P 1"
_space_group_IT_number       1

loop_
  _space_group_symop_operation_xyz
  'x, y, z'

loop_
  _atom_site_type_symbol
  _atom_site_label
  _atom_site_symmetry_multiplicity
  _atom_site_fract_x
  _atom_site_fract_y
  _atom_site_fract_z
  _atom_site_occupancy
  Ge  Ge1       1.0  0.38500  0.73000  0.13700  1.0000
  Ge  Ge2       1.0  0.09980  0.52600  0.26700  1.0000
  Ge  Ge3       1.0  0.11500  0.86300  0.27000  1.0000
  Ge  Ge4       1.0  0.40000  0.73300  0.47400  1.0000
  Ge  Ge5       1.0  0.60000  0.26700  0.52600  1.0000
  Ge  Ge6       1.0  0.88500  0.13700  0.73000  1.0000
  Ge  Ge7       1.0  0.90000  0.47400  0.73300  1.0000
  Ge  Ge8       1.0  0.61500  0.27000  0.86300  1.0000
  Rb  Rb1       1.0  0.12700  0.20900  0.05840  1.0000
  Rb  Rb2       1.0  0.62700  0.05840  0.20900  1.0000
  Rb  Rb3       1.0  0.62600  0.47500  0.21100  1.0000
  Rb  Rb4       1.0  0.12600  0.21100  0.47500  1.0000
  Rb  Rb5       1.0  0.87400  0.78900  0.52500  1.0000
  Rb  Rb6       1.0  0.37400  0.52500  0.78900  1.0000
  Rb  Rb7       1.0  0.37300  0.94200  0.79100  1.0000
  Rb  Rb8       1.0  0.87300  0.79100  0.94200  1.0000
  S   S1        1.0  0.52600  0.75300  0.00207  1.0000
  S   S2        1.0  0.23900  0.54300  0.11600  1.0000
  S   S3        1.0  0.25000  0.88200  0.11800  1.0000
  S   S4        1.0  0.95200  0.35300  0.24300  1.0000
  S   S5        1.0  0.96100  0.67700  0.24500  1.0000
  S   S6        1.0  0.97400  0.99800  0.24700  1.0000
  S   S7        1.0  0.53900  0.75500  0.32300  1.0000
  S   S8        1.0  0.45200  0.24300  0.35300  1.0000
  S   S9        1.0  0.25000  0.54600  0.45400  1.0000
  S   S10       1.0  0.26100  0.88400  0.45700  1.0000
  S   S11       1.0  0.73900  0.11600  0.54300  1.0000
  S   S12       1.0  0.75000  0.45400  0.54600  1.0000
  S   S13       1.0  0.54800  0.75700  0.64700  1.0000
  S   S14       1.0  0.46100  0.24500  0.67700  1.0000
  S   S15       1.0  0.02590  0.00207  0.75300  1.0000
  S   S16       1.0  0.03930  0.32300  0.75500  1.0000
  S   S17       1.0  0.04780  0.64700  0.75700  1.0000
  S   S18       1.0  0.75000  0.11800  0.88200  1.0000
  S   S19       1.0  0.76100  0.45700  0.88400  1.0000
  S   S20       1.0  0.47400  0.24700  0.99800  1.0000
