data_image0
_chemical_formula_structural       B2H6Na2O20P4V2
_chemical_formula_sum              "B2 H6 Na2 O20 P4 V2"
_cell_length_a       6.5574
_cell_length_b       6.5574
_cell_length_c       9.13911
_cell_angle_alpha    110.397
_cell_angle_beta     69.6026
_cell_angle_gamma    102.846

_space_group_name_H-M_alt    "P 1"
_space_group_IT_number       1

loop_
  _space_group_symop_operation_xyz
  'x, y, z'

loop_
  _atom_site_type_symbol
  _atom_site_label
  _atom_site_symmetry_multiplicity
  _atom_site_fract_x
  _atom_site_fract_y
  _atom_site_fract_z
  _atom_site_occupancy
  B   B1        1.0  0.97800  0.97800  0.25000  1.0000
  B   B2        1.0  0.02210  0.02210  0.75000  1.0000
  H   H1        1.0  0.50000  0.00000  0.00000  1.0000
  H   H2        1.0  0.81400  0.84800  0.07280  1.0000
  H   H3        1.0  0.84800  0.81400  0.42700  1.0000
  H   H4        1.0  1.00000  0.50000  0.50000  1.0000
  H   H5        1.0  0.15200  0.18600  0.57300  1.0000
  H   H6        1.0  0.18600  0.15200  0.92700  1.0000
  Na  Na1       1.0  0.36600  0.36600  0.25000  1.0000
  Na  Na2       1.0  0.63400  0.63400  0.75000  1.0000
  O   O1        1.0  0.55000  0.86300  0.03820  1.0000
  O   O2        1.0  0.93800  0.82100  0.09850  1.0000
  O   O3        1.0  0.23700  0.56400  0.10900  1.0000
  O   O4        1.0  0.77100  0.44000  0.19500  1.0000
  O   O5        1.0  0.20100  0.97300  0.24800  1.0000
  O   O6        1.0  0.97300  0.20100  0.25200  1.0000
  O   O7        1.0  0.44000  0.77100  0.30500  1.0000
  O   O8        1.0  0.56400  0.23700  0.39100  1.0000
  O   O9        1.0  0.82100  0.93800  0.40200  1.0000
  O   O10       1.0  0.86300  0.55000  0.46200  1.0000
  O   O11       1.0  0.13700  0.45000  0.53800  1.0000
  O   O12       1.0  0.17900  0.06180  0.59800  1.0000
  O   O13       1.0  0.43600  0.76300  0.60900  1.0000
  O   O14       1.0  0.56000  0.22900  0.69500  1.0000
  O   O15       1.0  0.02740  0.79900  0.74800  1.0000
  O   O16       1.0  0.79900  0.02740  0.75200  1.0000
  O   O17       1.0  0.22900  0.56000  0.80500  1.0000
  O   O18       1.0  0.76300  0.43600  0.89100  1.0000
  O   O19       1.0  0.06180  0.17900  0.90200  1.0000
  O   O20       1.0  0.45000  0.13700  0.96200  1.0000
  P   P1        1.0  0.35600  0.78800  0.17400  1.0000
  P   P2        1.0  0.78800  0.35600  0.32600  1.0000
  P   P3        1.0  0.21200  0.64400  0.67400  1.0000
  P   P4        1.0  0.64400  0.21200  0.82600  1.0000
  V   V1        1.0  0.00000  0.50000  0.00000  1.0000
  V   V2        1.0  0.50000  0.00000  0.50000  1.0000
