data_image0
_chemical_formula_structural       Cl18N6S8Te4
_chemical_formula_sum              "Cl18 N6 S8 Te4"
_cell_length_a       9.37389
_cell_length_b       10.1185
_cell_length_c       11.4477
_cell_angle_alpha    82.5645
_cell_angle_beta     69.8033
_cell_angle_gamma    75.7663

_space_group_name_H-M_alt    "P 1"
_space_group_IT_number       1

loop_
  _space_group_symop_operation_xyz
  'x, y, z'

loop_
  _atom_site_type_symbol
  _atom_site_label
  _atom_site_symmetry_multiplicity
  _atom_site_fract_x
  _atom_site_fract_y
  _atom_site_fract_z
  _atom_site_occupancy
  Cl  Cl1       1.0  0.60700  0.35300  0.05160  1.0000
  Cl  Cl2       1.0  0.78700  0.01740  0.05760  1.0000
  Cl  Cl3       1.0  0.38000  0.12000  0.12100  1.0000
  Cl  Cl4       1.0  0.55600  0.65600  0.17900  1.0000
  Cl  Cl5       1.0  0.12900  0.78400  0.21800  1.0000
  Cl  Cl6       1.0  0.73400  0.80800  0.34600  1.0000
  Cl  Cl7       1.0  0.52700  0.24400  0.36400  1.0000
  Cl  Cl8       1.0  0.32700  0.90600  0.40600  1.0000
  Cl  Cl9       1.0  0.71500  0.45900  0.46600  1.0000
  Cl  Cl10      1.0  0.28500  0.54100  0.53400  1.0000
  Cl  Cl11      1.0  0.67300  0.09410  0.59400  1.0000
  Cl  Cl12      1.0  0.47300  0.75600  0.63600  1.0000
  Cl  Cl13      1.0  0.26600  0.19200  0.65400  1.0000
  Cl  Cl14      1.0  0.87100  0.21600  0.78200  1.0000
  Cl  Cl15      1.0  0.44400  0.34400  0.82100  1.0000
  Cl  Cl16      1.0  0.62000  0.88000  0.87900  1.0000
  Cl  Cl17      1.0  0.21300  0.98300  0.94200  1.0000
  Cl  Cl18      1.0  0.39300  0.64700  0.94800  1.0000
  N   N1        1.0  0.99400  0.38500  0.13900  1.0000
  N   N2        1.0  0.98700  0.17400  0.30800  1.0000
  N   N3        1.0  0.11800  0.33800  0.38700  1.0000
  N   N4        1.0  0.88200  0.66200  0.61300  1.0000
  N   N5        1.0  0.01320  0.82600  0.69200  1.0000
  N   N6        1.0  0.00568  0.61500  0.86100  1.0000
  S   S1        1.0  0.06000  0.50700  0.15700  1.0000
  S   S2        1.0  0.95000  0.24400  0.18800  1.0000
  S   S3        1.0  0.14200  0.47600  0.31200  1.0000
  S   S4        1.0  0.05840  0.20400  0.40600  1.0000
  S   S5        1.0  0.94200  0.79600  0.59400  1.0000
  S   S6        1.0  0.85800  0.52400  0.68800  1.0000
  S   S7        1.0  0.04960  0.75600  0.81200  1.0000
  S   S8        1.0  0.94000  0.49300  0.84300  1.0000
  Te  Te1       1.0  0.37100  0.83900  0.05560  1.0000
  Te  Te2       1.0  0.51600  0.70300  0.42700  1.0000
  Te  Te3       1.0  0.48400  0.29700  0.57300  1.0000
  Te  Te4       1.0  0.62900  0.16100  0.94400  1.0000
