data_image0
_chemical_formula_structural       Cs8Ge8Se20
_chemical_formula_sum              "Cs8 Ge8 Se20"
_cell_length_a       10.0131
_cell_length_b       12.0356
_cell_length_c       12.0356
_cell_angle_alpha    90.5111
_cell_angle_beta     100.262
_cell_angle_gamma    100.262

_space_group_name_H-M_alt    "P 1"
_space_group_IT_number       1

loop_
  _space_group_symop_operation_xyz
  'x, y, z'

loop_
  _atom_site_type_symbol
  _atom_site_label
  _atom_site_symmetry_multiplicity
  _atom_site_fract_x
  _atom_site_fract_y
  _atom_site_fract_z
  _atom_site_occupancy
  Cs  Cs1       1.0  0.12500  0.20800  0.05390  1.0000
  Cs  Cs2       1.0  0.62500  0.05390  0.20800  1.0000
  Cs  Cs3       1.0  0.62100  0.47700  0.21300  1.0000
  Cs  Cs4       1.0  0.12100  0.21300  0.47700  1.0000
  Cs  Cs5       1.0  0.87900  0.78700  0.52300  1.0000
  Cs  Cs6       1.0  0.37900  0.52300  0.78700  1.0000
  Cs  Cs7       1.0  0.37500  0.94600  0.79200  1.0000
  Cs  Cs8       1.0  0.87500  0.79200  0.94600  1.0000
  Ge  Ge1       1.0  0.38300  0.73100  0.13900  1.0000
  Ge  Ge2       1.0  0.10400  0.53200  0.26500  1.0000
  Ge  Ge3       1.0  0.11700  0.86100  0.26900  1.0000
  Ge  Ge4       1.0  0.39600  0.73500  0.46800  1.0000
  Ge  Ge5       1.0  0.60400  0.26500  0.53200  1.0000
  Ge  Ge6       1.0  0.88300  0.13900  0.73100  1.0000
  Ge  Ge7       1.0  0.89600  0.46800  0.73500  1.0000
  Ge  Ge8       1.0  0.61700  0.26900  0.86100  1.0000
  Se  Se1       1.0  0.52400  0.75500  0.00621  1.0000
  Se  Se2       1.0  0.23700  0.54700  0.11400  1.0000
  Se  Se3       1.0  0.25000  0.88200  0.11800  1.0000
  Se  Se4       1.0  0.95700  0.36100  0.24100  1.0000
  Se  Se5       1.0  0.96400  0.67900  0.24400  1.0000
  Se  Se6       1.0  0.97600  0.99400  0.24500  1.0000
  Se  Se7       1.0  0.53600  0.75600  0.32100  1.0000
  Se  Se8       1.0  0.45700  0.24100  0.36100  1.0000
  Se  Se9       1.0  0.25000  0.55100  0.44900  1.0000
  Se  Se10      1.0  0.26300  0.88600  0.45300  1.0000
  Se  Se11      1.0  0.73700  0.11400  0.54700  1.0000
  Se  Se12      1.0  0.75000  0.44900  0.55100  1.0000
  Se  Se13      1.0  0.54300  0.75900  0.63900  1.0000
  Se  Se14      1.0  0.46400  0.24400  0.67900  1.0000
  Se  Se15      1.0  0.02370  0.00621  0.75500  1.0000
  Se  Se16      1.0  0.03560  0.32100  0.75600  1.0000
  Se  Se17      1.0  0.04280  0.63900  0.75900  1.0000
  Se  Se18      1.0  0.75000  0.11800  0.88200  1.0000
  Se  Se19      1.0  0.76300  0.45300  0.88600  1.0000
  Se  Se20      1.0  0.47600  0.24500  0.99400  1.0000
