data_image0
_chemical_formula_structural       B16Ce4Ru16
_chemical_formula_sum              "B16 Ce4 Ru16"
_cell_length_a       9.29364
_cell_length_b       7.58327
_cell_length_c       7.58327
_cell_angle_alpha    90
_cell_angle_beta     114.078
_cell_angle_gamma    114.078

_space_group_name_H-M_alt    "P 1"
_space_group_IT_number       1

loop_
  _space_group_symop_operation_xyz
  'x, y, z'

loop_
  _atom_site_type_symbol
  _atom_site_label
  _atom_site_symmetry_multiplicity
  _atom_site_fract_x
  _atom_site_fract_y
  _atom_site_fract_z
  _atom_site_occupancy
  B   B1        1.0  0.91400  0.29000  0.06330  1.0000
  B   B2        1.0  0.41400  0.56300  0.12400  1.0000
  B   B3        1.0  0.08620  0.21000  0.14900  1.0000
  B   B4        1.0  0.58600  0.14900  0.21000  1.0000
  B   B5        1.0  0.41400  0.06330  0.29000  1.0000
  B   B6        1.0  0.91400  0.62400  0.35100  1.0000
  B   B7        1.0  0.58600  0.64900  0.37600  1.0000
  B   B8        1.0  0.08620  0.87600  0.43700  1.0000
  B   B9        1.0  0.91400  0.12400  0.56300  1.0000
  B   B10       1.0  0.41400  0.35100  0.62400  1.0000
  B   B11       1.0  0.08620  0.37600  0.64900  1.0000
  B   B12       1.0  0.58600  0.93700  0.71000  1.0000
  B   B13       1.0  0.41400  0.85100  0.79000  1.0000
  B   B14       1.0  0.91400  0.79000  0.85100  1.0000
  B   B15       1.0  0.58600  0.43700  0.87600  1.0000
  B   B16       1.0  0.08620  0.71000  0.93700  1.0000
  Ce  Ce1       1.0  0.75000  0.87500  0.12500  1.0000
  Ce  Ce2       1.0  0.25000  0.62500  0.37500  1.0000
  Ce  Ce3       1.0  0.75000  0.37500  0.62500  1.0000
  Ce  Ce4       1.0  0.25000  0.12500  0.87500  1.0000
  Ru  Ru1       1.0  0.87300  0.55200  0.04230  1.0000
  Ru  Ru2       1.0  0.37300  0.83100  0.05210  1.0000
  Ru  Ru3       1.0  0.12700  0.94800  0.16900  1.0000
  Ru  Ru4       1.0  0.62700  0.45800  0.17900  1.0000
  Ru  Ru5       1.0  0.37300  0.33100  0.32100  1.0000
  Ru  Ru6       1.0  0.87300  0.32100  0.33100  1.0000
  Ru  Ru7       1.0  0.62700  0.95800  0.44800  1.0000
  Ru  Ru8       1.0  0.12700  0.17900  0.45800  1.0000
  Ru  Ru9       1.0  0.87300  0.82100  0.54200  1.0000
  Ru  Ru10      1.0  0.37300  0.04230  0.55200  1.0000
  Ru  Ru11      1.0  0.12700  0.67900  0.66900  1.0000
  Ru  Ru12      1.0  0.62700  0.66900  0.67900  1.0000
  Ru  Ru13      1.0  0.37300  0.54200  0.82100  1.0000
  Ru  Ru14      1.0  0.87300  0.05210  0.83100  1.0000
  Ru  Ru15      1.0  0.62700  0.16900  0.94800  1.0000
  Ru  Ru16      1.0  0.12700  0.44800  0.95800  1.0000
