data_image0
_chemical_formula_structural       Ag4Au4F28
_chemical_formula_sum              "Ag4 Au4 F28"
_cell_length_a       6.8731
_cell_length_b       7.28578
_cell_length_c       9.79526
_cell_angle_alpha    90
_cell_angle_beta     90
_cell_angle_gamma    90

_space_group_name_H-M_alt    "P 1"
_space_group_IT_number       1

loop_
  _space_group_symop_operation_xyz
  'x, y, z'

loop_
  _atom_site_type_symbol
  _atom_site_label
  _atom_site_symmetry_multiplicity
  _atom_site_fract_x
  _atom_site_fract_y
  _atom_site_fract_z
  _atom_site_occupancy
  Ag  Ag1       1.0  0.75000  0.36600  0.24300  1.0000
  Ag  Ag2       1.0  0.75000  0.86600  0.25700  1.0000
  Ag  Ag3       1.0  0.25000  0.13400  0.74300  1.0000
  Ag  Ag4       1.0  0.25000  0.63400  0.75700  1.0000
  Au  Au1       1.0  0.25000  0.30700  0.06180  1.0000
  Au  Au2       1.0  0.25000  0.80700  0.43800  1.0000
  Au  Au3       1.0  0.75000  0.19300  0.56200  1.0000
  Au  Au4       1.0  0.75000  0.69300  0.93800  1.0000
  F   F1        1.0  0.75000  0.44300  0.01240  1.0000
  F   F2        1.0  0.55300  0.76800  0.07050  1.0000
  F   F3        1.0  0.94700  0.76800  0.07050  1.0000
  F   F4        1.0  0.25000  0.06110  0.13200  1.0000
  F   F5        1.0  0.75000  0.11100  0.16100  1.0000
  F   F6        1.0  0.05890  0.38700  0.19600  1.0000
  F   F7        1.0  0.44100  0.38700  0.19600  1.0000
  F   F8        1.0  0.05890  0.88700  0.30400  1.0000
  F   F9        1.0  0.44100  0.88700  0.30400  1.0000
  F   F10       1.0  0.75000  0.61100  0.33900  1.0000
  F   F11       1.0  0.25000  0.56100  0.36800  1.0000
  F   F12       1.0  0.55300  0.26800  0.42900  1.0000
  F   F13       1.0  0.94700  0.26800  0.42900  1.0000
  F   F14       1.0  0.75000  0.94300  0.48800  1.0000
  F   F15       1.0  0.25000  0.05720  0.51200  1.0000
  F   F16       1.0  0.05300  0.73200  0.57100  1.0000
  F   F17       1.0  0.44700  0.73200  0.57100  1.0000
  F   F18       1.0  0.75000  0.43900  0.63200  1.0000
  F   F19       1.0  0.25000  0.38900  0.66100  1.0000
  F   F20       1.0  0.55900  0.11300  0.69600  1.0000
  F   F21       1.0  0.94100  0.11300  0.69600  1.0000
  F   F22       1.0  0.55900  0.61300  0.80400  1.0000
  F   F23       1.0  0.94100  0.61300  0.80400  1.0000
  F   F24       1.0  0.25000  0.88900  0.83900  1.0000
  F   F25       1.0  0.75000  0.93900  0.86800  1.0000
  F   F26       1.0  0.05300  0.23200  0.92900  1.0000
  F   F27       1.0  0.44700  0.23200  0.92900  1.0000
  F   F28       1.0  0.25000  0.55700  0.98800  1.0000
