data_image0
_chemical_formula_structural       B6Ba10Br2O18
_chemical_formula_sum              "B6 Ba10 Br2 O18"
_cell_length_a       8.02058
_cell_length_b       9.10195
_cell_length_c       9.10195
_cell_angle_alpha    109.318
_cell_angle_beta     90
_cell_angle_gamma    90

_space_group_name_H-M_alt    "P 1"
_space_group_IT_number       1

loop_
  _space_group_symop_operation_xyz
  'x, y, z'

loop_
  _atom_site_type_symbol
  _atom_site_label
  _atom_site_symmetry_multiplicity
  _atom_site_fract_x
  _atom_site_fract_y
  _atom_site_fract_z
  _atom_site_occupancy
  B   B1        1.0  0.47000  0.59800  0.01660  1.0000
  B   B2        1.0  0.50000  0.37500  0.37500  1.0000
  B   B3        1.0  0.03020  0.98300  0.40200  1.0000
  B   B4        1.0  0.53000  0.01660  0.59800  1.0000
  B   B5        1.0  0.00000  0.62500  0.62500  1.0000
  B   B6        1.0  0.97000  0.40200  0.98300  1.0000
  Ba  Ba1       1.0  0.56400  0.26900  0.00719  1.0000
  Ba  Ba2       1.0  0.00000  0.24100  0.24100  1.0000
  Ba  Ba3       1.0  0.43600  0.00719  0.26900  1.0000
  Ba  Ba4       1.0  0.25000  0.64000  0.36000  1.0000
  Ba  Ba5       1.0  0.75000  0.63900  0.36100  1.0000
  Ba  Ba6       1.0  0.25000  0.36100  0.63900  1.0000
  Ba  Ba7       1.0  0.75000  0.36000  0.64000  1.0000
  Ba  Ba8       1.0  0.93600  0.99300  0.73100  1.0000
  Ba  Ba9       1.0  0.50000  0.75900  0.75900  1.0000
  Ba  Ba10      1.0  0.06380  0.73100  0.99300  1.0000
  Br  Br1       1.0  0.75000  0.94400  0.05570  1.0000
  Br  Br2       1.0  0.25000  0.05570  0.94400  1.0000
  O   O1        1.0  0.38000  0.73200  0.02930  1.0000
  O   O2        1.0  0.01040  0.50600  0.13100  1.0000
  O   O3        1.0  0.51400  0.56800  0.15100  1.0000
  O   O4        1.0  0.12000  0.97100  0.26800  1.0000
  O   O5        1.0  0.34800  0.31200  0.31100  1.0000
  O   O6        1.0  0.65200  0.31100  0.31200  1.0000
  O   O7        1.0  0.98600  0.84900  0.43200  1.0000
  O   O8        1.0  0.00000  0.49200  0.49200  1.0000
  O   O9        1.0  0.49000  0.86900  0.49400  1.0000
  O   O10       1.0  0.99000  0.13100  0.50600  1.0000
  O   O11       1.0  0.50000  0.50800  0.50800  1.0000
  O   O12       1.0  0.48600  0.15100  0.56800  1.0000
  O   O13       1.0  0.15200  0.68900  0.68800  1.0000
  O   O14       1.0  0.84800  0.68800  0.68900  1.0000
  O   O15       1.0  0.62000  0.02930  0.73200  1.0000
  O   O16       1.0  0.01410  0.43200  0.84900  1.0000
  O   O17       1.0  0.51000  0.49400  0.86900  1.0000
  O   O18       1.0  0.88000  0.26800  0.97100  1.0000
