data_image0
_chemical_formula_structural       Ba20P16
_chemical_formula_sum              "Ba20 P16"
_cell_length_a       8.42245
_cell_length_b       16.7236
_cell_length_c       8.5031
_cell_angle_alpha    90
_cell_angle_beta     90
_cell_angle_gamma    90

_space_group_name_H-M_alt    "P 1"
_space_group_IT_number       1

loop_
  _space_group_symop_operation_xyz
  'x, y, z'

loop_
  _atom_site_type_symbol
  _atom_site_label
  _atom_site_symmetry_multiplicity
  _atom_site_fract_x
  _atom_site_fract_y
  _atom_site_fract_z
  _atom_site_occupancy
  Ba  Ba1       1.0  0.25400  0.25000  0.00249  1.0000
  Ba  Ba2       1.0  0.59000  0.10300  0.15900  1.0000
  Ba  Ba3       1.0  0.59000  0.39700  0.15900  1.0000
  Ba  Ba4       1.0  0.07450  0.60200  0.16500  1.0000
  Ba  Ba5       1.0  0.07450  0.89800  0.16500  1.0000
  Ba  Ba6       1.0  0.57500  0.60200  0.33500  1.0000
  Ba  Ba7       1.0  0.57500  0.89800  0.33500  1.0000
  Ba  Ba8       1.0  0.09040  0.10300  0.34100  1.0000
  Ba  Ba9       1.0  0.09040  0.39700  0.34100  1.0000
  Ba  Ba10      1.0  0.75400  0.25000  0.49800  1.0000
  Ba  Ba11      1.0  0.24600  0.75000  0.50200  1.0000
  Ba  Ba12      1.0  0.91000  0.60300  0.65900  1.0000
  Ba  Ba13      1.0  0.91000  0.89700  0.65900  1.0000
  Ba  Ba14      1.0  0.42500  0.10200  0.66500  1.0000
  Ba  Ba15      1.0  0.42500  0.39800  0.66500  1.0000
  Ba  Ba16      1.0  0.92500  0.10200  0.83500  1.0000
  Ba  Ba17      1.0  0.92500  0.39800  0.83500  1.0000
  Ba  Ba18      1.0  0.41000  0.60300  0.84100  1.0000
  Ba  Ba19      1.0  0.41000  0.89700  0.84100  1.0000
  Ba  Ba20      1.0  0.74600  0.75000  0.99800  1.0000
  P   P1        1.0  0.25400  0.05310  0.00564  1.0000
  P   P2        1.0  0.25400  0.44700  0.00564  1.0000
  P   P3        1.0  0.85400  0.25000  0.09030  1.0000
  P   P4        1.0  0.34100  0.75000  0.10000  1.0000
  P   P5        1.0  0.84100  0.75000  0.40000  1.0000
  P   P6        1.0  0.35400  0.25000  0.41000  1.0000
  P   P7        1.0  0.75400  0.05310  0.49400  1.0000
  P   P8        1.0  0.75400  0.44700  0.49400  1.0000
  P   P9        1.0  0.24600  0.55300  0.50600  1.0000
  P   P10       1.0  0.24600  0.94700  0.50600  1.0000
  P   P11       1.0  0.64600  0.75000  0.59000  1.0000
  P   P12       1.0  0.15900  0.25000  0.60000  1.0000
  P   P13       1.0  0.65900  0.25000  0.90000  1.0000
  P   P14       1.0  0.14600  0.75000  0.91000  1.0000
  P   P15       1.0  0.74600  0.55300  0.99400  1.0000
  P   P16       1.0  0.74600  0.94700  0.99400  1.0000
