data_image0
_chemical_formula_structural       Cu4I4P16Se12
_chemical_formula_sum              "Cu4 I4 P16 Se12"
_cell_length_a       12.1204
_cell_length_b       7.90909
_cell_length_c       10.9076
_cell_angle_alpha    90
_cell_angle_beta     90
_cell_angle_gamma    109.043

_space_group_name_H-M_alt    "P 1"
_space_group_IT_number       1

loop_
  _space_group_symop_operation_xyz
  'x, y, z'

loop_
  _atom_site_type_symbol
  _atom_site_label
  _atom_site_symmetry_multiplicity
  _atom_site_fract_x
  _atom_site_fract_y
  _atom_site_fract_z
  _atom_site_occupancy
  Cu  Cu1       1.0  0.00000  0.30200  0.00000  1.0000
  Cu  Cu2       1.0  0.00000  0.69800  0.00000  1.0000
  Cu  Cu3       1.0  0.00000  0.19800  0.50000  1.0000
  Cu  Cu4       1.0  0.00000  0.80200  0.50000  1.0000
  I   I1        1.0  0.06610  0.53300  0.18200  1.0000
  I   I2        1.0  0.06610  0.03300  0.31800  1.0000
  I   I3        1.0  0.93400  0.96700  0.68200  1.0000
  I   I4        1.0  0.93400  0.46700  0.81800  1.0000
  P   P1        1.0  0.43800  0.21900  0.02820  1.0000
  P   P2        1.0  0.84000  0.06160  0.04250  1.0000
  P   P3        1.0  0.84000  0.77800  0.04250  1.0000
  P   P4        1.0  0.77100  0.88500  0.20900  1.0000
  P   P5        1.0  0.77100  0.38500  0.29100  1.0000
  P   P6        1.0  0.84000  0.27800  0.45700  1.0000
  P   P7        1.0  0.84000  0.56200  0.45700  1.0000
  P   P8        1.0  0.43800  0.71900  0.47200  1.0000
  P   P9        1.0  0.56200  0.28100  0.52800  1.0000
  P   P10       1.0  0.16000  0.43800  0.54300  1.0000
  P   P11       1.0  0.16000  0.72200  0.54300  1.0000
  P   P12       1.0  0.22900  0.61500  0.70900  1.0000
  P   P13       1.0  0.22900  0.11500  0.79100  1.0000
  P   P14       1.0  0.16000  0.22200  0.95700  1.0000
  P   P15       1.0  0.16000  0.93800  0.95700  1.0000
  P   P16       1.0  0.56200  0.78100  0.97200  1.0000
  Se  Se1       1.0  0.31600  0.37900  0.07130  1.0000
  Se  Se2       1.0  0.31600  0.93800  0.07130  1.0000
  Se  Se3       1.0  0.57400  0.78700  0.18200  1.0000
  Se  Se4       1.0  0.57400  0.28700  0.31800  1.0000
  Se  Se5       1.0  0.31600  0.43800  0.42900  1.0000
  Se  Se6       1.0  0.31600  0.87900  0.42900  1.0000
  Se  Se7       1.0  0.68400  0.12100  0.57100  1.0000
  Se  Se8       1.0  0.68400  0.56200  0.57100  1.0000
  Se  Se9       1.0  0.42600  0.71300  0.68200  1.0000
  Se  Se10      1.0  0.42600  0.21300  0.81800  1.0000
  Se  Se11      1.0  0.68400  0.06230  0.92900  1.0000
  Se  Se12      1.0  0.68400  0.62100  0.92900  1.0000
