data_image0
_chemical_formula_structural       Cl4Hg12O16P4
_chemical_formula_sum              "Cl4 Hg12 O16 P4"
_cell_length_a       8.36392
_cell_length_b       8.36392
_cell_length_c       8.36392
_cell_angle_alpha    90
_cell_angle_beta     90
_cell_angle_gamma    90

_space_group_name_H-M_alt    "P 1"
_space_group_IT_number       1

loop_
  _space_group_symop_operation_xyz
  'x, y, z'

loop_
  _atom_site_type_symbol
  _atom_site_label
  _atom_site_symmetry_multiplicity
  _atom_site_fract_x
  _atom_site_fract_y
  _atom_site_fract_z
  _atom_site_occupancy
  Cl  Cl1       1.0  0.24000  0.24000  0.24000  1.0000
  Cl  Cl2       1.0  0.76000  0.74000  0.26000  1.0000
  Cl  Cl3       1.0  0.26000  0.76000  0.74000  1.0000
  Cl  Cl4       1.0  0.74000  0.26000  0.76000  1.0000
  Hg  Hg1       1.0  0.60900  0.14700  0.04390  1.0000
  Hg  Hg2       1.0  0.35300  0.95600  0.11000  1.0000
  Hg  Hg3       1.0  0.04390  0.60900  0.14700  1.0000
  Hg  Hg4       1.0  0.95600  0.11000  0.35300  1.0000
  Hg  Hg5       1.0  0.64700  0.45600  0.39000  1.0000
  Hg  Hg6       1.0  0.39000  0.64700  0.45600  1.0000
  Hg  Hg7       1.0  0.89000  0.85300  0.54400  1.0000
  Hg  Hg8       1.0  0.14700  0.04390  0.60900  1.0000
  Hg  Hg9       1.0  0.45600  0.39000  0.64700  1.0000
  Hg  Hg10      1.0  0.54400  0.89000  0.85300  1.0000
  Hg  Hg11      1.0  0.85300  0.54400  0.89000  1.0000
  Hg  Hg12      1.0  0.11000  0.35300  0.95600  1.0000
  O   O1        1.0  0.88200  0.09710  0.09330  1.0000
  O   O2        1.0  0.09330  0.88200  0.09710  1.0000
  O   O3        1.0  0.59700  0.40700  0.11800  1.0000
  O   O4        1.0  0.37700  0.62300  0.12300  1.0000
  O   O5        1.0  0.62300  0.12300  0.37700  1.0000
  O   O6        1.0  0.40300  0.90700  0.38200  1.0000
  O   O7        1.0  0.90700  0.38200  0.40300  1.0000
  O   O8        1.0  0.11800  0.59700  0.40700  1.0000
  O   O9        1.0  0.61800  0.90300  0.59300  1.0000
  O   O10       1.0  0.40700  0.11800  0.59700  1.0000
  O   O11       1.0  0.90300  0.59300  0.61800  1.0000
  O   O12       1.0  0.12300  0.37700  0.62300  1.0000
  O   O13       1.0  0.87700  0.87700  0.87700  1.0000
  O   O14       1.0  0.09710  0.09330  0.88200  1.0000
  O   O15       1.0  0.59300  0.61800  0.90300  1.0000
  O   O16       1.0  0.38200  0.40300  0.90700  1.0000
  P   P1        1.0  0.48200  0.51800  0.01790  1.0000
  P   P2        1.0  0.51800  0.01790  0.48200  1.0000
  P   P3        1.0  0.01790  0.48200  0.51800  1.0000
  P   P4        1.0  0.98200  0.98200  0.98200  1.0000
