data_image0
_chemical_formula_structural       B24Gd8Os4
_chemical_formula_sum              "B24 Gd8 Os4"
_cell_length_a       9.22175
_cell_length_b       11.5844
_cell_length_c       3.6856
_cell_angle_alpha    90
_cell_angle_beta     90
_cell_angle_gamma    90

_space_group_name_H-M_alt    "P 1"
_space_group_IT_number       1

loop_
  _space_group_symop_operation_xyz
  'x, y, z'

loop_
  _atom_site_type_symbol
  _atom_site_label
  _atom_site_symmetry_multiplicity
  _atom_site_fract_x
  _atom_site_fract_y
  _atom_site_fract_z
  _atom_site_occupancy
  B   B1        1.0  0.61300  0.03130  0.50000  1.0000
  B   B2        1.0  0.05380  0.06750  0.50000  1.0000
  B   B3        1.0  0.24700  0.08010  0.50000  1.0000
  B   B4        1.0  0.63300  0.18600  0.50000  1.0000
  B   B5        1.0  0.98500  0.21300  0.50000  1.0000
  B   B6        1.0  0.29000  0.23200  0.50000  1.0000
  B   B7        1.0  0.79000  0.26800  0.50000  1.0000
  B   B8        1.0  0.48500  0.28700  0.50000  1.0000
  B   B9        1.0  0.13300  0.31400  0.50000  1.0000
  B   B10       1.0  0.74700  0.42000  0.50000  1.0000
  B   B11       1.0  0.55400  0.43200  0.50000  1.0000
  B   B12       1.0  0.11300  0.46900  0.50000  1.0000
  B   B13       1.0  0.88700  0.53100  0.50000  1.0000
  B   B14       1.0  0.44600  0.56800  0.50000  1.0000
  B   B15       1.0  0.25300  0.58000  0.50000  1.0000
  B   B16       1.0  0.86700  0.68600  0.50000  1.0000
  B   B17       1.0  0.51500  0.71300  0.50000  1.0000
  B   B18       1.0  0.21000  0.73200  0.50000  1.0000
  B   B19       1.0  0.71000  0.76800  0.50000  1.0000
  B   B20       1.0  0.01530  0.78700  0.50000  1.0000
  B   B21       1.0  0.36700  0.81400  0.50000  1.0000
  B   B22       1.0  0.75300  0.92000  0.50000  1.0000
  B   B23       1.0  0.94600  0.93200  0.50000  1.0000
  B   B24       1.0  0.38700  0.96900  0.50000  1.0000
  Gd  Gd1       1.0  0.82300  0.08660  0.00000  1.0000
  Gd  Gd2       1.0  0.44400  0.12700  0.00000  1.0000
  Gd  Gd3       1.0  0.94400  0.37300  0.00000  1.0000
  Gd  Gd4       1.0  0.32300  0.41300  0.00000  1.0000
  Gd  Gd5       1.0  0.67700  0.58700  0.00000  1.0000
  Gd  Gd6       1.0  0.05590  0.62700  0.00000  1.0000
  Gd  Gd7       1.0  0.55600  0.87300  0.00000  1.0000
  Gd  Gd8       1.0  0.17700  0.91300  0.00000  1.0000
  Os  Os1       1.0  0.13700  0.17800  0.00000  1.0000
  Os  Os2       1.0  0.63700  0.32200  0.00000  1.0000
  Os  Os3       1.0  0.36300  0.67800  0.00000  1.0000
  Os  Os4       1.0  0.86300  0.82200  0.00000  1.0000
