data_image0
_chemical_formula_structural       B24Os4Yb8
_chemical_formula_sum              "B24 Os4 Yb8"
_cell_length_a       9.07125
_cell_length_b       11.3472
_cell_length_c       3.65812
_cell_angle_alpha    90
_cell_angle_beta     90
_cell_angle_gamma    90

_space_group_name_H-M_alt    "P 1"
_space_group_IT_number       1

loop_
  _space_group_symop_operation_xyz
  'x, y, z'

loop_
  _atom_site_type_symbol
  _atom_site_label
  _atom_site_symmetry_multiplicity
  _atom_site_fract_x
  _atom_site_fract_y
  _atom_site_fract_z
  _atom_site_occupancy
  B   B1        1.0  0.59700  0.02630  0.50000  1.0000
  B   B2        1.0  0.05440  0.06700  0.50000  1.0000
  B   B3        1.0  0.25100  0.08140  0.50000  1.0000
  B   B4        1.0  0.63300  0.18500  0.50000  1.0000
  B   B5        1.0  0.98400  0.21200  0.50000  1.0000
  B   B6        1.0  0.29500  0.23600  0.50000  1.0000
  B   B7        1.0  0.79500  0.26400  0.50000  1.0000
  B   B8        1.0  0.48400  0.28800  0.50000  1.0000
  B   B9        1.0  0.13300  0.31500  0.50000  1.0000
  B   B10       1.0  0.75100  0.41900  0.50000  1.0000
  B   B11       1.0  0.55400  0.43300  0.50000  1.0000
  B   B12       1.0  0.09690  0.47400  0.50000  1.0000
  B   B13       1.0  0.90300  0.52600  0.50000  1.0000
  B   B14       1.0  0.44600  0.56700  0.50000  1.0000
  B   B15       1.0  0.24900  0.58100  0.50000  1.0000
  B   B16       1.0  0.86700  0.68500  0.50000  1.0000
  B   B17       1.0  0.51600  0.71200  0.50000  1.0000
  B   B18       1.0  0.20500  0.73600  0.50000  1.0000
  B   B19       1.0  0.70500  0.76400  0.50000  1.0000
  B   B20       1.0  0.01600  0.78800  0.50000  1.0000
  B   B21       1.0  0.36700  0.81500  0.50000  1.0000
  B   B22       1.0  0.74900  0.91900  0.50000  1.0000
  B   B23       1.0  0.94600  0.93300  0.50000  1.0000
  B   B24       1.0  0.40300  0.97400  0.50000  1.0000
  Os  Os1       1.0  0.14200  0.18000  0.00000  1.0000
  Os  Os2       1.0  0.64200  0.32000  0.00000  1.0000
  Os  Os3       1.0  0.35800  0.68000  0.00000  1.0000
  Os  Os4       1.0  0.85800  0.82000  0.00000  1.0000
  Yb  Yb1       1.0  0.82700  0.08700  0.00000  1.0000
  Yb  Yb2       1.0  0.44500  0.13000  0.00000  1.0000
  Yb  Yb3       1.0  0.94500  0.37000  0.00000  1.0000
  Yb  Yb4       1.0  0.32700  0.41300  0.00000  1.0000
  Yb  Yb5       1.0  0.67300  0.58700  0.00000  1.0000
  Yb  Yb6       1.0  0.05540  0.63000  0.00000  1.0000
  Yb  Yb7       1.0  0.55500  0.87000  0.00000  1.0000
  Yb  Yb8       1.0  0.17300  0.91300  0.00000  1.0000
