data_image0
_chemical_formula_structural       Ce8Rh12Sb16
_chemical_formula_sum              "Ce8 Rh12 Sb16"
_cell_length_a       16.3222
_cell_length_b       4.60019
_cell_length_c       11.0851
_cell_angle_alpha    90
_cell_angle_beta     90
_cell_angle_gamma    90

_space_group_name_H-M_alt    "P 1"
_space_group_IT_number       1

loop_
  _space_group_symop_operation_xyz
  'x, y, z'

loop_
  _atom_site_type_symbol
  _atom_site_label
  _atom_site_symmetry_multiplicity
  _atom_site_fract_x
  _atom_site_fract_y
  _atom_site_fract_z
  _atom_site_occupancy
  Ce  Ce1       1.0  0.74900  0.75000  0.08490  1.0000
  Ce  Ce2       1.0  0.99600  0.75000  0.24800  1.0000
  Ce  Ce3       1.0  0.49600  0.75000  0.25200  1.0000
  Ce  Ce4       1.0  0.24900  0.75000  0.41500  1.0000
  Ce  Ce5       1.0  0.75100  0.25000  0.58500  1.0000
  Ce  Ce6       1.0  0.50400  0.25000  0.74800  1.0000
  Ce  Ce7       1.0  0.00378  0.25000  0.75200  1.0000
  Ce  Ce8       1.0  0.25100  0.25000  0.91500  1.0000
  Rh  Rh1       1.0  0.05710  0.25000  0.03630  1.0000
  Rh  Rh2       1.0  0.59200  0.25000  0.05300  1.0000
  Rh  Rh3       1.0  0.31900  0.25000  0.22500  1.0000
  Rh  Rh4       1.0  0.81900  0.25000  0.27500  1.0000
  Rh  Rh5       1.0  0.09250  0.25000  0.44700  1.0000
  Rh  Rh6       1.0  0.55700  0.25000  0.46400  1.0000
  Rh  Rh7       1.0  0.44300  0.75000  0.53600  1.0000
  Rh  Rh8       1.0  0.90800  0.75000  0.55300  1.0000
  Rh  Rh9       1.0  0.18100  0.75000  0.72500  1.0000
  Rh  Rh10      1.0  0.68100  0.75000  0.77500  1.0000
  Rh  Rh11      1.0  0.40800  0.75000  0.94700  1.0000
  Rh  Rh12      1.0  0.94300  0.75000  0.96400  1.0000
  Sb  Sb1       1.0  0.43200  0.25000  0.05430  1.0000
  Sb  Sb2       1.0  0.89700  0.25000  0.06160  1.0000
  Sb  Sb3       1.0  0.29100  0.75000  0.11800  1.0000
  Sb  Sb4       1.0  0.15100  0.25000  0.22700  1.0000
  Sb  Sb5       1.0  0.65100  0.25000  0.27300  1.0000
  Sb  Sb6       1.0  0.79100  0.75000  0.38200  1.0000
  Sb  Sb7       1.0  0.39700  0.25000  0.43800  1.0000
  Sb  Sb8       1.0  0.93200  0.25000  0.44600  1.0000
  Sb  Sb9       1.0  0.06800  0.75000  0.55400  1.0000
  Sb  Sb10      1.0  0.60300  0.75000  0.56200  1.0000
  Sb  Sb11      1.0  0.20900  0.25000  0.61800  1.0000
  Sb  Sb12      1.0  0.34900  0.75000  0.72700  1.0000
  Sb  Sb13      1.0  0.84900  0.75000  0.77300  1.0000
  Sb  Sb14      1.0  0.70900  0.25000  0.88200  1.0000
  Sb  Sb15      1.0  0.10300  0.75000  0.93800  1.0000
  Sb  Sb16      1.0  0.56800  0.75000  0.94600  1.0000
