data_image0
_chemical_formula_structural       Cl2K8Np2O20S4
_chemical_formula_sum              "Cl2 K8 Np2 O20 S4"
_cell_length_a       9.88621
_cell_length_b       4.51696
_cell_length_c       14.2523
_cell_angle_alpha    90
_cell_angle_beta     103.341
_cell_angle_gamma    90

_space_group_name_H-M_alt    "P 1"
_space_group_IT_number       1

loop_
  _space_group_symop_operation_xyz
  'x, y, z'

loop_
  _atom_site_type_symbol
  _atom_site_label
  _atom_site_symmetry_multiplicity
  _atom_site_fract_x
  _atom_site_fract_y
  _atom_site_fract_z
  _atom_site_occupancy
  Cl  Cl1       1.0  0.75000  0.73300  0.25000  1.0000
  Cl  Cl2       1.0  0.25000  0.26700  0.75000  1.0000
  K   K1        1.0  0.94000  0.76300  0.10700  1.0000
  K   K2        1.0  0.57000  0.22900  0.13100  1.0000
  K   K3        1.0  0.93000  0.22900  0.36900  1.0000
  K   K4        1.0  0.56000  0.76300  0.39300  1.0000
  K   K5        1.0  0.44000  0.23700  0.60700  1.0000
  K   K6        1.0  0.06980  0.77100  0.63100  1.0000
  K   K7        1.0  0.43000  0.77100  0.86900  1.0000
  K   K8        1.0  0.06020  0.23700  0.89300  1.0000
  Np  Np1       1.0  0.25000  0.26000  0.25000  1.0000
  Np  Np2       1.0  0.75000  0.74000  0.75000  1.0000
  O   O1        1.0  0.84000  0.25200  0.01470  1.0000
  O   O2        1.0  0.41100  0.75100  0.05480  1.0000
  O   O3        1.0  0.27100  0.32500  0.07730  1.0000
  O   O4        1.0  0.24700  0.76900  0.16100  1.0000
  O   O5        1.0  0.05870  0.26100  0.21500  1.0000
  O   O6        1.0  0.44100  0.26100  0.28500  1.0000
  O   O7        1.0  0.25300  0.76900  0.33900  1.0000
  O   O8        1.0  0.22900  0.32500  0.42300  1.0000
  O   O9        1.0  0.08870  0.75100  0.44500  1.0000
  O   O10       1.0  0.66000  0.25200  0.48500  1.0000
  O   O11       1.0  0.34000  0.74800  0.51500  1.0000
  O   O12       1.0  0.91100  0.24900  0.55500  1.0000
  O   O13       1.0  0.77100  0.67500  0.57700  1.0000
  O   O14       1.0  0.74700  0.23100  0.66100  1.0000
  O   O15       1.0  0.55900  0.73900  0.71500  1.0000
  O   O16       1.0  0.94100  0.73900  0.78500  1.0000
  O   O17       1.0  0.75300  0.23100  0.83900  1.0000
  O   O18       1.0  0.72900  0.67500  0.92300  1.0000
  O   O19       1.0  0.58900  0.24900  0.94500  1.0000
  O   O20       1.0  0.16000  0.74800  0.98500  1.0000
  S   S1        1.0  0.27400  0.65500  0.06610  1.0000
  S   S2        1.0  0.22600  0.65500  0.43400  1.0000
  S   S3        1.0  0.77400  0.34500  0.56600  1.0000
  S   S4        1.0  0.72600  0.34500  0.93400  1.0000
