data_image0
_chemical_formula_structural       Ge16Ru12Yb8
_chemical_formula_sum              "Ge16 Ru12 Yb8"
_cell_length_a       5.54467
_cell_length_b       10.4467
_cell_length_c       11.412
_cell_angle_alpha    92.5463
_cell_angle_beta     104.06
_cell_angle_gamma    105.389

_space_group_name_H-M_alt    "P 1"
_space_group_IT_number       1

loop_
  _space_group_symop_operation_xyz
  'x, y, z'

loop_
  _atom_site_type_symbol
  _atom_site_label
  _atom_site_symmetry_multiplicity
  _atom_site_fract_x
  _atom_site_fract_y
  _atom_site_fract_z
  _atom_site_occupancy
  Ge  Ge1       1.0  0.15900  0.72700  0.06530  1.0000
  Ge  Ge2       1.0  0.71200  0.57400  0.10100  1.0000
  Ge  Ge3       1.0  0.84500  0.88100  0.10100  1.0000
  Ge  Ge4       1.0  0.38000  0.25000  0.25000  1.0000
  Ge  Ge5       1.0  0.86900  0.25000  0.25000  1.0000
  Ge  Ge6       1.0  0.36300  0.61900  0.39900  1.0000
  Ge  Ge7       1.0  0.53800  0.92600  0.39900  1.0000
  Ge  Ge8       1.0  0.86700  0.77300  0.43500  1.0000
  Ge  Ge9       1.0  0.13300  0.22700  0.56500  1.0000
  Ge  Ge10      1.0  0.46200  0.07370  0.60100  1.0000
  Ge  Ge11      1.0  0.63700  0.38100  0.60100  1.0000
  Ge  Ge12      1.0  0.13100  0.75000  0.75000  1.0000
  Ge  Ge13      1.0  0.62000  0.75000  0.75000  1.0000
  Ge  Ge14      1.0  0.15500  0.11900  0.89900  1.0000
  Ge  Ge15      1.0  0.28800  0.42600  0.89900  1.0000
  Ge  Ge16      1.0  0.84100  0.27300  0.93500  1.0000
  Ru  Ru1       1.0  0.55600  0.31200  0.06200  1.0000
  Ru  Ru2       1.0  0.98700  0.12500  0.08880  1.0000
  Ru  Ru3       1.0  0.58900  0.74000  0.22300  1.0000
  Ru  Ru4       1.0  0.12500  0.76000  0.27700  1.0000
  Ru  Ru5       1.0  0.27300  0.37500  0.41100  1.0000
  Ru  Ru6       1.0  0.68200  0.18800  0.43800  1.0000
  Ru  Ru7       1.0  0.31800  0.81200  0.56200  1.0000
  Ru  Ru8       1.0  0.72700  0.62500  0.58900  1.0000
  Ru  Ru9       1.0  0.87500  0.24000  0.72300  1.0000
  Ru  Ru10      1.0  0.41100  0.26000  0.77700  1.0000
  Ru  Ru11      1.0  0.01340  0.87500  0.91100  1.0000
  Ru  Ru12      1.0  0.44400  0.68800  0.93800  1.0000
  Yb  Yb1       1.0  0.44100  0.00499  0.14200  1.0000
  Yb  Yb2       1.0  0.18400  0.46900  0.14500  1.0000
  Yb  Yb3       1.0  0.07060  0.03130  0.35500  1.0000
  Yb  Yb4       1.0  0.79400  0.49500  0.35800  1.0000
  Yb  Yb5       1.0  0.20600  0.50500  0.64200  1.0000
  Yb  Yb6       1.0  0.92900  0.96900  0.64500  1.0000
  Yb  Yb7       1.0  0.81600  0.53100  0.85500  1.0000
  Yb  Yb8       1.0  0.55900  0.99500  0.85800  1.0000
