data_image0
_chemical_formula_structural       B26Ni2Yb8
_chemical_formula_sum              "B26 Ni2 Yb8"
_cell_length_a       7.32684
_cell_length_b       7.32684
_cell_length_c       6.75772
_cell_angle_alpha    90
_cell_angle_beta     90
_cell_angle_gamma    90

_space_group_name_H-M_alt    "P 1"
_space_group_IT_number       1

loop_
  _space_group_symop_operation_xyz
  'x, y, z'

loop_
  _atom_site_type_symbol
  _atom_site_label
  _atom_site_symmetry_multiplicity
  _atom_site_fract_x
  _atom_site_fract_y
  _atom_site_fract_z
  _atom_site_occupancy
  B   B1        1.0  0.50000  0.50000  0.00000  1.0000
  B   B2        1.0  0.53900  0.33200  0.23500  1.0000
  B   B3        1.0  0.33200  0.46100  0.23500  1.0000
  B   B4        1.0  0.66800  0.53900  0.23500  1.0000
  B   B5        1.0  0.46100  0.66800  0.23500  1.0000
  B   B6        1.0  0.59100  0.09130  0.25000  1.0000
  B   B7        1.0  0.09130  0.40900  0.25000  1.0000
  B   B8        1.0  0.90900  0.59100  0.25000  1.0000
  B   B9        1.0  0.40900  0.90900  0.25000  1.0000
  B   B10       1.0  0.83200  0.03850  0.26500  1.0000
  B   B11       1.0  0.03850  0.16800  0.26500  1.0000
  B   B12       1.0  0.96100  0.83200  0.26500  1.0000
  B   B13       1.0  0.16800  0.96100  0.26500  1.0000
  B   B14       1.0  0.00000  0.00000  0.50000  1.0000
  B   B15       1.0  0.83200  0.03850  0.73500  1.0000
  B   B16       1.0  0.03850  0.16800  0.73500  1.0000
  B   B17       1.0  0.96100  0.83200  0.73500  1.0000
  B   B18       1.0  0.16800  0.96100  0.73500  1.0000
  B   B19       1.0  0.59100  0.09130  0.75000  1.0000
  B   B20       1.0  0.09130  0.40900  0.75000  1.0000
  B   B21       1.0  0.90900  0.59100  0.75000  1.0000
  B   B22       1.0  0.40900  0.90900  0.75000  1.0000
  B   B23       1.0  0.53900  0.33200  0.76500  1.0000
  B   B24       1.0  0.33200  0.46100  0.76500  1.0000
  B   B25       1.0  0.66800  0.53900  0.76500  1.0000
  B   B26       1.0  0.46100  0.66800  0.76500  1.0000
  Ni  Ni1       1.0  0.00000  0.00000  0.00000  1.0000
  Ni  Ni2       1.0  0.50000  0.50000  0.50000  1.0000
  Yb  Yb1       1.0  0.31200  0.18000  0.00000  1.0000
  Yb  Yb2       1.0  0.82000  0.31200  0.00000  1.0000
  Yb  Yb3       1.0  0.18000  0.68800  0.00000  1.0000
  Yb  Yb4       1.0  0.68800  0.82000  0.00000  1.0000
  Yb  Yb5       1.0  0.32000  0.18800  0.50000  1.0000
  Yb  Yb6       1.0  0.81200  0.32000  0.50000  1.0000
  Yb  Yb7       1.0  0.18800  0.68000  0.50000  1.0000
  Yb  Yb8       1.0  0.68000  0.81200  0.50000  1.0000
