data_image0
_chemical_formula_structural       Br8P16Se12
_chemical_formula_sum              "Br8 P16 Se12"
_cell_length_a       10.2143
_cell_length_b       10.2143
_cell_length_c       12.9732
_cell_angle_alpha    107.271
_cell_angle_beta     107.271
_cell_angle_gamma    98.8893

_space_group_name_H-M_alt    "P 1"
_space_group_IT_number       1

loop_
  _space_group_symop_operation_xyz
  'x, y, z'

loop_
  _atom_site_type_symbol
  _atom_site_label
  _atom_site_symmetry_multiplicity
  _atom_site_fract_x
  _atom_site_fract_y
  _atom_site_fract_z
  _atom_site_occupancy
  Br  Br1       1.0  0.65200  0.87600  0.03510  1.0000
  Br  Br2       1.0  0.96000  0.23900  0.07100  1.0000
  Br  Br3       1.0  0.76100  0.03960  0.42900  1.0000
  Br  Br4       1.0  0.12400  0.34800  0.46500  1.0000
  Br  Br5       1.0  0.87600  0.65200  0.53500  1.0000
  Br  Br6       1.0  0.23900  0.96000  0.57100  1.0000
  Br  Br7       1.0  0.03960  0.76100  0.92900  1.0000
  Br  Br8       1.0  0.34800  0.12400  0.96500  1.0000
  P   P1        1.0  0.14500  0.68600  0.07560  1.0000
  P   P2        1.0  0.40200  0.35600  0.08300  1.0000
  P   P3        1.0  0.63600  0.40800  0.13100  1.0000
  P   P4        1.0  0.99600  0.71900  0.16900  1.0000
  P   P5        1.0  0.28100  0.00446  0.33100  1.0000
  P   P6        1.0  0.59200  0.36400  0.36900  1.0000
  P   P7        1.0  0.64400  0.59800  0.41700  1.0000
  P   P8        1.0  0.31400  0.85500  0.42400  1.0000
  P   P9        1.0  0.68600  0.14500  0.57600  1.0000
  P   P10       1.0  0.35600  0.40200  0.58300  1.0000
  P   P11       1.0  0.40800  0.63600  0.63100  1.0000
  P   P12       1.0  0.71900  0.99600  0.66900  1.0000
  P   P13       1.0  0.00446  0.28100  0.83100  1.0000
  P   P14       1.0  0.36400  0.59200  0.86900  1.0000
  P   P15       1.0  0.59800  0.64400  0.91700  1.0000
  P   P16       1.0  0.85500  0.31400  0.92400  1.0000
  Se  Se1       1.0  0.34500  0.87000  0.18900  1.0000
  Se  Se2       1.0  0.36800  0.33700  0.24600  1.0000
  Se  Se3       1.0  0.71100  0.28900  0.25000  1.0000
  Se  Se4       1.0  0.04190  0.95800  0.25000  1.0000
  Se  Se5       1.0  0.66300  0.63200  0.25400  1.0000
  Se  Se6       1.0  0.13000  0.65500  0.31100  1.0000
  Se  Se7       1.0  0.87000  0.34500  0.68900  1.0000
  Se  Se8       1.0  0.33700  0.36800  0.74600  1.0000
  Se  Se9       1.0  0.95800  0.04190  0.75000  1.0000
  Se  Se10      1.0  0.28900  0.71100  0.75000  1.0000
  Se  Se11      1.0  0.63200  0.66300  0.75400  1.0000
  Se  Se12      1.0  0.65500  0.13000  0.81100  1.0000
