data_image0
_chemical_formula_structural       Co4N12O8S12
_chemical_formula_sum              "Co4 N12 O8 S12"
_cell_length_a       5.95049
_cell_length_b       15.1057
_cell_length_c       7.00485
_cell_angle_alpha    90
_cell_angle_beta     103.796
_cell_angle_gamma    90

_space_group_name_H-M_alt    "P 1"
_space_group_IT_number       1

loop_
  _space_group_symop_operation_xyz
  'x, y, z'

loop_
  _atom_site_type_symbol
  _atom_site_label
  _atom_site_symmetry_multiplicity
  _atom_site_fract_x
  _atom_site_fract_y
  _atom_site_fract_z
  _atom_site_occupancy
  Co  Co1       1.0  0.15000  0.11900  0.05200  1.0000
  Co  Co2       1.0  0.85000  0.61900  0.44800  1.0000
  Co  Co3       1.0  0.15000  0.38100  0.55200  1.0000
  Co  Co4       1.0  0.85000  0.88100  0.94800  1.0000
  N   N1        1.0  0.08140  0.32700  0.03720  1.0000
  N   N2        1.0  0.76700  0.93400  0.12300  1.0000
  N   N3        1.0  0.78700  0.56200  0.24400  1.0000
  N   N4        1.0  0.21300  0.06240  0.25600  1.0000
  N   N5        1.0  0.23300  0.43400  0.37700  1.0000
  N   N6        1.0  0.91900  0.82700  0.46300  1.0000
  N   N7        1.0  0.08140  0.17300  0.53700  1.0000
  N   N8        1.0  0.76700  0.56600  0.62300  1.0000
  N   N9        1.0  0.78700  0.93800  0.74400  1.0000
  N   N10       1.0  0.21300  0.43800  0.75600  1.0000
  N   N11       1.0  0.23300  0.06640  0.87700  1.0000
  N   N12       1.0  0.91900  0.67300  0.96300  1.0000
  O   O1        1.0  0.72200  0.50800  0.12300  1.0000
  O   O2        1.0  0.67600  0.98400  0.20700  1.0000
  O   O3        1.0  0.32400  0.48400  0.29300  1.0000
  O   O4        1.0  0.27800  0.00837  0.37700  1.0000
  O   O5        1.0  0.72200  0.99200  0.62300  1.0000
  O   O6        1.0  0.67600  0.51600  0.70700  1.0000
  O   O7        1.0  0.32400  0.01570  0.79300  1.0000
  O   O8        1.0  0.27800  0.49200  0.87700  1.0000
  S   S1        1.0  0.18400  0.69800  0.01670  1.0000
  S   S2        1.0  0.21400  0.83200  0.02240  1.0000
  S   S3        1.0  0.29100  0.25500  0.08110  1.0000
  S   S4        1.0  0.70900  0.75500  0.41900  1.0000
  S   S5        1.0  0.78600  0.33200  0.47800  1.0000
  S   S6        1.0  0.81600  0.19800  0.48300  1.0000
  S   S7        1.0  0.18400  0.80200  0.51700  1.0000
  S   S8        1.0  0.21400  0.66800  0.52200  1.0000
  S   S9        1.0  0.29100  0.24500  0.58100  1.0000
  S   S10       1.0  0.70900  0.74500  0.91900  1.0000
  S   S11       1.0  0.78600  0.16800  0.97800  1.0000
  S   S12       1.0  0.81600  0.30200  0.98300  1.0000
