data_image0
_chemical_formula_structural       Au12Ca8In16
_chemical_formula_sum              "Au12 Ca8 In16"
_cell_length_a       14.8519
_cell_length_b       4.47135
_cell_length_c       12.8695
_cell_angle_alpha    90
_cell_angle_beta     90
_cell_angle_gamma    90

_space_group_name_H-M_alt    "P 1"
_space_group_IT_number       1

loop_
  _space_group_symop_operation_xyz
  'x, y, z'

loop_
  _atom_site_type_symbol
  _atom_site_label
  _atom_site_symmetry_multiplicity
  _atom_site_fract_x
  _atom_site_fract_y
  _atom_site_fract_z
  _atom_site_occupancy
  Au  Au1       1.0  0.62600  0.25000  0.08010  1.0000
  Au  Au2       1.0  0.12200  0.75000  0.08200  1.0000
  Au  Au3       1.0  0.87100  0.25000  0.24600  1.0000
  Au  Au4       1.0  0.37100  0.25000  0.25400  1.0000
  Au  Au5       1.0  0.62200  0.75000  0.41800  1.0000
  Au  Au6       1.0  0.12600  0.25000  0.42000  1.0000
  Au  Au7       1.0  0.87400  0.75000  0.58000  1.0000
  Au  Au8       1.0  0.37800  0.25000  0.58200  1.0000
  Au  Au9       1.0  0.62900  0.75000  0.74600  1.0000
  Au  Au10      1.0  0.12900  0.75000  0.75400  1.0000
  Au  Au11      1.0  0.87800  0.25000  0.91800  1.0000
  Au  Au12      1.0  0.37400  0.75000  0.92000  1.0000
  Ca  Ca1       1.0  0.79100  0.75000  0.08420  1.0000
  Ca  Ca2       1.0  0.51900  0.75000  0.21400  1.0000
  Ca  Ca3       1.0  0.01940  0.75000  0.28600  1.0000
  Ca  Ca4       1.0  0.29100  0.75000  0.41600  1.0000
  Ca  Ca5       1.0  0.70900  0.25000  0.58400  1.0000
  Ca  Ca6       1.0  0.98100  0.25000  0.71400  1.0000
  Ca  Ca7       1.0  0.48100  0.25000  0.78600  1.0000
  Ca  Ca8       1.0  0.20900  0.25000  0.91600  1.0000
  In  In1       1.0  0.42900  0.25000  0.03990  1.0000
  In  In2       1.0  0.99600  0.25000  0.08690  1.0000
  In  In3       1.0  0.30400  0.75000  0.13100  1.0000
  In  In4       1.0  0.18000  0.25000  0.21600  1.0000
  In  In5       1.0  0.68000  0.25000  0.28400  1.0000
  In  In6       1.0  0.80400  0.75000  0.36900  1.0000
  In  In7       1.0  0.49600  0.25000  0.41300  1.0000
  In  In8       1.0  0.92900  0.25000  0.46000  1.0000
  In  In9       1.0  0.07130  0.75000  0.54000  1.0000
  In  In10      1.0  0.50400  0.75000  0.58700  1.0000
  In  In11      1.0  0.19600  0.25000  0.63100  1.0000
  In  In12      1.0  0.32000  0.75000  0.71600  1.0000
  In  In13      1.0  0.82000  0.75000  0.78400  1.0000
  In  In14      1.0  0.69600  0.25000  0.86900  1.0000
  In  In15      1.0  0.00442  0.75000  0.91300  1.0000
  In  In16      1.0  0.57100  0.75000  0.96000  1.0000
