data_image0
_chemical_formula_structural       I8Mn4O24
_chemical_formula_sum              "I8 Mn4 O24"
_cell_length_a       11.1296
_cell_length_b       4.90803
_cell_length_c       11.18
_cell_angle_alpha    90
_cell_angle_beta     119.879
_cell_angle_gamma    90

_space_group_name_H-M_alt    "P 1"
_space_group_IT_number       1

loop_
  _space_group_symop_operation_xyz
  'x, y, z'

loop_
  _atom_site_type_symbol
  _atom_site_label
  _atom_site_symmetry_multiplicity
  _atom_site_fract_x
  _atom_site_fract_y
  _atom_site_fract_z
  _atom_site_occupancy
  I   I1        1.0  0.16700  0.74600  0.06760  1.0000
  I   I2        1.0  0.66600  0.75200  0.09720  1.0000
  I   I3        1.0  0.83500  0.24800  0.40500  1.0000
  I   I4        1.0  0.33400  0.24200  0.43200  1.0000
  I   I5        1.0  0.66600  0.74200  0.56800  1.0000
  I   I6        1.0  0.16500  0.74800  0.59500  1.0000
  I   I7        1.0  0.33400  0.25200  0.90300  1.0000
  I   I8        1.0  0.83300  0.24600  0.93200  1.0000
  Mn  Mn1       1.0  0.48900  0.31400  0.24400  1.0000
  Mn  Mn2       1.0  0.01070  0.81200  0.25500  1.0000
  Mn  Mn3       1.0  0.98900  0.31200  0.74500  1.0000
  Mn  Mn4       1.0  0.51100  0.81400  0.75600  1.0000
  O   O1        1.0  0.45200  0.07220  0.06490  1.0000
  O   O2        1.0  0.97400  0.05780  0.07650  1.0000
  O   O3        1.0  0.31400  0.54000  0.08640  1.0000
  O   O4        1.0  0.82600  0.58000  0.12700  1.0000
  O   O5        1.0  0.14900  0.59300  0.20800  1.0000
  O   O6        1.0  0.63900  0.53700  0.21700  1.0000
  O   O7        1.0  0.86400  0.03450  0.28700  1.0000
  O   O8        1.0  0.35200  0.09190  0.29100  1.0000
  O   O9        1.0  0.67300  0.07740  0.37300  1.0000
  O   O10       1.0  0.18700  0.03360  0.41200  1.0000
  O   O11       1.0  0.52500  0.55400  0.42500  1.0000
  O   O12       1.0  0.04930  0.56500  0.43300  1.0000
  O   O13       1.0  0.95100  0.06460  0.56700  1.0000
  O   O14       1.0  0.47500  0.05380  0.57500  1.0000
  O   O15       1.0  0.81300  0.53400  0.58800  1.0000
  O   O16       1.0  0.32700  0.57700  0.62700  1.0000
  O   O17       1.0  0.64800  0.59200  0.70900  1.0000
  O   O18       1.0  0.13600  0.53500  0.71300  1.0000
  O   O19       1.0  0.36100  0.03700  0.78300  1.0000
  O   O20       1.0  0.85100  0.09300  0.79200  1.0000
  O   O21       1.0  0.17400  0.07950  0.87300  1.0000
  O   O22       1.0  0.68600  0.04040  0.91400  1.0000
  O   O23       1.0  0.02550  0.55800  0.92300  1.0000
  O   O24       1.0  0.54800  0.57200  0.93500  1.0000
