data_image0
_chemical_formula_structural       Ca2Mg4O24S6
_chemical_formula_sum              "Ca2 Mg4 O24 S6"
_cell_length_a       8.15819
_cell_length_b       8.15826
_cell_length_c       7.33896
_cell_angle_alpha    90
_cell_angle_beta     90
_cell_angle_gamma    119.999

_space_group_name_H-M_alt    "P 1"
_space_group_IT_number       1

loop_
  _space_group_symop_operation_xyz
  'x, y, z'

loop_
  _atom_site_type_symbol
  _atom_site_label
  _atom_site_symmetry_multiplicity
  _atom_site_fract_x
  _atom_site_fract_y
  _atom_site_fract_z
  _atom_site_occupancy
  Ca  Ca1       1.0  0.00000  0.00000  0.00000  1.0000
  Ca  Ca2       1.0  0.00000  0.00000  0.50000  1.0000
  Mg  Mg1       1.0  0.33300  0.66700  0.05000  1.0000
  Mg  Mg2       1.0  0.33300  0.66700  0.45000  1.0000
  Mg  Mg3       1.0  0.66700  0.33300  0.55000  1.0000
  Mg  Mg4       1.0  0.66700  0.33300  0.95000  1.0000
  O   O1        1.0  0.71700  0.56800  0.08410  1.0000
  O   O2        1.0  0.43200  0.14900  0.08410  1.0000
  O   O3        1.0  0.85100  0.28300  0.08410  1.0000
  O   O4        1.0  0.05920  0.20900  0.25000  1.0000
  O   O5        1.0  0.11900  0.53000  0.25000  1.0000
  O   O6        1.0  0.47000  0.58900  0.25000  1.0000
  O   O7        1.0  0.79100  0.85000  0.25000  1.0000
  O   O8        1.0  0.41100  0.88100  0.25000  1.0000
  O   O9        1.0  0.15000  0.94100  0.25000  1.0000
  O   O10       1.0  0.43200  0.14900  0.41600  1.0000
  O   O11       1.0  0.85100  0.28300  0.41600  1.0000
  O   O12       1.0  0.71700  0.56800  0.41600  1.0000
  O   O13       1.0  0.28300  0.43200  0.58400  1.0000
  O   O14       1.0  0.14900  0.71700  0.58400  1.0000
  O   O15       1.0  0.56800  0.85100  0.58400  1.0000
  O   O16       1.0  0.85000  0.05920  0.75000  1.0000
  O   O17       1.0  0.58900  0.11900  0.75000  1.0000
  O   O18       1.0  0.20900  0.15000  0.75000  1.0000
  O   O19       1.0  0.53000  0.41100  0.75000  1.0000
  O   O20       1.0  0.88100  0.47000  0.75000  1.0000
  O   O21       1.0  0.94100  0.79100  0.75000  1.0000
  O   O22       1.0  0.14900  0.71700  0.91600  1.0000
  O   O23       1.0  0.56800  0.85100  0.91600  1.0000
  O   O24       1.0  0.28300  0.43200  0.91600  1.0000
  S   S1        1.0  0.36000  0.03310  0.25000  1.0000
  S   S2        1.0  0.96700  0.32700  0.25000  1.0000
  S   S3        1.0  0.67300  0.64000  0.25000  1.0000
  S   S4        1.0  0.32700  0.36000  0.75000  1.0000
  S   S5        1.0  0.03310  0.67300  0.75000  1.0000
  S   S6        1.0  0.64000  0.96700  0.75000  1.0000
