data_image0
_chemical_formula_structural       B24Ru4Yb8
_chemical_formula_sum              "B24 Ru4 Yb8"
_cell_length_a       9.04184
_cell_length_b       11.3386
_cell_length_c       3.68561
_cell_angle_alpha    90
_cell_angle_beta     90
_cell_angle_gamma    90

_space_group_name_H-M_alt    "P 1"
_space_group_IT_number       1

loop_
  _space_group_symop_operation_xyz
  'x, y, z'

loop_
  _atom_site_type_symbol
  _atom_site_label
  _atom_site_symmetry_multiplicity
  _atom_site_fract_x
  _atom_site_fract_y
  _atom_site_fract_z
  _atom_site_occupancy
  B   B1        1.0  0.59700  0.02600  0.50000  1.0000
  B   B2        1.0  0.05470  0.06690  0.50000  1.0000
  B   B3        1.0  0.25100  0.08170  0.50000  1.0000
  B   B4        1.0  0.63400  0.18400  0.50000  1.0000
  B   B5        1.0  0.98400  0.21100  0.50000  1.0000
  B   B6        1.0  0.29500  0.23700  0.50000  1.0000
  B   B7        1.0  0.79500  0.26300  0.50000  1.0000
  B   B8        1.0  0.48400  0.28900  0.50000  1.0000
  B   B9        1.0  0.13400  0.31600  0.50000  1.0000
  B   B10       1.0  0.75100  0.41800  0.50000  1.0000
  B   B11       1.0  0.55500  0.43300  0.50000  1.0000
  B   B12       1.0  0.09660  0.47400  0.50000  1.0000
  B   B13       1.0  0.90300  0.52600  0.50000  1.0000
  B   B14       1.0  0.44500  0.56700  0.50000  1.0000
  B   B15       1.0  0.24900  0.58200  0.50000  1.0000
  B   B16       1.0  0.86600  0.68400  0.50000  1.0000
  B   B17       1.0  0.51600  0.71100  0.50000  1.0000
  B   B18       1.0  0.20500  0.73700  0.50000  1.0000
  B   B19       1.0  0.70500  0.76300  0.50000  1.0000
  B   B20       1.0  0.01610  0.78900  0.50000  1.0000
  B   B21       1.0  0.36600  0.81600  0.50000  1.0000
  B   B22       1.0  0.74900  0.91800  0.50000  1.0000
  B   B23       1.0  0.94500  0.93300  0.50000  1.0000
  B   B24       1.0  0.40300  0.97400  0.50000  1.0000
  Ru  Ru1       1.0  0.14200  0.18000  0.00000  1.0000
  Ru  Ru2       1.0  0.64200  0.32000  0.00000  1.0000
  Ru  Ru3       1.0  0.35800  0.68000  0.00000  1.0000
  Ru  Ru4       1.0  0.85800  0.82000  0.00000  1.0000
  Yb  Yb1       1.0  0.82700  0.08630  0.00000  1.0000
  Yb  Yb2       1.0  0.44400  0.13200  0.00000  1.0000
  Yb  Yb3       1.0  0.94400  0.36800  0.00000  1.0000
  Yb  Yb4       1.0  0.32700  0.41400  0.00000  1.0000
  Yb  Yb5       1.0  0.67300  0.58600  0.00000  1.0000
  Yb  Yb6       1.0  0.05580  0.63200  0.00000  1.0000
  Yb  Yb7       1.0  0.55600  0.86800  0.00000  1.0000
  Yb  Yb8       1.0  0.17300  0.91400  0.00000  1.0000
