data_image0
_chemical_formula_structural       Cl4Cu4P16Se12
_chemical_formula_sum              "Cl4 Cu4 P16 Se12"
_cell_length_a       12.5534
_cell_length_b       11.5272
_cell_length_c       6.57646
_cell_angle_alpha    90
_cell_angle_beta     100.857
_cell_angle_gamma    90

_space_group_name_H-M_alt    "P 1"
_space_group_IT_number       1

loop_
  _space_group_symop_operation_xyz
  'x, y, z'

loop_
  _atom_site_type_symbol
  _atom_site_label
  _atom_site_symmetry_multiplicity
  _atom_site_fract_x
  _atom_site_fract_y
  _atom_site_fract_z
  _atom_site_occupancy
  Cl  Cl1       1.0  0.97300  0.67100  0.09350  1.0000
  Cl  Cl2       1.0  0.02700  0.17100  0.40600  1.0000
  Cl  Cl3       1.0  0.97300  0.82900  0.59400  1.0000
  Cl  Cl4       1.0  0.02700  0.32900  0.90600  1.0000
  Cu  Cu1       1.0  0.01630  0.35400  0.25000  1.0000
  Cu  Cu2       1.0  0.98400  0.85400  0.25000  1.0000
  Cu  Cu3       1.0  0.01630  0.14600  0.75000  1.0000
  Cu  Cu4       1.0  0.98400  0.64600  0.75000  1.0000
  P   P1        1.0  0.78200  0.14100  0.05700  1.0000
  P   P2        1.0  0.84100  0.95500  0.06640  1.0000
  P   P3        1.0  0.14200  0.93200  0.20000  1.0000
  P   P4        1.0  0.59500  0.53100  0.23000  1.0000
  P   P5        1.0  0.40500  0.03120  0.27000  1.0000
  P   P6        1.0  0.85800  0.43200  0.30000  1.0000
  P   P7        1.0  0.15900  0.45500  0.43400  1.0000
  P   P8        1.0  0.21800  0.64100  0.44300  1.0000
  P   P9        1.0  0.78200  0.35900  0.55700  1.0000
  P   P10       1.0  0.84100  0.54500  0.56600  1.0000
  P   P11       1.0  0.14200  0.56800  0.70000  1.0000
  P   P12       1.0  0.59500  0.96900  0.73000  1.0000
  P   P13       1.0  0.40500  0.46900  0.77000  1.0000
  P   P14       1.0  0.85800  0.06810  0.80000  1.0000
  P   P15       1.0  0.15900  0.04540  0.93400  1.0000
  P   P16       1.0  0.21800  0.85900  0.94300  1.0000
  Se  Se1       1.0  0.72000  0.47900  0.03900  1.0000
  Se  Se2       1.0  0.30600  0.15700  0.04280  1.0000
  Se  Se3       1.0  0.39800  0.87000  0.06360  1.0000
  Se  Se4       1.0  0.60200  0.37000  0.43600  1.0000
  Se  Se5       1.0  0.69400  0.65700  0.45700  1.0000
  Se  Se6       1.0  0.28000  0.97900  0.46100  1.0000
  Se  Se7       1.0  0.72000  0.02060  0.53900  1.0000
  Se  Se8       1.0  0.30600  0.34300  0.54300  1.0000
  Se  Se9       1.0  0.39800  0.63000  0.56400  1.0000
  Se  Se10      1.0  0.60200  0.13000  0.93600  1.0000
  Se  Se11      1.0  0.69400  0.84300  0.95700  1.0000
  Se  Se12      1.0  0.28000  0.52100  0.96100  1.0000
