data_image0
_chemical_formula_structural       B24Os4Y8
_chemical_formula_sum              "B24 Os4 Y8"
_cell_length_a       9.15939
_cell_length_b       11.5344
_cell_length_c       3.65489
_cell_angle_alpha    90
_cell_angle_beta     90
_cell_angle_gamma    90

_space_group_name_H-M_alt    "P 1"
_space_group_IT_number       1

loop_
  _space_group_symop_operation_xyz
  'x, y, z'

loop_
  _atom_site_type_symbol
  _atom_site_label
  _atom_site_symmetry_multiplicity
  _atom_site_fract_x
  _atom_site_fract_y
  _atom_site_fract_z
  _atom_site_occupancy
  B   B1        1.0  0.61100  0.03070  0.50000  1.0000
  B   B2        1.0  0.05350  0.06710  0.50000  1.0000
  B   B3        1.0  0.24700  0.07990  0.50000  1.0000
  B   B4        1.0  0.63200  0.18600  0.50000  1.0000
  B   B5        1.0  0.98300  0.21300  0.50000  1.0000
  B   B6        1.0  0.29100  0.23300  0.50000  1.0000
  B   B7        1.0  0.79100  0.26700  0.50000  1.0000
  B   B8        1.0  0.48300  0.28700  0.50000  1.0000
  B   B9        1.0  0.13200  0.31400  0.50000  1.0000
  B   B10       1.0  0.74700  0.42000  0.50000  1.0000
  B   B11       1.0  0.55400  0.43300  0.50000  1.0000
  B   B12       1.0  0.11100  0.46900  0.50000  1.0000
  B   B13       1.0  0.88900  0.53100  0.50000  1.0000
  B   B14       1.0  0.44600  0.56700  0.50000  1.0000
  B   B15       1.0  0.25300  0.58000  0.50000  1.0000
  B   B16       1.0  0.86800  0.68600  0.50000  1.0000
  B   B17       1.0  0.51700  0.71300  0.50000  1.0000
  B   B18       1.0  0.20900  0.73300  0.50000  1.0000
  B   B19       1.0  0.70900  0.76700  0.50000  1.0000
  B   B20       1.0  0.01660  0.78700  0.50000  1.0000
  B   B21       1.0  0.36800  0.81400  0.50000  1.0000
  B   B22       1.0  0.75300  0.92000  0.50000  1.0000
  B   B23       1.0  0.94600  0.93300  0.50000  1.0000
  B   B24       1.0  0.38900  0.96900  0.50000  1.0000
  Os  Os1       1.0  0.13700  0.17800  0.00000  1.0000
  Os  Os2       1.0  0.63700  0.32200  0.00000  1.0000
  Os  Os3       1.0  0.36300  0.67800  0.00000  1.0000
  Os  Os4       1.0  0.86300  0.82200  0.00000  1.0000
  Y   Y1        1.0  0.82200  0.08640  0.00000  1.0000
  Y   Y2        1.0  0.44400  0.12600  0.00000  1.0000
  Y   Y3        1.0  0.94400  0.37400  0.00000  1.0000
  Y   Y4        1.0  0.32200  0.41400  0.00000  1.0000
  Y   Y5        1.0  0.67800  0.58600  0.00000  1.0000
  Y   Y6        1.0  0.05600  0.62600  0.00000  1.0000
  Y   Y7        1.0  0.55600  0.87400  0.00000  1.0000
  Y   Y8        1.0  0.17800  0.91400  0.00000  1.0000
