data_image0
_chemical_formula_structural       O24Pu4Se8
_chemical_formula_sum              "O24 Pu4 Se8"
_cell_length_a       6.99265
_cell_length_b       10.631
_cell_length_c       7.13243
_cell_angle_alpha    90
_cell_angle_beta     107.133
_cell_angle_gamma    90

_space_group_name_H-M_alt    "P 1"
_space_group_IT_number       1

loop_
  _space_group_symop_operation_xyz
  'x, y, z'

loop_
  _atom_site_type_symbol
  _atom_site_label
  _atom_site_symmetry_multiplicity
  _atom_site_fract_x
  _atom_site_fract_y
  _atom_site_fract_z
  _atom_site_occupancy
  O   O1        1.0  0.42800  0.89800  0.03750  1.0000
  O   O2        1.0  0.09530  0.90200  0.08510  1.0000
  O   O3        1.0  0.68400  0.71200  0.10500  1.0000
  O   O4        1.0  0.02810  0.59300  0.17300  1.0000
  O   O5        1.0  0.68600  0.47100  0.19600  1.0000
  O   O6        1.0  0.14000  0.24000  0.20000  1.0000
  O   O7        1.0  0.36000  0.74000  0.30000  1.0000
  O   O8        1.0  0.81400  0.97100  0.30400  1.0000
  O   O9        1.0  0.47200  0.09250  0.32700  1.0000
  O   O10       1.0  0.81600  0.21200  0.39500  1.0000
  O   O11       1.0  0.40500  0.40200  0.41500  1.0000
  O   O12       1.0  0.07210  0.39800  0.46200  1.0000
  O   O13       1.0  0.92800  0.60200  0.53800  1.0000
  O   O14       1.0  0.59500  0.59800  0.58500  1.0000
  O   O15       1.0  0.18400  0.78800  0.60500  1.0000
  O   O16       1.0  0.52800  0.90700  0.67300  1.0000
  O   O17       1.0  0.18600  0.02860  0.69600  1.0000
  O   O18       1.0  0.64000  0.26000  0.70000  1.0000
  O   O19       1.0  0.86000  0.76000  0.80000  1.0000
  O   O20       1.0  0.31400  0.52900  0.80400  1.0000
  O   O21       1.0  0.97200  0.40700  0.82700  1.0000
  O   O22       1.0  0.31600  0.28800  0.89500  1.0000
  O   O23       1.0  0.90500  0.09850  0.91500  1.0000
  O   O24       1.0  0.57200  0.10200  0.96200  1.0000
  Pu  Pu1       1.0  0.25500  0.09650  0.00725  1.0000
  Pu  Pu2       1.0  0.24500  0.59600  0.49300  1.0000
  Pu  Pu3       1.0  0.75500  0.40400  0.50700  1.0000
  Pu  Pu4       1.0  0.74500  0.90400  0.99300  1.0000
  Se  Se1       1.0  0.77700  0.57100  0.04850  1.0000
  Se  Se2       1.0  0.26100  0.78100  0.06030  1.0000
  Se  Se3       1.0  0.23900  0.28100  0.44000  1.0000
  Se  Se4       1.0  0.72300  0.07050  0.45100  1.0000
  Se  Se5       1.0  0.27700  0.92900  0.54900  1.0000
  Se  Se6       1.0  0.76100  0.71900  0.56000  1.0000
  Se  Se7       1.0  0.73900  0.21900  0.94000  1.0000
  Se  Se8       1.0  0.22300  0.42900  0.95100  1.0000
