data_image0
_chemical_formula_structural       I8Mg4O24
_chemical_formula_sum              "I8 Mg4 O24"
_cell_length_a       10.8178
_cell_length_b       4.99028
_cell_length_c       10.8613
_cell_angle_alpha    90
_cell_angle_beta     119.717
_cell_angle_gamma    90

_space_group_name_H-M_alt    "P 1"
_space_group_IT_number       1

loop_
  _space_group_symop_operation_xyz
  'x, y, z'

loop_
  _atom_site_type_symbol
  _atom_site_label
  _atom_site_symmetry_multiplicity
  _atom_site_fract_x
  _atom_site_fract_y
  _atom_site_fract_z
  _atom_site_occupancy
  I   I1        1.0  0.66600  0.50500  0.06740  1.0000
  I   I2        1.0  0.16500  0.49300  0.09610  1.0000
  I   I3        1.0  0.33500  0.99100  0.40200  1.0000
  I   I4        1.0  0.83300  0.00376  0.43300  1.0000
  I   I5        1.0  0.16700  0.50400  0.56700  1.0000
  I   I6        1.0  0.66500  0.49100  0.59800  1.0000
  I   I7        1.0  0.83500  0.99300  0.90400  1.0000
  I   I8        1.0  0.33400  0.00507  0.93300  1.0000
  Mg  Mg1       1.0  0.99000  0.92900  0.24500  1.0000
  Mg  Mg2       1.0  0.51000  0.42600  0.25600  1.0000
  Mg  Mg3       1.0  0.49000  0.92600  0.74400  1.0000
  Mg  Mg4       1.0  0.01010  0.42900  0.75500  1.0000
  O   O1        1.0  0.95000  0.17000  0.07180  1.0000
  O   O2        1.0  0.47700  0.19700  0.07860  1.0000
  O   O3        1.0  0.81800  0.71100  0.09130  1.0000
  O   O4        1.0  0.33200  0.65700  0.13200  1.0000
  O   O5        1.0  0.64400  0.64500  0.21200  1.0000
  O   O6        1.0  0.13200  0.71100  0.21400  1.0000
  O   O7        1.0  0.36500  0.20800  0.28400  1.0000
  O   O8        1.0  0.85500  0.14700  0.28900  1.0000
  O   O9        1.0  0.16900  0.15700  0.36900  1.0000
  O   O10       1.0  0.68000  0.20600  0.40900  1.0000
  O   O11       1.0  0.02400  0.69600  0.42100  1.0000
  O   O12       1.0  0.54800  0.66500  0.43000  1.0000
  O   O13       1.0  0.45200  0.16500  0.57000  1.0000
  O   O14       1.0  0.97600  0.19600  0.57900  1.0000
  O   O15       1.0  0.32000  0.70600  0.59100  1.0000
  O   O16       1.0  0.83100  0.65700  0.63100  1.0000
  O   O17       1.0  0.14500  0.64700  0.71100  1.0000
  O   O18       1.0  0.63500  0.70800  0.71600  1.0000
  O   O19       1.0  0.86800  0.21100  0.78600  1.0000
  O   O20       1.0  0.35600  0.14500  0.78800  1.0000
  O   O21       1.0  0.66800  0.15700  0.86800  1.0000
  O   O22       1.0  0.18200  0.21100  0.90900  1.0000
  O   O23       1.0  0.52300  0.69700  0.92100  1.0000
  O   O24       1.0  0.05040  0.67000  0.92800  1.0000
