data_image0
_chemical_formula_structural       Cs8Se20Si8
_chemical_formula_sum              "Cs8 Se20 Si8"
_cell_length_a       9.87772
_cell_length_b       11.8302
_cell_length_c       11.8302
_cell_angle_alpha    90.2566
_cell_angle_beta     99.382
_cell_angle_gamma    99.382

_space_group_name_H-M_alt    "P 1"
_space_group_IT_number       1

loop_
  _space_group_symop_operation_xyz
  'x, y, z'

loop_
  _atom_site_type_symbol
  _atom_site_label
  _atom_site_symmetry_multiplicity
  _atom_site_fract_x
  _atom_site_fract_y
  _atom_site_fract_z
  _atom_site_occupancy
  Cs  Cs1       1.0  0.87100  0.28900  0.02170  1.0000
  Cs  Cs2       1.0  0.37100  0.02170  0.28900  1.0000
  Cs  Cs3       1.0  0.37500  0.44900  0.29100  1.0000
  Cs  Cs4       1.0  0.87500  0.29100  0.44900  1.0000
  Cs  Cs5       1.0  0.12500  0.70900  0.55100  1.0000
  Cs  Cs6       1.0  0.62500  0.55100  0.70900  1.0000
  Cs  Cs7       1.0  0.62900  0.97800  0.71100  1.0000
  Cs  Cs8       1.0  0.12900  0.71100  0.97800  1.0000
  Se  Se1       1.0  0.74300  0.61800  0.05340  1.0000
  Se  Se2       1.0  0.75000  0.94500  0.05470  1.0000
  Se  Se3       1.0  0.52900  0.25500  0.12800  1.0000
  Se  Se4       1.0  0.47300  0.74600  0.18200  1.0000
  Se  Se5       1.0  0.02020  0.51000  0.25300  1.0000
  Se  Se6       1.0  0.02700  0.81800  0.25400  1.0000
  Se  Se7       1.0  0.02890  0.12800  0.25500  1.0000
  Se  Se8       1.0  0.75000  0.62100  0.37900  1.0000
  Se  Se9       1.0  0.75700  0.94700  0.38200  1.0000
  Se  Se10      1.0  0.48000  0.74700  0.49000  1.0000
  Se  Se11      1.0  0.52000  0.25300  0.51000  1.0000
  Se  Se12      1.0  0.24300  0.05340  0.61800  1.0000
  Se  Se13      1.0  0.25000  0.37900  0.62100  1.0000
  Se  Se14      1.0  0.97100  0.87200  0.74500  1.0000
  Se  Se15      1.0  0.97300  0.18200  0.74600  1.0000
  Se  Se16      1.0  0.98000  0.49000  0.74700  1.0000
  Se  Se17      1.0  0.52700  0.25400  0.81800  1.0000
  Se  Se18      1.0  0.47100  0.74500  0.87200  1.0000
  Se  Se19      1.0  0.25000  0.05470  0.94500  1.0000
  Se  Se20      1.0  0.25700  0.38200  0.94700  1.0000
  Si  Si1       1.0  0.61100  0.76600  0.03760  1.0000
  Si  Si2       1.0  0.88300  0.64100  0.23200  1.0000
  Si  Si3       1.0  0.88900  0.96200  0.23400  1.0000
  Si  Si4       1.0  0.61700  0.76800  0.35900  1.0000
  Si  Si5       1.0  0.38300  0.23200  0.64100  1.0000
  Si  Si6       1.0  0.11100  0.03760  0.76600  1.0000
  Si  Si7       1.0  0.11700  0.35900  0.76800  1.0000
  Si  Si8       1.0  0.38900  0.23400  0.96200  1.0000
