data_image0
_chemical_formula_structural       B24Er8Ru4
_chemical_formula_sum              "B24 Er8 Ru4"
_cell_length_a       9.08051
_cell_length_b       11.4448
_cell_length_c       3.63131
_cell_angle_alpha    90
_cell_angle_beta     90
_cell_angle_gamma    90

_space_group_name_H-M_alt    "P 1"
_space_group_IT_number       1

loop_
  _space_group_symop_operation_xyz
  'x, y, z'

loop_
  _atom_site_type_symbol
  _atom_site_label
  _atom_site_symmetry_multiplicity
  _atom_site_fract_x
  _atom_site_fract_y
  _atom_site_fract_z
  _atom_site_occupancy
  B   B1        1.0  0.60800  0.02970  0.50000  1.0000
  B   B2        1.0  0.05390  0.06680  0.50000  1.0000
  B   B3        1.0  0.24900  0.08000  0.50000  1.0000
  B   B4        1.0  0.63200  0.18500  0.50000  1.0000
  B   B5        1.0  0.98300  0.21300  0.50000  1.0000
  B   B6        1.0  0.29200  0.23400  0.50000  1.0000
  B   B7        1.0  0.79200  0.26600  0.50000  1.0000
  B   B8        1.0  0.48300  0.28700  0.50000  1.0000
  B   B9        1.0  0.13200  0.31500  0.50000  1.0000
  B   B10       1.0  0.74900  0.42000  0.50000  1.0000
  B   B11       1.0  0.55400  0.43300  0.50000  1.0000
  B   B12       1.0  0.10800  0.47000  0.50000  1.0000
  B   B13       1.0  0.89200  0.53000  0.50000  1.0000
  B   B14       1.0  0.44600  0.56700  0.50000  1.0000
  B   B15       1.0  0.25100  0.58000  0.50000  1.0000
  B   B16       1.0  0.86800  0.68500  0.50000  1.0000
  B   B17       1.0  0.51700  0.71300  0.50000  1.0000
  B   B18       1.0  0.20800  0.73400  0.50000  1.0000
  B   B19       1.0  0.70800  0.76600  0.50000  1.0000
  B   B20       1.0  0.01680  0.78700  0.50000  1.0000
  B   B21       1.0  0.36800  0.81500  0.50000  1.0000
  B   B22       1.0  0.75100  0.92000  0.50000  1.0000
  B   B23       1.0  0.94600  0.93300  0.50000  1.0000
  B   B24       1.0  0.39200  0.97000  0.50000  1.0000
  Er  Er1       1.0  0.82200  0.08580  0.00000  1.0000
  Er  Er2       1.0  0.44400  0.12700  0.00000  1.0000
  Er  Er3       1.0  0.94400  0.37300  0.00000  1.0000
  Er  Er4       1.0  0.32200  0.41400  0.00000  1.0000
  Er  Er5       1.0  0.67800  0.58600  0.00000  1.0000
  Er  Er6       1.0  0.05580  0.62700  0.00000  1.0000
  Er  Er7       1.0  0.55600  0.87300  0.00000  1.0000
  Er  Er8       1.0  0.17800  0.91400  0.00000  1.0000
  Ru  Ru1       1.0  0.13800  0.17900  0.00000  1.0000
  Ru  Ru2       1.0  0.63800  0.32100  0.00000  1.0000
  Ru  Ru3       1.0  0.36200  0.67900  0.00000  1.0000
  Ru  Ru4       1.0  0.86200  0.82100  0.00000  1.0000
