data_image0
_chemical_formula_structural       Gd8O24Te4
_chemical_formula_sum              "Gd8 O24 Te4"
_cell_length_a       5.30853
_cell_length_b       9.13006
_cell_length_c       9.99066
_cell_angle_alpha    90
_cell_angle_beta     90
_cell_angle_gamma    90

_space_group_name_H-M_alt    "P 1"
_space_group_IT_number       1

loop_
  _space_group_symop_operation_xyz
  'x, y, z'

loop_
  _atom_site_type_symbol
  _atom_site_label
  _atom_site_symmetry_multiplicity
  _atom_site_fract_x
  _atom_site_fract_y
  _atom_site_fract_z
  _atom_site_occupancy
  Gd  Gd1       1.0  0.47600  0.89600  0.03810  1.0000
  Gd  Gd2       1.0  0.03690  0.21800  0.13500  1.0000
  Gd  Gd3       1.0  0.96300  0.71800  0.36500  1.0000
  Gd  Gd4       1.0  0.52400  0.39600  0.46200  1.0000
  Gd  Gd5       1.0  0.02360  0.10400  0.53800  1.0000
  Gd  Gd6       1.0  0.46300  0.78200  0.63500  1.0000
  Gd  Gd7       1.0  0.53700  0.28200  0.86500  1.0000
  Gd  Gd8       1.0  0.97600  0.60400  0.96200  1.0000
  O   O1        1.0  0.25100  0.41300  0.00631  1.0000
  O   O2        1.0  0.57700  0.65300  0.02400  1.0000
  O   O3        1.0  0.73000  0.38700  0.06740  1.0000
  O   O4        1.0  0.18300  0.64200  0.17900  1.0000
  O   O5        1.0  0.33000  0.05210  0.20400  1.0000
  O   O6        1.0  0.68800  0.86000  0.23700  1.0000
  O   O7        1.0  0.31200  0.36000  0.26300  1.0000
  O   O8        1.0  0.67000  0.55200  0.29600  1.0000
  O   O9        1.0  0.81700  0.14200  0.32100  1.0000
  O   O10       1.0  0.27000  0.88700  0.43300  1.0000
  O   O11       1.0  0.42300  0.15300  0.47600  1.0000
  O   O12       1.0  0.74900  0.91300  0.49400  1.0000
  O   O13       1.0  0.24900  0.58700  0.50600  1.0000
  O   O14       1.0  0.92300  0.34700  0.52400  1.0000
  O   O15       1.0  0.77000  0.61300  0.56700  1.0000
  O   O16       1.0  0.31700  0.35800  0.67900  1.0000
  O   O17       1.0  0.17000  0.94800  0.70400  1.0000
  O   O18       1.0  0.81200  0.14000  0.73700  1.0000
  O   O19       1.0  0.18800  0.64000  0.76300  1.0000
  O   O20       1.0  0.83000  0.44800  0.79600  1.0000
  O   O21       1.0  0.68300  0.85800  0.82100  1.0000
  O   O22       1.0  0.23000  0.11300  0.93300  1.0000
  O   O23       1.0  0.07670  0.84700  0.97600  1.0000
  O   O24       1.0  0.75100  0.08720  0.99400  1.0000
  Te  Te1       1.0  0.45900  0.50500  0.14700  1.0000
  Te  Te2       1.0  0.54100  0.00496  0.35300  1.0000
  Te  Te3       1.0  0.04120  0.49500  0.64700  1.0000
  Te  Te4       1.0  0.95900  0.99500  0.85300  1.0000
