data_image0
_chemical_formula_structural       Ir19La5P12
_chemical_formula_sum              "Ir19 La5 P12"
_cell_length_a       12.8428
_cell_length_b       12.8428
_cell_length_c       4.04253
_cell_angle_alpha    90
_cell_angle_beta     90
_cell_angle_gamma    120

_space_group_name_H-M_alt    "P 1"
_space_group_IT_number       1

loop_
  _space_group_symop_operation_xyz
  'x, y, z'

loop_
  _atom_site_type_symbol
  _atom_site_label
  _atom_site_symmetry_multiplicity
  _atom_site_fract_x
  _atom_site_fract_y
  _atom_site_fract_z
  _atom_site_occupancy
  Ir  Ir1       1.0  0.00000  0.00000  0.00000  1.0000
  Ir  Ir2       1.0  0.54000  0.00000  0.00000  1.0000
  Ir  Ir3       1.0  0.80100  0.18100  0.00000  1.0000
  Ir  Ir4       1.0  0.37900  0.19900  0.00000  1.0000
  Ir  Ir5       1.0  0.19900  0.37900  0.00000  1.0000
  Ir  Ir6       1.0  0.46000  0.46000  0.00000  1.0000
  Ir  Ir7       1.0  0.00000  0.54000  0.00000  1.0000
  Ir  Ir8       1.0  0.81900  0.62100  0.00000  1.0000
  Ir  Ir9       1.0  0.18100  0.80100  0.00000  1.0000
  Ir  Ir10      1.0  0.62100  0.81900  0.00000  1.0000
  Ir  Ir11      1.0  0.71300  0.00000  0.50000  1.0000
  Ir  Ir12      1.0  0.49200  0.12900  0.50000  1.0000
  Ir  Ir13      1.0  0.28700  0.28700  0.50000  1.0000
  Ir  Ir14      1.0  0.87100  0.36300  0.50000  1.0000
  Ir  Ir15      1.0  0.12900  0.49200  0.50000  1.0000
  Ir  Ir16      1.0  0.63700  0.50800  0.50000  1.0000
  Ir  Ir17      1.0  0.50800  0.63700  0.50000  1.0000
  Ir  Ir18      1.0  0.00000  0.71300  0.50000  1.0000
  Ir  Ir19      1.0  0.36300  0.87100  0.50000  1.0000
  La  La1       1.0  0.66700  0.33300  0.00000  1.0000
  La  La2       1.0  0.33300  0.66700  0.00000  1.0000
  La  La3       1.0  0.18600  0.00000  0.50000  1.0000
  La  La4       1.0  0.00000  0.18600  0.50000  1.0000
  La  La5       1.0  0.81400  0.81400  0.50000  1.0000
  P   P1        1.0  0.36200  0.00000  0.00000  1.0000
  P   P2        1.0  0.81800  0.00000  0.00000  1.0000
  P   P3        1.0  0.18200  0.18200  0.00000  1.0000
  P   P4        1.0  0.00000  0.36200  0.00000  1.0000
  P   P5        1.0  0.63800  0.63800  0.00000  1.0000
  P   P6        1.0  0.00000  0.81800  0.00000  1.0000
  P   P7        1.0  0.69000  0.17100  0.50000  1.0000
  P   P8        1.0  0.48100  0.31000  0.50000  1.0000
  P   P9        1.0  0.31000  0.48100  0.50000  1.0000
  P   P10       1.0  0.82900  0.51900  0.50000  1.0000
  P   P11       1.0  0.17100  0.69000  0.50000  1.0000
  P   P12       1.0  0.51900  0.82900  0.50000  1.0000
