data_image0
_chemical_formula_structural       F4Na12O16W4
_chemical_formula_sum              "F4 Na12 O16 W4"
_cell_length_a       5.47879
_cell_length_b       7.44121
_cell_length_c       12.756
_cell_angle_alpha    90
_cell_angle_beta     90
_cell_angle_gamma    90

_space_group_name_H-M_alt    "P 1"
_space_group_IT_number       1

loop_
  _space_group_symop_operation_xyz
  'x, y, z'

loop_
  _atom_site_type_symbol
  _atom_site_label
  _atom_site_symmetry_multiplicity
  _atom_site_fract_x
  _atom_site_fract_y
  _atom_site_fract_z
  _atom_site_occupancy
  F   F1        1.0  0.49700  0.75000  0.23100  1.0000
  F   F2        1.0  0.99700  0.75000  0.26900  1.0000
  F   F3        1.0  0.00306  0.25000  0.73100  1.0000
  F   F4        1.0  0.50300  0.25000  0.76900  1.0000
  Na  Na1       1.0  0.77400  0.75000  0.10400  1.0000
  Na  Na2       1.0  0.22800  0.53400  0.17700  1.0000
  Na  Na3       1.0  0.22800  0.96600  0.17700  1.0000
  Na  Na4       1.0  0.72800  0.53400  0.32300  1.0000
  Na  Na5       1.0  0.72800  0.96600  0.32300  1.0000
  Na  Na6       1.0  0.27400  0.75000  0.39600  1.0000
  Na  Na7       1.0  0.72600  0.25000  0.60400  1.0000
  Na  Na8       1.0  0.27200  0.03400  0.67700  1.0000
  Na  Na9       1.0  0.27200  0.46600  0.67700  1.0000
  Na  Na10      1.0  0.77200  0.03400  0.82300  1.0000
  Na  Na11      1.0  0.77200  0.46600  0.82300  1.0000
  Na  Na12      1.0  0.22600  0.25000  0.89600  1.0000
  O   O1        1.0  0.17800  0.75000  0.04660  1.0000
  O   O2        1.0  0.37600  0.25000  0.08100  1.0000
  O   O3        1.0  0.81300  0.05370  0.15200  1.0000
  O   O4        1.0  0.81300  0.44600  0.15200  1.0000
  O   O5        1.0  0.31300  0.05370  0.34800  1.0000
  O   O6        1.0  0.31300  0.44600  0.34800  1.0000
  O   O7        1.0  0.87600  0.25000  0.41900  1.0000
  O   O8        1.0  0.67800  0.75000  0.45300  1.0000
  O   O9        1.0  0.32200  0.25000  0.54700  1.0000
  O   O10       1.0  0.12400  0.75000  0.58100  1.0000
  O   O11       1.0  0.68700  0.55400  0.65200  1.0000
  O   O12       1.0  0.68700  0.94600  0.65200  1.0000
  O   O13       1.0  0.18700  0.55400  0.84800  1.0000
  O   O14       1.0  0.18700  0.94600  0.84800  1.0000
  O   O15       1.0  0.62400  0.75000  0.91900  1.0000
  O   O16       1.0  0.82200  0.25000  0.95300  1.0000
  W   W1        1.0  0.70600  0.25000  0.08480  1.0000
  W   W2        1.0  0.20600  0.25000  0.41500  1.0000
  W   W3        1.0  0.79400  0.75000  0.58500  1.0000
  W   W4        1.0  0.29400  0.75000  0.91500  1.0000
