data_image0
_chemical_formula_structural       Cs4Ga12S20
_chemical_formula_sum              "Cs4 Ga12 S20"
_cell_length_a       10.8146
_cell_length_b       12.8657
_cell_length_c       7.00599
_cell_angle_alpha    90
_cell_angle_beta     91.1362
_cell_angle_gamma    90

_space_group_name_H-M_alt    "P 1"
_space_group_IT_number       1

loop_
  _space_group_symop_operation_xyz
  'x, y, z'

loop_
  _atom_site_type_symbol
  _atom_site_label
  _atom_site_symmetry_multiplicity
  _atom_site_fract_x
  _atom_site_fract_y
  _atom_site_fract_z
  _atom_site_occupancy
  Cs  Cs1       1.0  0.36100  0.58300  0.13600  1.0000
  Cs  Cs2       1.0  0.63900  0.08250  0.36400  1.0000
  Cs  Cs3       1.0  0.36100  0.91700  0.63600  1.0000
  Cs  Cs4       1.0  0.63900  0.41700  0.86400  1.0000
  Ga  Ga1       1.0  0.33200  0.20000  0.01610  1.0000
  Ga  Ga2       1.0  0.13000  0.96300  0.10400  1.0000
  Ga  Ga3       1.0  0.01540  0.22500  0.23600  1.0000
  Ga  Ga4       1.0  0.98500  0.72500  0.26400  1.0000
  Ga  Ga5       1.0  0.87000  0.46300  0.39600  1.0000
  Ga  Ga6       1.0  0.66800  0.70000  0.48400  1.0000
  Ga  Ga7       1.0  0.33200  0.30000  0.51600  1.0000
  Ga  Ga8       1.0  0.13000  0.53700  0.60400  1.0000
  Ga  Ga9       1.0  0.01540  0.27500  0.73600  1.0000
  Ga  Ga10      1.0  0.98500  0.77500  0.76400  1.0000
  Ga  Ga11      1.0  0.87000  0.03730  0.89600  1.0000
  Ga  Ga12      1.0  0.66800  0.80000  0.98400  1.0000
  S   S1        1.0  0.14100  0.29200  0.00479  1.0000
  S   S2        1.0  0.31900  0.03390  0.12800  1.0000
  S   S3        1.0  0.95400  0.05160  0.21000  1.0000
  S   S4        1.0  0.43600  0.30000  0.23600  1.0000
  S   S5        1.0  0.83500  0.31000  0.24800  1.0000
  S   S6        1.0  0.16500  0.81000  0.25200  1.0000
  S   S7        1.0  0.56400  0.80000  0.26400  1.0000
  S   S8        1.0  0.04580  0.55200  0.29000  1.0000
  S   S9        1.0  0.68100  0.53400  0.37200  1.0000
  S   S10       1.0  0.85900  0.79200  0.49500  1.0000
  S   S11       1.0  0.14100  0.20800  0.50500  1.0000
  S   S12       1.0  0.31900  0.46600  0.62800  1.0000
  S   S13       1.0  0.95400  0.44800  0.71000  1.0000
  S   S14       1.0  0.43600  0.20000  0.73600  1.0000
  S   S15       1.0  0.83500  0.19000  0.74800  1.0000
  S   S16       1.0  0.16500  0.69000  0.75200  1.0000
  S   S17       1.0  0.56400  0.70000  0.76400  1.0000
  S   S18       1.0  0.04580  0.94800  0.79000  1.0000
  S   S19       1.0  0.68100  0.96600  0.87200  1.0000
  S   S20       1.0  0.85900  0.70800  0.99500  1.0000
