data_image0
_chemical_formula_structural       Mo4O24P4Tl4
_chemical_formula_sum              "Mo4 O24 P4 Tl4"
_cell_length_a       8.18357
_cell_length_b       8.18357
_cell_length_c       9.56014
_cell_angle_alpha    111.693
_cell_angle_beta     111.693
_cell_angle_gamma    97.8383

_space_group_name_H-M_alt    "P 1"
_space_group_IT_number       1

loop_
  _space_group_symop_operation_xyz
  'x, y, z'

loop_
  _atom_site_type_symbol
  _atom_site_label
  _atom_site_symmetry_multiplicity
  _atom_site_fract_x
  _atom_site_fract_y
  _atom_site_fract_z
  _atom_site_occupancy
  Mo  Mo1       1.0  0.09490  0.40500  0.25000  1.0000
  Mo  Mo2       1.0  0.65500  0.84500  0.25000  1.0000
  Mo  Mo3       1.0  0.34500  0.15500  0.75000  1.0000
  Mo  Mo4       1.0  0.90500  0.59500  0.75000  1.0000
  O   O1        1.0  0.80900  0.39200  0.09290  1.0000
  O   O2        1.0  0.78400  0.70100  0.09290  1.0000
  O   O3        1.0  0.05550  0.18600  0.09930  1.0000
  O   O4        1.0  0.54400  0.91300  0.09930  1.0000
  O   O5        1.0  0.16600  0.53900  0.13400  1.0000
  O   O6        1.0  0.46900  0.59500  0.13400  1.0000
  O   O7        1.0  0.90500  0.03120  0.36600  1.0000
  O   O8        1.0  0.96100  0.33400  0.36600  1.0000
  O   O9        1.0  0.31400  0.44500  0.40100  1.0000
  O   O10       1.0  0.58700  0.95600  0.40100  1.0000
  O   O11       1.0  0.10800  0.69100  0.40700  1.0000
  O   O12       1.0  0.79900  0.71600  0.40700  1.0000
  O   O13       1.0  0.20100  0.28400  0.59300  1.0000
  O   O14       1.0  0.89200  0.30900  0.59300  1.0000
  O   O15       1.0  0.41300  0.04380  0.59900  1.0000
  O   O16       1.0  0.68600  0.55500  0.59900  1.0000
  O   O17       1.0  0.03920  0.66600  0.63400  1.0000
  O   O18       1.0  0.09530  0.96900  0.63400  1.0000
  O   O19       1.0  0.53100  0.40500  0.86600  1.0000
  O   O20       1.0  0.83400  0.46100  0.86600  1.0000
  O   O21       1.0  0.45600  0.08650  0.90100  1.0000
  O   O22       1.0  0.94500  0.81400  0.90100  1.0000
  O   O23       1.0  0.21600  0.29900  0.90700  1.0000
  O   O24       1.0  0.19100  0.60800  0.90700  1.0000
  P   P1        1.0  0.25600  0.50600  0.01120  1.0000
  P   P2        1.0  0.99400  0.24400  0.48900  1.0000
  P   P3        1.0  0.00558  0.75600  0.51100  1.0000
  P   P4        1.0  0.74400  0.49400  0.98900  1.0000
  Tl  Tl1       1.0  0.56900  0.31900  0.25000  1.0000
  Tl  Tl2       1.0  0.18100  0.93100  0.25000  1.0000
  Tl  Tl3       1.0  0.81900  0.06870  0.75000  1.0000
  Tl  Tl4       1.0  0.43100  0.68100  0.75000  1.0000
