data_image0
_chemical_formula_structural       C12Cs4N18Na2
_chemical_formula_sum              "C12 Cs4 N18 Na2"
_cell_length_a       6.85296
_cell_length_b       6.85297
_cell_length_c       14.6305
_cell_angle_alpha    90
_cell_angle_beta     90
_cell_angle_gamma    119.999

_space_group_name_H-M_alt    "P 1"
_space_group_IT_number       1

loop_
  _space_group_symop_operation_xyz
  'x, y, z'

loop_
  _atom_site_type_symbol
  _atom_site_label
  _atom_site_symmetry_multiplicity
  _atom_site_fract_x
  _atom_site_fract_y
  _atom_site_fract_z
  _atom_site_occupancy
  C   C1        1.0  0.86000  0.20200  0.17200  1.0000
  C   C2        1.0  0.79800  0.65700  0.17200  1.0000
  C   C3        1.0  0.34300  0.14000  0.17200  1.0000
  C   C4        1.0  0.34300  0.14000  0.32800  1.0000
  C   C5        1.0  0.79800  0.65700  0.32800  1.0000
  C   C6        1.0  0.86000  0.20200  0.32800  1.0000
  C   C7        1.0  0.14000  0.79800  0.67200  1.0000
  C   C8        1.0  0.20200  0.34300  0.67200  1.0000
  C   C9        1.0  0.65700  0.86000  0.67200  1.0000
  C   C10       1.0  0.65700  0.86000  0.82800  1.0000
  C   C11       1.0  0.20200  0.34300  0.82800  1.0000
  C   C12       1.0  0.14000  0.79800  0.82800  1.0000
  Cs  Cs1       1.0  0.33300  0.66700  0.07530  1.0000
  Cs  Cs2       1.0  0.33300  0.66700  0.42500  1.0000
  Cs  Cs3       1.0  0.66700  0.33300  0.57500  1.0000
  Cs  Cs4       1.0  0.66700  0.33300  0.92500  1.0000
  N   N1        1.0  0.33300  0.19900  0.09670  1.0000
  N   N2        1.0  0.86600  0.66700  0.09670  1.0000
  N   N3        1.0  0.80100  0.13400  0.09670  1.0000
  N   N4        1.0  0.35600  0.05840  0.25000  1.0000
  N   N5        1.0  0.94200  0.29700  0.25000  1.0000
  N   N6        1.0  0.70300  0.64400  0.25000  1.0000
  N   N7        1.0  0.80100  0.13400  0.40300  1.0000
  N   N8        1.0  0.86600  0.66700  0.40300  1.0000
  N   N9        1.0  0.33300  0.19900  0.40300  1.0000
  N   N10       1.0  0.66700  0.80100  0.59700  1.0000
  N   N11       1.0  0.13400  0.33300  0.59700  1.0000
  N   N12       1.0  0.19900  0.86600  0.59700  1.0000
  N   N13       1.0  0.29700  0.35600  0.75000  1.0000
  N   N14       1.0  0.05830  0.70300  0.75000  1.0000
  N   N15       1.0  0.64400  0.94200  0.75000  1.0000
  N   N16       1.0  0.19900  0.86600  0.90300  1.0000
  N   N17       1.0  0.13400  0.33300  0.90300  1.0000
  N   N18       1.0  0.66700  0.80100  0.90300  1.0000
  Na  Na1       1.0  0.00000  0.00000  0.00000  1.0000
  Na  Na2       1.0  0.00000  0.00000  0.50000  1.0000
