data_image0
_chemical_formula_structural       Ge16Nb12Sc8
_chemical_formula_sum              "Ge16 Nb12 Sc8"
_cell_length_a       6.86242
_cell_length_b       13.3241
_cell_length_c       7.03285
_cell_angle_alpha    90
_cell_angle_beta     90
_cell_angle_gamma    90

_space_group_name_H-M_alt    "P 1"
_space_group_IT_number       1

loop_
  _space_group_symop_operation_xyz
  'x, y, z'

loop_
  _atom_site_type_symbol
  _atom_site_label
  _atom_site_symmetry_multiplicity
  _atom_site_fract_x
  _atom_site_fract_y
  _atom_site_fract_z
  _atom_site_occupancy
  Ge  Ge1       1.0  0.31700  0.03990  0.03410  1.0000
  Ge  Ge2       1.0  0.31700  0.46000  0.03410  1.0000
  Ge  Ge3       1.0  0.95500  0.25000  0.11200  1.0000
  Ge  Ge4       1.0  0.31100  0.75000  0.14800  1.0000
  Ge  Ge5       1.0  0.81100  0.75000  0.35200  1.0000
  Ge  Ge6       1.0  0.45500  0.25000  0.38800  1.0000
  Ge  Ge7       1.0  0.81700  0.03990  0.46600  1.0000
  Ge  Ge8       1.0  0.81700  0.46000  0.46600  1.0000
  Ge  Ge9       1.0  0.18300  0.54000  0.53400  1.0000
  Ge  Ge10      1.0  0.18300  0.96000  0.53400  1.0000
  Ge  Ge11      1.0  0.54500  0.75000  0.61200  1.0000
  Ge  Ge12      1.0  0.18900  0.25000  0.64800  1.0000
  Ge  Ge13      1.0  0.68900  0.25000  0.85200  1.0000
  Ge  Ge14      1.0  0.04500  0.75000  0.88800  1.0000
  Ge  Ge15      1.0  0.68300  0.54000  0.96600  1.0000
  Ge  Ge16      1.0  0.68300  0.96000  0.96600  1.0000
  Nb  Nb1       1.0  0.33100  0.25000  0.01000  1.0000
  Nb  Nb2       1.0  0.65500  0.12600  0.17100  1.0000
  Nb  Nb3       1.0  0.65500  0.37400  0.17100  1.0000
  Nb  Nb4       1.0  0.15500  0.12600  0.32900  1.0000
  Nb  Nb5       1.0  0.15500  0.37400  0.32900  1.0000
  Nb  Nb6       1.0  0.83100  0.25000  0.49000  1.0000
  Nb  Nb7       1.0  0.16900  0.75000  0.51000  1.0000
  Nb  Nb8       1.0  0.84500  0.62600  0.67100  1.0000
  Nb  Nb9       1.0  0.84500  0.87400  0.67100  1.0000
  Nb  Nb10      1.0  0.34500  0.62600  0.82900  1.0000
  Nb  Nb11      1.0  0.34500  0.87400  0.82900  1.0000
  Nb  Nb12      1.0  0.66900  0.75000  0.99000  1.0000
  Sc  Sc1       1.0  0.00859  0.59400  0.17600  1.0000
  Sc  Sc2       1.0  0.00859  0.90600  0.17600  1.0000
  Sc  Sc3       1.0  0.50900  0.59400  0.32400  1.0000
  Sc  Sc4       1.0  0.50900  0.90600  0.32400  1.0000
  Sc  Sc5       1.0  0.49100  0.09410  0.67600  1.0000
  Sc  Sc6       1.0  0.49100  0.40600  0.67600  1.0000
  Sc  Sc7       1.0  0.99100  0.09410  0.82400  1.0000
  Sc  Sc8       1.0  0.99100  0.40600  0.82400  1.0000
