data_image0
_chemical_formula_structural       As12Ta24
_chemical_formula_sum              "As12 Ta24"
_cell_length_a       14.9197
_cell_length_b       11.9341
_cell_length_c       3.48188
_cell_angle_alpha    90
_cell_angle_beta     90
_cell_angle_gamma    90

_space_group_name_H-M_alt    "P 1"
_space_group_IT_number       1

loop_
  _space_group_symop_operation_xyz
  'x, y, z'

loop_
  _atom_site_type_symbol
  _atom_site_label
  _atom_site_symmetry_multiplicity
  _atom_site_fract_x
  _atom_site_fract_y
  _atom_site_fract_z
  _atom_site_occupancy
  As  As1       1.0  0.91900  0.24700  0.00000  1.0000
  As  As2       1.0  0.15100  0.31200  0.00000  1.0000
  As  As3       1.0  0.70400  0.42000  0.00000  1.0000
  As  As4       1.0  0.29600  0.58000  0.00000  1.0000
  As  As5       1.0  0.84900  0.68800  0.00000  1.0000
  As  As6       1.0  0.08060  0.75300  0.00000  1.0000
  As  As7       1.0  0.20400  0.08000  0.50000  1.0000
  As  As8       1.0  0.65100  0.18800  0.50000  1.0000
  As  As9       1.0  0.41900  0.25300  0.50000  1.0000
  As  As10      1.0  0.58100  0.74700  0.50000  1.0000
  As  As11      1.0  0.34900  0.81200  0.50000  1.0000
  As  As12      1.0  0.79600  0.92000  0.50000  1.0000
  Ta  Ta1       1.0  0.75600  0.07980  0.00000  1.0000
  Ta  Ta2       1.0  0.07180  0.11500  0.00000  1.0000
  Ta  Ta3       1.0  0.52300  0.14100  0.00000  1.0000
  Ta  Ta4       1.0  0.29800  0.19600  0.00000  1.0000
  Ta  Ta5       1.0  0.42000  0.41400  0.00000  1.0000
  Ta  Ta6       1.0  0.89000  0.47200  0.00000  1.0000
  Ta  Ta7       1.0  0.11000  0.52800  0.00000  1.0000
  Ta  Ta8       1.0  0.58000  0.58600  0.00000  1.0000
  Ta  Ta9       1.0  0.70200  0.80400  0.00000  1.0000
  Ta  Ta10      1.0  0.47700  0.85900  0.00000  1.0000
  Ta  Ta11      1.0  0.92800  0.88500  0.00000  1.0000
  Ta  Ta12      1.0  0.24400  0.92000  0.00000  1.0000
  Ta  Ta13      1.0  0.39000  0.02810  0.50000  1.0000
  Ta  Ta14      1.0  0.92000  0.08560  0.50000  1.0000
  Ta  Ta15      1.0  0.79800  0.30400  0.50000  1.0000
  Ta  Ta16      1.0  0.02290  0.35900  0.50000  1.0000
  Ta  Ta17      1.0  0.57200  0.38500  0.50000  1.0000
  Ta  Ta18      1.0  0.25600  0.42000  0.50000  1.0000
  Ta  Ta19      1.0  0.74400  0.58000  0.50000  1.0000
  Ta  Ta20      1.0  0.42800  0.61500  0.50000  1.0000
  Ta  Ta21      1.0  0.97700  0.64100  0.50000  1.0000
  Ta  Ta22      1.0  0.20200  0.69600  0.50000  1.0000
  Ta  Ta23      1.0  0.07950  0.91400  0.50000  1.0000
  Ta  Ta24      1.0  0.61000  0.97200  0.50000  1.0000
