data_image0
_chemical_formula_structural       Ga12Rb4S20
_chemical_formula_sum              "Ga12 Rb4 S20"
_cell_length_a       7.19439
_cell_length_b       12.8283
_cell_length_c       10.2676
_cell_angle_alpha    90
_cell_angle_beta     102.685
_cell_angle_gamma    90

_space_group_name_H-M_alt    "P 1"
_space_group_IT_number       1

loop_
  _space_group_symop_operation_xyz
  'x, y, z'

loop_
  _atom_site_type_symbol
  _atom_site_label
  _atom_site_symmetry_multiplicity
  _atom_site_fract_x
  _atom_site_fract_y
  _atom_site_fract_z
  _atom_site_occupancy
  Ga  Ga1       1.0  0.79800  0.41800  0.10100  1.0000
  Ga  Ga2       1.0  0.28600  0.33500  0.12500  1.0000
  Ga  Ga3       1.0  0.55900  0.60200  0.19900  1.0000
  Ga  Ga4       1.0  0.44100  0.10200  0.30100  1.0000
  Ga  Ga5       1.0  0.71400  0.83500  0.37500  1.0000
  Ga  Ga6       1.0  0.20200  0.91800  0.39900  1.0000
  Ga  Ga7       1.0  0.79800  0.08200  0.60100  1.0000
  Ga  Ga8       1.0  0.28600  0.16500  0.62500  1.0000
  Ga  Ga9       1.0  0.55900  0.89800  0.69900  1.0000
  Ga  Ga10      1.0  0.44100  0.39800  0.80100  1.0000
  Ga  Ga11      1.0  0.71400  0.66500  0.87500  1.0000
  Ga  Ga12      1.0  0.20200  0.58200  0.89900  1.0000
  Rb  Rb1       1.0  0.83600  0.11000  0.09330  1.0000
  Rb  Rb2       1.0  0.16400  0.61000  0.40700  1.0000
  Rb  Rb3       1.0  0.83600  0.39000  0.59300  1.0000
  Rb  Rb4       1.0  0.16400  0.89000  0.90700  1.0000
  S   S1        1.0  0.81300  0.60100  0.09130  1.0000
  S   S2        1.0  0.34600  0.16400  0.09170  1.0000
  S   S3        1.0  0.28000  0.66900  0.09240  1.0000
  S   S4        1.0  0.56700  0.41900  0.23500  1.0000
  S   S5        1.0  0.06150  0.36200  0.24500  1.0000
  S   S6        1.0  0.93900  0.86200  0.25500  1.0000
  S   S7        1.0  0.43300  0.91900  0.26500  1.0000
  S   S8        1.0  0.72000  0.16900  0.40800  1.0000
  S   S9        1.0  0.65400  0.66400  0.40800  1.0000
  S   S10       1.0  0.18700  0.10100  0.40900  1.0000
  S   S11       1.0  0.81300  0.89900  0.59100  1.0000
  S   S12       1.0  0.34600  0.33600  0.59200  1.0000
  S   S13       1.0  0.28000  0.83100  0.59200  1.0000
  S   S14       1.0  0.56700  0.08070  0.73500  1.0000
  S   S15       1.0  0.06150  0.13800  0.74500  1.0000
  S   S16       1.0  0.93900  0.63800  0.75500  1.0000
  S   S17       1.0  0.43300  0.58100  0.76500  1.0000
  S   S18       1.0  0.72000  0.33100  0.90800  1.0000
  S   S19       1.0  0.65400  0.83600  0.90800  1.0000
  S   S20       1.0  0.18700  0.39900  0.90900  1.0000
