data_image0
_chemical_formula_structural       F16H12N4Zr4
_chemical_formula_sum              "F16 H12 N4 Zr4"
_cell_length_a       5.78797
_cell_length_b       7.85172
_cell_length_c       8.30394
_cell_angle_alpha    106.86
_cell_angle_beta     104.848
_cell_angle_gamma    106.328

_space_group_name_H-M_alt    "P 1"
_space_group_IT_number       1

loop_
  _space_group_symop_operation_xyz
  'x, y, z'

loop_
  _atom_site_type_symbol
  _atom_site_label
  _atom_site_symmetry_multiplicity
  _atom_site_fract_x
  _atom_site_fract_y
  _atom_site_fract_z
  _atom_site_occupancy
  F   F1        1.0  0.98400  0.80500  0.02440  1.0000
  F   F2        1.0  0.38900  0.07520  0.08630  1.0000
  F   F3        1.0  0.41500  0.76700  0.11400  1.0000
  F   F4        1.0  0.46300  0.44800  0.11500  1.0000
  F   F5        1.0  0.93000  0.51000  0.16100  1.0000
  F   F6        1.0  0.86300  0.02460  0.25500  1.0000
  F   F7        1.0  0.75000  0.33800  0.37200  1.0000
  F   F8        1.0  0.70700  0.76000  0.40600  1.0000
  F   F9        1.0  0.29300  0.24000  0.59400  1.0000
  F   F10       1.0  0.25000  0.66200  0.62800  1.0000
  F   F11       1.0  0.13700  0.97500  0.74500  1.0000
  F   F12       1.0  0.07020  0.49000  0.83900  1.0000
  F   F13       1.0  0.53700  0.55200  0.88500  1.0000
  F   F14       1.0  0.58500  0.23300  0.88600  1.0000
  F   F15       1.0  0.61100  0.92500  0.91400  1.0000
  F   F16       1.0  0.01610  0.19500  0.97600  1.0000
  H   H1        1.0  0.31200  0.46600  0.29200  1.0000
  H   H2        1.0  0.30600  0.85000  0.31100  1.0000
  H   H3        1.0  0.30600  0.27400  0.33400  1.0000
  H   H4        1.0  0.23200  0.00358  0.45500  1.0000
  H   H5        1.0  0.22100  0.43500  0.45900  1.0000
  H   H6        1.0  0.21100  0.79200  0.46700  1.0000
  H   H7        1.0  0.78900  0.20800  0.53300  1.0000
  H   H8        1.0  0.77900  0.56500  0.54100  1.0000
  H   H9        1.0  0.76800  0.99600  0.54500  1.0000
  H   H10       1.0  0.69400  0.72600  0.66600  1.0000
  H   H11       1.0  0.69400  0.15000  0.68900  1.0000
  H   H12       1.0  0.68800  0.53400  0.70800  1.0000
  N   N1        1.0  0.21100  0.36500  0.33100  1.0000
  N   N2        1.0  0.18400  0.86100  0.38000  1.0000
  N   N3        1.0  0.81600  0.13900  0.62000  1.0000
  N   N4        1.0  0.78900  0.63500  0.66900  1.0000
  Zr  Zr1       1.0  0.78700  0.21500  0.13500  1.0000
  Zr  Zr2       1.0  0.76500  0.71900  0.17300  1.0000
  Zr  Zr3       1.0  0.23500  0.28100  0.82700  1.0000
  Zr  Zr4       1.0  0.21300  0.78500  0.86500  1.0000
