data_image0
_chemical_formula_structural       Dy2Li2O24P8
_chemical_formula_sum              "Dy2 Li2 O24 P8"
_cell_length_a       6.95861
_cell_length_b       8.76965
_cell_length_c       8.79483
_cell_angle_alpha    96.2115
_cell_angle_beta     113.304
_cell_angle_gamma    113.375

_space_group_name_H-M_alt    "P 1"
_space_group_IT_number       1

loop_
  _space_group_symop_operation_xyz
  'x, y, z'

loop_
  _atom_site_type_symbol
  _atom_site_label
  _atom_site_symmetry_multiplicity
  _atom_site_fract_x
  _atom_site_fract_y
  _atom_site_fract_z
  _atom_site_occupancy
  Dy  Dy1       1.0  0.95500  0.25000  0.25000  1.0000
  Dy  Dy2       1.0  0.04550  0.75000  0.75000  1.0000
  Li  Li1       1.0  0.45500  0.25000  0.25000  1.0000
  Li  Li2       1.0  0.54500  0.75000  0.75000  1.0000
  O   O1        1.0  0.15400  0.81600  0.04660  1.0000
  O   O2        1.0  0.79400  0.76000  0.07660  1.0000
  O   O3        1.0  0.57100  0.22100  0.08570  1.0000
  O   O4        1.0  0.47000  0.63900  0.15100  1.0000
  O   O5        1.0  0.13700  0.07520  0.19900  1.0000
  O   O6        1.0  0.71900  0.97200  0.23600  1.0000
  O   O7        1.0  0.00992  0.52800  0.26400  1.0000
  O   O8        1.0  0.36200  0.42500  0.30100  1.0000
  O   O9        1.0  0.17900  0.86100  0.34900  1.0000
  O   O10       1.0  0.76400  0.27900  0.41400  1.0000
  O   O11       1.0  0.45700  0.74000  0.42300  1.0000
  O   O12       1.0  0.79200  0.68400  0.45300  1.0000
  O   O13       1.0  0.20800  0.31600  0.54700  1.0000
  O   O14       1.0  0.54300  0.26000  0.57700  1.0000
  O   O15       1.0  0.23600  0.72100  0.58600  1.0000
  O   O16       1.0  0.82100  0.13900  0.65100  1.0000
  O   O17       1.0  0.63800  0.57500  0.69900  1.0000
  O   O18       1.0  0.99000  0.47200  0.73600  1.0000
  O   O19       1.0  0.28100  0.02760  0.76400  1.0000
  O   O20       1.0  0.86300  0.92500  0.80100  1.0000
  O   O21       1.0  0.53000  0.36100  0.84900  1.0000
  O   O22       1.0  0.42900  0.77900  0.91400  1.0000
  O   O23       1.0  0.20600  0.24000  0.92300  1.0000
  O   O24       1.0  0.84600  0.18400  0.95300  1.0000
  P   P1        1.0  0.59800  0.80200  0.09680  1.0000
  P   P2        1.0  0.07560  0.88500  0.16000  1.0000
  P   P3        1.0  0.53000  0.61500  0.34000  1.0000
  P   P4        1.0  0.19900  0.69800  0.40300  1.0000
  P   P5        1.0  0.80100  0.30200  0.59700  1.0000
  P   P6        1.0  0.47000  0.38500  0.66000  1.0000
  P   P7        1.0  0.92400  0.11500  0.84000  1.0000
  P   P8        1.0  0.40200  0.19800  0.90300  1.0000
