data_image0
_chemical_formula_structural       Br16Gd16Re4
_chemical_formula_sum              "Br16 Gd16 Re4"
_cell_length_a       12.8026
_cell_length_b       12.8026
_cell_length_c       6.57927
_cell_angle_alpha    90
_cell_angle_beta     90
_cell_angle_gamma    90

_space_group_name_H-M_alt    "P 1"
_space_group_IT_number       1

loop_
  _space_group_symop_operation_xyz
  'x, y, z'

loop_
  _atom_site_type_symbol
  _atom_site_label
  _atom_site_symmetry_multiplicity
  _atom_site_fract_x
  _atom_site_fract_y
  _atom_site_fract_z
  _atom_site_occupancy
  Br  Br1       1.0  0.11300  0.30200  0.08530  1.0000
  Br  Br2       1.0  0.80200  0.38700  0.08530  1.0000
  Br  Br3       1.0  0.19800  0.61300  0.08530  1.0000
  Br  Br4       1.0  0.88700  0.69800  0.08530  1.0000
  Br  Br5       1.0  0.30200  0.11300  0.41500  1.0000
  Br  Br6       1.0  0.61300  0.19800  0.41500  1.0000
  Br  Br7       1.0  0.38700  0.80200  0.41500  1.0000
  Br  Br8       1.0  0.69800  0.88700  0.41500  1.0000
  Br  Br9       1.0  0.88700  0.30200  0.58500  1.0000
  Br  Br10      1.0  0.19800  0.38700  0.58500  1.0000
  Br  Br11      1.0  0.80200  0.61300  0.58500  1.0000
  Br  Br12      1.0  0.11300  0.69800  0.58500  1.0000
  Br  Br13      1.0  0.69800  0.11300  0.91500  1.0000
  Br  Br14      1.0  0.38700  0.19800  0.91500  1.0000
  Br  Br15      1.0  0.61300  0.80200  0.91500  1.0000
  Br  Br16      1.0  0.30200  0.88700  0.91500  1.0000
  Gd  Gd1       1.0  0.17400  0.07540  0.00882  1.0000
  Gd  Gd2       1.0  0.57500  0.32600  0.00882  1.0000
  Gd  Gd3       1.0  0.42500  0.67400  0.00882  1.0000
  Gd  Gd4       1.0  0.82600  0.92500  0.00882  1.0000
  Gd  Gd5       1.0  0.07540  0.17400  0.49100  1.0000
  Gd  Gd6       1.0  0.67400  0.42500  0.49100  1.0000
  Gd  Gd7       1.0  0.32600  0.57500  0.49100  1.0000
  Gd  Gd8       1.0  0.92500  0.82600  0.49100  1.0000
  Gd  Gd9       1.0  0.82600  0.07540  0.50900  1.0000
  Gd  Gd10      1.0  0.42500  0.32600  0.50900  1.0000
  Gd  Gd11      1.0  0.57500  0.67400  0.50900  1.0000
  Gd  Gd12      1.0  0.17400  0.92500  0.50900  1.0000
  Gd  Gd13      1.0  0.92500  0.17400  0.99100  1.0000
  Gd  Gd14      1.0  0.32600  0.42500  0.99100  1.0000
  Gd  Gd15      1.0  0.67400  0.57500  0.99100  1.0000
  Gd  Gd16      1.0  0.07540  0.82600  0.99100  1.0000
  Re  Re1       1.0  0.00000  0.00000  0.25000  1.0000
  Re  Re2       1.0  0.50000  0.50000  0.25000  1.0000
  Re  Re3       1.0  0.00000  0.00000  0.75000  1.0000
  Re  Re4       1.0  0.50000  0.50000  0.75000  1.0000
