data_image0
_chemical_formula_structural       B24Lu8Os4
_chemical_formula_sum              "B24 Lu8 Os4"
_cell_length_a       9.01507
_cell_length_b       11.3764
_cell_length_c       3.5914
_cell_angle_alpha    90
_cell_angle_beta     90
_cell_angle_gamma    90

_space_group_name_H-M_alt    "P 1"
_space_group_IT_number       1

loop_
  _space_group_symop_operation_xyz
  'x, y, z'

loop_
  _atom_site_type_symbol
  _atom_site_label
  _atom_site_symmetry_multiplicity
  _atom_site_fract_x
  _atom_site_fract_y
  _atom_site_fract_z
  _atom_site_occupancy
  B   B1        1.0  0.60700  0.02940  0.50000  1.0000
  B   B2        1.0  0.05340  0.06610  0.50000  1.0000
  B   B3        1.0  0.24900  0.07920  0.50000  1.0000
  B   B4        1.0  0.63100  0.18400  0.50000  1.0000
  B   B5        1.0  0.98200  0.21300  0.50000  1.0000
  B   B6        1.0  0.29200  0.23400  0.50000  1.0000
  B   B7        1.0  0.79200  0.26600  0.50000  1.0000
  B   B8        1.0  0.48200  0.28700  0.50000  1.0000
  B   B9        1.0  0.13100  0.31600  0.50000  1.0000
  B   B10       1.0  0.74900  0.42100  0.50000  1.0000
  B   B11       1.0  0.55300  0.43400  0.50000  1.0000
  B   B12       1.0  0.10700  0.47100  0.50000  1.0000
  B   B13       1.0  0.89300  0.52900  0.50000  1.0000
  B   B14       1.0  0.44700  0.56600  0.50000  1.0000
  B   B15       1.0  0.25100  0.57900  0.50000  1.0000
  B   B16       1.0  0.86900  0.68400  0.50000  1.0000
  B   B17       1.0  0.51800  0.71300  0.50000  1.0000
  B   B18       1.0  0.20800  0.73400  0.50000  1.0000
  B   B19       1.0  0.70800  0.76600  0.50000  1.0000
  B   B20       1.0  0.01830  0.78700  0.50000  1.0000
  B   B21       1.0  0.36900  0.81600  0.50000  1.0000
  B   B22       1.0  0.75100  0.92100  0.50000  1.0000
  B   B23       1.0  0.94700  0.93400  0.50000  1.0000
  B   B24       1.0  0.39300  0.97100  0.50000  1.0000
  Lu  Lu1       1.0  0.82100  0.08610  0.00000  1.0000
  Lu  Lu2       1.0  0.44400  0.12600  0.00000  1.0000
  Lu  Lu3       1.0  0.94400  0.37400  0.00000  1.0000
  Lu  Lu4       1.0  0.32100  0.41400  0.00000  1.0000
  Lu  Lu5       1.0  0.67900  0.58600  0.00000  1.0000
  Lu  Lu6       1.0  0.05570  0.62600  0.00000  1.0000
  Lu  Lu7       1.0  0.55600  0.87400  0.00000  1.0000
  Lu  Lu8       1.0  0.17900  0.91400  0.00000  1.0000
  Os  Os1       1.0  0.13800  0.17900  0.00000  1.0000
  Os  Os2       1.0  0.63800  0.32100  0.00000  1.0000
  Os  Os3       1.0  0.36200  0.67900  0.00000  1.0000
  Os  Os4       1.0  0.86200  0.82100  0.00000  1.0000
