data_image0
_chemical_formula_structural       Cr2O24P6Sn2Sr2
_chemical_formula_sum              "Cr2 O24 P6 Sn2 Sr2"
_cell_length_a       8.25861
_cell_length_b       8.25861
_cell_length_c       9.03296
_cell_angle_alpha    62.7974
_cell_angle_beta     117.203
_cell_angle_gamma    120

_space_group_name_H-M_alt    "P 1"
_space_group_IT_number       1

loop_
  _space_group_symop_operation_xyz
  'x, y, z'

loop_
  _atom_site_type_symbol
  _atom_site_label
  _atom_site_symmetry_multiplicity
  _atom_site_fract_x
  _atom_site_fract_y
  _atom_site_fract_z
  _atom_site_occupancy
  Cr  Cr1       1.0  0.15100  0.84900  0.45400  1.0000
  Cr  Cr2       1.0  0.84900  0.15100  0.54600  1.0000
  O   O1        1.0  0.47500  0.10400  0.07440  1.0000
  O   O2        1.0  0.89600  0.29600  0.07440  1.0000
  O   O3        1.0  0.70400  0.52500  0.07440  1.0000
  O   O4        1.0  0.25000  0.38200  0.23900  1.0000
  O   O5        1.0  0.61800  0.62900  0.23900  1.0000
  O   O6        1.0  0.37100  0.75000  0.23900  1.0000
  O   O7        1.0  0.01160  0.03380  0.28500  1.0000
  O   O8        1.0  0.96600  0.69300  0.28500  1.0000
  O   O9        1.0  0.30700  0.98800  0.28500  1.0000
  O   O10       1.0  0.02750  0.27800  0.40200  1.0000
  O   O11       1.0  0.72200  0.34700  0.40200  1.0000
  O   O12       1.0  0.65300  0.97200  0.40200  1.0000
  O   O13       1.0  0.34700  0.02750  0.59800  1.0000
  O   O14       1.0  0.27800  0.65300  0.59800  1.0000
  O   O15       1.0  0.97200  0.72200  0.59800  1.0000
  O   O16       1.0  0.69300  0.01160  0.71500  1.0000
  O   O17       1.0  0.03380  0.30700  0.71500  1.0000
  O   O18       1.0  0.98800  0.96600  0.71500  1.0000
  O   O19       1.0  0.62900  0.25000  0.76100  1.0000
  O   O20       1.0  0.38200  0.37100  0.76100  1.0000
  O   O21       1.0  0.75000  0.61800  0.76100  1.0000
  O   O22       1.0  0.29600  0.47500  0.92600  1.0000
  O   O23       1.0  0.10400  0.70400  0.92600  1.0000
  O   O24       1.0  0.52500  0.89600  0.92600  1.0000
  P   P1        1.0  0.04030  0.24300  0.25700  1.0000
  P   P2        1.0  0.75700  0.54000  0.25700  1.0000
  P   P3        1.0  0.46000  0.96000  0.25700  1.0000
  P   P4        1.0  0.54000  0.04030  0.74300  1.0000
  P   P5        1.0  0.24300  0.46000  0.74300  1.0000
  P   P6        1.0  0.96000  0.75700  0.74300  1.0000
  Sn  Sn1       1.0  0.35300  0.64700  0.05810  1.0000
  Sn  Sn2       1.0  0.64700  0.35300  0.94200  1.0000
  Sr  Sr1       1.0  0.00000  0.00000  0.00000  1.0000
  Sr  Sr2       1.0  0.50000  0.50000  0.50000  1.0000
