data_image0
_chemical_formula_structural       Cs8Ge8S20
_chemical_formula_sum              "Cs8 Ge8 S20"
_cell_length_a       9.62144
_cell_length_b       11.3447
_cell_length_c       11.3447
_cell_angle_alpha    90.5134
_cell_angle_beta     101.467
_cell_angle_gamma    101.467

_space_group_name_H-M_alt    "P 1"
_space_group_IT_number       1

loop_
  _space_group_symop_operation_xyz
  'x, y, z'

loop_
  _atom_site_type_symbol
  _atom_site_label
  _atom_site_symmetry_multiplicity
  _atom_site_fract_x
  _atom_site_fract_y
  _atom_site_fract_z
  _atom_site_occupancy
  Cs  Cs1       1.0  0.14200  0.20600  0.06340  1.0000
  Cs  Cs2       1.0  0.64200  0.06340  0.20600  1.0000
  Cs  Cs3       1.0  0.62800  0.48200  0.21100  1.0000
  Cs  Cs4       1.0  0.12800  0.21100  0.48200  1.0000
  Cs  Cs5       1.0  0.87200  0.78900  0.51800  1.0000
  Cs  Cs6       1.0  0.37200  0.51800  0.78900  1.0000
  Cs  Cs7       1.0  0.35800  0.93700  0.79400  1.0000
  Cs  Cs8       1.0  0.85800  0.79400  0.93700  1.0000
  Ge  Ge1       1.0  0.37900  0.73100  0.14000  1.0000
  Ge  Ge2       1.0  0.10300  0.52800  0.26400  1.0000
  Ge  Ge3       1.0  0.12100  0.86000  0.26900  1.0000
  Ge  Ge4       1.0  0.39700  0.73600  0.47200  1.0000
  Ge  Ge5       1.0  0.60300  0.26400  0.52800  1.0000
  Ge  Ge6       1.0  0.87900  0.14000  0.73100  1.0000
  Ge  Ge7       1.0  0.89700  0.47200  0.73600  1.0000
  Ge  Ge8       1.0  0.62100  0.26900  0.86000  1.0000
  S   S1        1.0  0.51900  0.75400  0.01370  1.0000
  S   S2        1.0  0.23600  0.54600  0.11700  1.0000
  S   S3        1.0  0.25000  0.88000  0.12000  1.0000
  S   S4        1.0  0.95800  0.35600  0.24000  1.0000
  S   S5        1.0  0.97100  0.67500  0.24200  1.0000
  S   S6        1.0  0.98100  0.98600  0.24600  1.0000
  S   S7        1.0  0.52900  0.75800  0.32500  1.0000
  S   S8        1.0  0.45800  0.24000  0.35600  1.0000
  S   S9        1.0  0.25000  0.55000  0.45000  1.0000
  S   S10       1.0  0.26400  0.88300  0.45400  1.0000
  S   S11       1.0  0.73600  0.11700  0.54600  1.0000
  S   S12       1.0  0.75000  0.45000  0.55000  1.0000
  S   S13       1.0  0.54200  0.76000  0.64400  1.0000
  S   S14       1.0  0.47100  0.24200  0.67500  1.0000
  S   S15       1.0  0.01900  0.01370  0.75400  1.0000
  S   S16       1.0  0.02870  0.32500  0.75800  1.0000
  S   S17       1.0  0.04220  0.64400  0.76000  1.0000
  S   S18       1.0  0.75000  0.12000  0.88000  1.0000
  S   S19       1.0  0.76400  0.45400  0.88300  1.0000
  S   S20       1.0  0.48100  0.24600  0.98600  1.0000
