data_image0
_chemical_formula_structural       Er4Fe20P12
_chemical_formula_sum              "Er4 Fe20 P12"
_cell_length_a       11.7727
_cell_length_b       3.63058
_cell_length_c       10.251
_cell_angle_alpha    90
_cell_angle_beta     90
_cell_angle_gamma    90

_space_group_name_H-M_alt    "P 1"
_space_group_IT_number       1

loop_
  _space_group_symop_operation_xyz
  'x, y, z'

loop_
  _atom_site_type_symbol
  _atom_site_label
  _atom_site_symmetry_multiplicity
  _atom_site_fract_x
  _atom_site_fract_y
  _atom_site_fract_z
  _atom_site_occupancy
  Er  Er1       1.0  0.79600  0.75000  0.08090  1.0000
  Er  Er2       1.0  0.29600  0.75000  0.41900  1.0000
  Er  Er3       1.0  0.70400  0.25000  0.58100  1.0000
  Er  Er4       1.0  0.20400  0.25000  0.91900  1.0000
  Fe  Fe1       1.0  0.43200  0.25000  0.03650  1.0000
  Fe  Fe2       1.0  0.99000  0.25000  0.09470  1.0000
  Fe  Fe3       1.0  0.29800  0.75000  0.12400  1.0000
  Fe  Fe4       1.0  0.51100  0.75000  0.20800  1.0000
  Fe  Fe5       1.0  0.17700  0.25000  0.21900  1.0000
  Fe  Fe6       1.0  0.67700  0.25000  0.28100  1.0000
  Fe  Fe7       1.0  0.01140  0.75000  0.29200  1.0000
  Fe  Fe8       1.0  0.79800  0.75000  0.37600  1.0000
  Fe  Fe9       1.0  0.49000  0.25000  0.40500  1.0000
  Fe  Fe10      1.0  0.93200  0.25000  0.46400  1.0000
  Fe  Fe11      1.0  0.06760  0.75000  0.53600  1.0000
  Fe  Fe12      1.0  0.51000  0.75000  0.59500  1.0000
  Fe  Fe13      1.0  0.20200  0.25000  0.62400  1.0000
  Fe  Fe14      1.0  0.98900  0.25000  0.70800  1.0000
  Fe  Fe15      1.0  0.32300  0.75000  0.71900  1.0000
  Fe  Fe16      1.0  0.82300  0.75000  0.78100  1.0000
  Fe  Fe17      1.0  0.48900  0.25000  0.79200  1.0000
  Fe  Fe18      1.0  0.70200  0.25000  0.87600  1.0000
  Fe  Fe19      1.0  0.00984  0.75000  0.90500  1.0000
  Fe  Fe20      1.0  0.56800  0.75000  0.96400  1.0000
  P   P1        1.0  0.61300  0.25000  0.07870  1.0000
  P   P2        1.0  0.10400  0.75000  0.10000  1.0000
  P   P3        1.0  0.37200  0.25000  0.23400  1.0000
  P   P4        1.0  0.87200  0.25000  0.26600  1.0000
  P   P5        1.0  0.60400  0.75000  0.40000  1.0000
  P   P6        1.0  0.11300  0.25000  0.42100  1.0000
  P   P7        1.0  0.88700  0.75000  0.57900  1.0000
  P   P8        1.0  0.39600  0.25000  0.60000  1.0000
  P   P9        1.0  0.12800  0.75000  0.73400  1.0000
  P   P10       1.0  0.62800  0.75000  0.76600  1.0000
  P   P11       1.0  0.89600  0.25000  0.90000  1.0000
  P   P12       1.0  0.38700  0.75000  0.92100  1.0000
