data_image0
_chemical_formula_structural       K16Se8Sn4Te8
_chemical_formula_sum              "K16 Se8 Sn4 Te8"
_cell_length_a       15.1722
_cell_length_b       10.8129
_cell_length_c       8.55028
_cell_angle_alpha    90
_cell_angle_beta     90
_cell_angle_gamma    90

_space_group_name_H-M_alt    "P 1"
_space_group_IT_number       1

loop_
  _space_group_symop_operation_xyz
  'x, y, z'

loop_
  _atom_site_type_symbol
  _atom_site_label
  _atom_site_symmetry_multiplicity
  _atom_site_fract_x
  _atom_site_fract_y
  _atom_site_fract_z
  _atom_site_occupancy
  K   K1        1.0  0.00000  0.00000  0.00000  1.0000
  K   K2        1.0  0.00000  0.50000  0.00000  1.0000
  K   K3        1.0  0.43500  0.25000  0.01640  1.0000
  K   K4        1.0  0.72900  0.03660  0.14400  1.0000
  K   K5        1.0  0.72900  0.46300  0.14400  1.0000
  K   K6        1.0  0.22900  0.03660  0.35600  1.0000
  K   K7        1.0  0.22900  0.46300  0.35600  1.0000
  K   K8        1.0  0.93500  0.25000  0.48400  1.0000
  K   K9        1.0  0.50000  0.00000  0.50000  1.0000
  K   K10       1.0  0.50000  0.50000  0.50000  1.0000
  K   K11       1.0  0.06490  0.75000  0.51600  1.0000
  K   K12       1.0  0.77100  0.53700  0.64400  1.0000
  K   K13       1.0  0.77100  0.96300  0.64400  1.0000
  K   K14       1.0  0.27100  0.53700  0.85600  1.0000
  K   K15       1.0  0.27100  0.96300  0.85600  1.0000
  K   K16       1.0  0.56500  0.75000  0.98400  1.0000
  Se  Se1       1.0  0.41600  0.55500  0.14400  1.0000
  Se  Se2       1.0  0.41600  0.94500  0.14400  1.0000
  Se  Se3       1.0  0.91600  0.55500  0.35600  1.0000
  Se  Se4       1.0  0.91600  0.94500  0.35600  1.0000
  Se  Se5       1.0  0.08380  0.05470  0.64400  1.0000
  Se  Se6       1.0  0.08380  0.44500  0.64400  1.0000
  Se  Se7       1.0  0.58400  0.05470  0.85600  1.0000
  Se  Se8       1.0  0.58400  0.44500  0.85600  1.0000
  Sn  Sn1       1.0  0.33800  0.75000  0.23700  1.0000
  Sn  Sn2       1.0  0.83800  0.75000  0.26300  1.0000
  Sn  Sn3       1.0  0.16200  0.25000  0.73700  1.0000
  Sn  Sn4       1.0  0.66200  0.25000  0.76300  1.0000
  Te  Te1       1.0  0.16600  0.25000  0.06390  1.0000
  Te  Te2       1.0  0.16500  0.75000  0.12600  1.0000
  Te  Te3       1.0  0.66500  0.75000  0.37400  1.0000
  Te  Te4       1.0  0.66600  0.25000  0.43600  1.0000
  Te  Te5       1.0  0.33400  0.75000  0.56400  1.0000
  Te  Te6       1.0  0.33500  0.25000  0.62600  1.0000
  Te  Te7       1.0  0.83500  0.25000  0.87400  1.0000
  Te  Te8       1.0  0.83400  0.75000  0.93600  1.0000
