data_image0
_chemical_formula_structural       Ce8Ir12Sb16
_chemical_formula_sum              "Ce8 Ir12 Sb16"
_cell_length_a       16.3282
_cell_length_b       4.60731
_cell_length_c       11.1179
_cell_angle_alpha    90
_cell_angle_beta     90
_cell_angle_gamma    90

_space_group_name_H-M_alt    "P 1"
_space_group_IT_number       1

loop_
  _space_group_symop_operation_xyz
  'x, y, z'

loop_
  _atom_site_type_symbol
  _atom_site_label
  _atom_site_symmetry_multiplicity
  _atom_site_fract_x
  _atom_site_fract_y
  _atom_site_fract_z
  _atom_site_occupancy
  Ce  Ce1       1.0  0.74900  0.75000  0.08890  1.0000
  Ce  Ce2       1.0  0.99400  0.75000  0.24900  1.0000
  Ce  Ce3       1.0  0.49400  0.75000  0.25100  1.0000
  Ce  Ce4       1.0  0.24900  0.75000  0.41100  1.0000
  Ce  Ce5       1.0  0.75100  0.25000  0.58900  1.0000
  Ce  Ce6       1.0  0.50600  0.25000  0.74900  1.0000
  Ce  Ce7       1.0  0.00609  0.25000  0.75100  1.0000
  Ce  Ce8       1.0  0.25100  0.25000  0.91100  1.0000
  Ir  Ir1       1.0  0.05680  0.25000  0.03460  1.0000
  Ir  Ir2       1.0  0.59300  0.25000  0.05640  1.0000
  Ir  Ir3       1.0  0.31900  0.25000  0.22300  1.0000
  Ir  Ir4       1.0  0.81900  0.25000  0.27700  1.0000
  Ir  Ir5       1.0  0.09260  0.25000  0.44400  1.0000
  Ir  Ir6       1.0  0.55700  0.25000  0.46500  1.0000
  Ir  Ir7       1.0  0.44300  0.75000  0.53500  1.0000
  Ir  Ir8       1.0  0.90700  0.75000  0.55600  1.0000
  Ir  Ir9       1.0  0.18100  0.75000  0.72300  1.0000
  Ir  Ir10      1.0  0.68100  0.75000  0.77700  1.0000
  Ir  Ir11      1.0  0.40700  0.75000  0.94400  1.0000
  Ir  Ir12      1.0  0.94300  0.75000  0.96500  1.0000
  Sb  Sb1       1.0  0.43200  0.25000  0.05160  1.0000
  Sb  Sb2       1.0  0.89500  0.25000  0.06210  1.0000
  Sb  Sb3       1.0  0.29000  0.75000  0.11500  1.0000
  Sb  Sb4       1.0  0.15100  0.25000  0.22500  1.0000
  Sb  Sb5       1.0  0.65100  0.25000  0.27500  1.0000
  Sb  Sb6       1.0  0.79000  0.75000  0.38500  1.0000
  Sb  Sb7       1.0  0.39500  0.25000  0.43800  1.0000
  Sb  Sb8       1.0  0.93200  0.25000  0.44800  1.0000
  Sb  Sb9       1.0  0.06810  0.75000  0.55200  1.0000
  Sb  Sb10      1.0  0.60500  0.75000  0.56200  1.0000
  Sb  Sb11      1.0  0.21000  0.25000  0.61500  1.0000
  Sb  Sb12      1.0  0.34900  0.75000  0.72500  1.0000
  Sb  Sb13      1.0  0.84900  0.75000  0.77500  1.0000
  Sb  Sb14      1.0  0.71000  0.25000  0.88500  1.0000
  Sb  Sb15      1.0  0.10500  0.75000  0.93800  1.0000
  Sb  Sb16      1.0  0.56800  0.75000  0.94800  1.0000
