data_image0
_chemical_formula_structural       I8In2Na2O24
_chemical_formula_sum              "I8 In2 Na2 O24"
_cell_length_a       7.14533
_cell_length_b       4.90708
_cell_length_c       15.3701
_cell_angle_alpha    90
_cell_angle_beta     101.308
_cell_angle_gamma    90

_space_group_name_H-M_alt    "P 1"
_space_group_IT_number       1

loop_
  _space_group_symop_operation_xyz
  'x, y, z'

loop_
  _atom_site_type_symbol
  _atom_site_label
  _atom_site_symmetry_multiplicity
  _atom_site_fract_x
  _atom_site_fract_y
  _atom_site_fract_z
  _atom_site_occupancy
  I   I1        1.0  0.81800  0.98300  0.14500  1.0000
  I   I2        1.0  0.33500  0.92700  0.16400  1.0000
  I   I3        1.0  0.66500  0.42700  0.33600  1.0000
  I   I4        1.0  0.18200  0.48300  0.35500  1.0000
  I   I5        1.0  0.81800  0.51700  0.64500  1.0000
  I   I6        1.0  0.33500  0.57300  0.66400  1.0000
  I   I7        1.0  0.66500  0.07280  0.83600  1.0000
  I   I8        1.0  0.18200  0.01680  0.85500  1.0000
  In  In1       1.0  0.00000  0.50000  0.00000  1.0000
  In  In2       1.0  0.00000  0.00000  0.50000  1.0000
  Na  Na1       1.0  0.50000  0.50000  0.00000  1.0000
  Na  Na2       1.0  0.50000  0.00000  0.50000  1.0000
  O   O1        1.0  0.79500  0.73900  0.05000  1.0000
  O   O2        1.0  0.26100  0.67800  0.07250  1.0000
  O   O3        1.0  0.59800  0.15700  0.09730  1.0000
  O   O4        1.0  0.00106  0.20700  0.10900  1.0000
  O   O5        1.0  0.55500  0.73400  0.21000  1.0000
  O   O6        1.0  0.16900  0.80500  0.23400  1.0000
  O   O7        1.0  0.83100  0.30500  0.26600  1.0000
  O   O8        1.0  0.44500  0.23400  0.29000  1.0000
  O   O9        1.0  0.99900  0.70700  0.39100  1.0000
  O   O10       1.0  0.40200  0.65700  0.40300  1.0000
  O   O11       1.0  0.73900  0.17800  0.42800  1.0000
  O   O12       1.0  0.20500  0.23900  0.45000  1.0000
  O   O13       1.0  0.79500  0.76100  0.55000  1.0000
  O   O14       1.0  0.26100  0.82200  0.57200  1.0000
  O   O15       1.0  0.59800  0.34300  0.59700  1.0000
  O   O16       1.0  0.00106  0.29300  0.60900  1.0000
  O   O17       1.0  0.55500  0.76600  0.71000  1.0000
  O   O18       1.0  0.16900  0.69500  0.73400  1.0000
  O   O19       1.0  0.83100  0.19500  0.76600  1.0000
  O   O20       1.0  0.44500  0.26600  0.79000  1.0000
  O   O21       1.0  0.99900  0.79300  0.89100  1.0000
  O   O22       1.0  0.40200  0.84300  0.90300  1.0000
  O   O23       1.0  0.73900  0.32200  0.92800  1.0000
  O   O24       1.0  0.20500  0.26100  0.95000  1.0000
