data_image0
_chemical_formula_structural       Nb12Sc8Si16
_chemical_formula_sum              "Nb12 Sc8 Si16"
_cell_length_a       6.71049
_cell_length_b       13.1274
_cell_length_c       6.90425
_cell_angle_alpha    90
_cell_angle_beta     90
_cell_angle_gamma    90

_space_group_name_H-M_alt    "P 1"
_space_group_IT_number       1

loop_
  _space_group_symop_operation_xyz
  'x, y, z'

loop_
  _atom_site_type_symbol
  _atom_site_label
  _atom_site_symmetry_multiplicity
  _atom_site_fract_x
  _atom_site_fract_y
  _atom_site_fract_z
  _atom_site_occupancy
  Nb  Nb1       1.0  0.33600  0.25000  0.00482  1.0000
  Nb  Nb2       1.0  0.66200  0.12500  0.17600  1.0000
  Nb  Nb3       1.0  0.66200  0.37500  0.17600  1.0000
  Nb  Nb4       1.0  0.16200  0.12500  0.32400  1.0000
  Nb  Nb5       1.0  0.16200  0.37500  0.32400  1.0000
  Nb  Nb6       1.0  0.83600  0.25000  0.49500  1.0000
  Nb  Nb7       1.0  0.16400  0.75000  0.50500  1.0000
  Nb  Nb8       1.0  0.83800  0.62500  0.67600  1.0000
  Nb  Nb9       1.0  0.83800  0.87500  0.67600  1.0000
  Nb  Nb10      1.0  0.33800  0.62500  0.82400  1.0000
  Nb  Nb11      1.0  0.33800  0.87500  0.82400  1.0000
  Nb  Nb12      1.0  0.66400  0.75000  0.99500  1.0000
  Sc  Sc1       1.0  0.99900  0.59600  0.17400  1.0000
  Sc  Sc2       1.0  0.99900  0.90400  0.17400  1.0000
  Sc  Sc3       1.0  0.49900  0.59600  0.32600  1.0000
  Sc  Sc4       1.0  0.49900  0.90400  0.32600  1.0000
  Sc  Sc5       1.0  0.50100  0.09570  0.67400  1.0000
  Sc  Sc6       1.0  0.50100  0.40400  0.67400  1.0000
  Sc  Sc7       1.0  0.00094  0.09570  0.82600  1.0000
  Sc  Sc8       1.0  0.00094  0.40400  0.82600  1.0000
  Si  Si1       1.0  0.33100  0.03920  0.03200  1.0000
  Si  Si2       1.0  0.33100  0.46100  0.03200  1.0000
  Si  Si3       1.0  0.95900  0.25000  0.11300  1.0000
  Si  Si4       1.0  0.29700  0.75000  0.13700  1.0000
  Si  Si5       1.0  0.79700  0.75000  0.36300  1.0000
  Si  Si6       1.0  0.45900  0.25000  0.38700  1.0000
  Si  Si7       1.0  0.83100  0.03920  0.46800  1.0000
  Si  Si8       1.0  0.83100  0.46100  0.46800  1.0000
  Si  Si9       1.0  0.16900  0.53900  0.53200  1.0000
  Si  Si10      1.0  0.16900  0.96100  0.53200  1.0000
  Si  Si11      1.0  0.54100  0.75000  0.61300  1.0000
  Si  Si12      1.0  0.20300  0.25000  0.63700  1.0000
  Si  Si13      1.0  0.70300  0.25000  0.86300  1.0000
  Si  Si14      1.0  0.04140  0.75000  0.88700  1.0000
  Si  Si15      1.0  0.66900  0.53900  0.96800  1.0000
  Si  Si16      1.0  0.66900  0.96100  0.96800  1.0000
