data_image0
_chemical_formula_structural       H4O24S6Th2
_chemical_formula_sum              "H4 O24 S6 Th2"
_cell_length_a       5.73736
_cell_length_b       8.82873
_cell_length_c       9.41568
_cell_angle_alpha    65.1701
_cell_angle_beta     87.6522
_cell_angle_gamma    89.1989

_space_group_name_H-M_alt    "P 1"
_space_group_IT_number       1

loop_
  _space_group_symop_operation_xyz
  'x, y, z'

loop_
  _atom_site_type_symbol
  _atom_site_label
  _atom_site_symmetry_multiplicity
  _atom_site_fract_x
  _atom_site_fract_y
  _atom_site_fract_z
  _atom_site_occupancy
  H   H1        1.0  0.95200  0.16400  0.28000  1.0000
  H   H2        1.0  0.34100  0.20800  0.39900  1.0000
  H   H3        1.0  0.65900  0.79200  0.60100  1.0000
  H   H4        1.0  0.04770  0.83600  0.72000  1.0000
  O   O1        1.0  0.42400  0.24400  0.00709  1.0000
  O   O2        1.0  0.02110  0.16500  0.00742  1.0000
  O   O3        1.0  0.78000  0.42900  0.02790  1.0000
  O   O4        1.0  0.31600  0.95600  0.12000  1.0000
  O   O5        1.0  0.50500  0.41800  0.23700  1.0000
  O   O6        1.0  0.91400  0.48300  0.24100  1.0000
  O   O7        1.0  0.19000  0.13200  0.24900  1.0000
  O   O8        1.0  0.77900  0.20200  0.29500  1.0000
  O   O9        1.0  0.56200  0.71700  0.32300  1.0000
  O   O10       1.0  0.97400  0.76300  0.33100  1.0000
  O   O11       1.0  0.23000  0.46000  0.45100  1.0000
  O   O12       1.0  0.71100  0.83900  0.48900  1.0000
  O   O13       1.0  0.28900  0.16100  0.51100  1.0000
  O   O14       1.0  0.77000  0.54000  0.54900  1.0000
  O   O15       1.0  0.02560  0.23700  0.66900  1.0000
  O   O16       1.0  0.43800  0.28300  0.67700  1.0000
  O   O17       1.0  0.22100  0.79800  0.70500  1.0000
  O   O18       1.0  0.81000  0.86800  0.75100  1.0000
  O   O19       1.0  0.08640  0.51700  0.75900  1.0000
  O   O20       1.0  0.49500  0.58200  0.76300  1.0000
  O   O21       1.0  0.68400  0.04370  0.88000  1.0000
  O   O22       1.0  0.22000  0.57100  0.97200  1.0000
  O   O23       1.0  0.97900  0.83500  0.99300  1.0000
  O   O24       1.0  0.57600  0.75600  0.99300  1.0000
  S   S1        1.0  0.23800  0.12400  0.09690  1.0000
  S   S2        1.0  0.74600  0.38900  0.19500  1.0000
  S   S3        1.0  0.75500  0.70700  0.42200  1.0000
  S   S4        1.0  0.24500  0.29300  0.57800  1.0000
  S   S5        1.0  0.25400  0.61100  0.80500  1.0000
  S   S6        1.0  0.76200  0.87600  0.90300  1.0000
  Th  Th1       1.0  0.25300  0.67100  0.17700  1.0000
  Th  Th2       1.0  0.74700  0.32900  0.82300  1.0000
