data_image0
_chemical_formula_structural       B2In4O24P6
_chemical_formula_sum              "B2 In4 O24 P6"
_cell_length_a       8.12625
_cell_length_b       8.12551
_cell_length_c       7.73461
_cell_angle_alpha    90
_cell_angle_beta     90
_cell_angle_gamma    120.002

_space_group_name_H-M_alt    "P 1"
_space_group_IT_number       1

loop_
  _space_group_symop_operation_xyz
  'x, y, z'

loop_
  _atom_site_type_symbol
  _atom_site_label
  _atom_site_symmetry_multiplicity
  _atom_site_fract_x
  _atom_site_fract_y
  _atom_site_fract_z
  _atom_site_occupancy
  B   B1        1.0  0.00000  0.00000  0.25000  1.0000
  B   B2        1.0  0.00000  0.00000  0.75000  1.0000
  In  In1       1.0  0.66700  0.33300  0.04370  1.0000
  In  In2       1.0  0.66700  0.33300  0.45600  1.0000
  In  In3       1.0  0.33300  0.66700  0.54400  1.0000
  In  In4       1.0  0.33300  0.66700  0.95600  1.0000
  O   O1        1.0  0.15700  0.74500  0.08430  1.0000
  O   O2        1.0  0.58800  0.84300  0.08430  1.0000
  O   O3        1.0  0.25500  0.41200  0.08430  1.0000
  O   O4        1.0  0.87900  0.07110  0.25000  1.0000
  O   O5        1.0  0.60100  0.11800  0.25000  1.0000
  O   O6        1.0  0.19200  0.12100  0.25000  1.0000
  O   O7        1.0  0.51700  0.39900  0.25000  1.0000
  O   O8        1.0  0.88200  0.48300  0.25000  1.0000
  O   O9        1.0  0.92900  0.80800  0.25000  1.0000
  O   O10       1.0  0.25500  0.41200  0.41600  1.0000
  O   O11       1.0  0.58800  0.84300  0.41600  1.0000
  O   O12       1.0  0.15700  0.74500  0.41600  1.0000
  O   O13       1.0  0.84300  0.25500  0.58400  1.0000
  O   O14       1.0  0.41200  0.15700  0.58400  1.0000
  O   O15       1.0  0.74500  0.58800  0.58400  1.0000
  O   O16       1.0  0.07110  0.19200  0.75000  1.0000
  O   O17       1.0  0.11800  0.51700  0.75000  1.0000
  O   O18       1.0  0.48300  0.60100  0.75000  1.0000
  O   O19       1.0  0.80800  0.87900  0.75000  1.0000
  O   O20       1.0  0.39900  0.88200  0.75000  1.0000
  O   O21       1.0  0.12100  0.92900  0.75000  1.0000
  O   O22       1.0  0.74500  0.58800  0.91600  1.0000
  O   O23       1.0  0.41200  0.15700  0.91600  1.0000
  O   O24       1.0  0.84300  0.25500  0.91600  1.0000
  P   P1        1.0  0.30600  0.34800  0.25000  1.0000
  P   P2        1.0  0.04230  0.69400  0.25000  1.0000
  P   P3        1.0  0.65200  0.95800  0.25000  1.0000
  P   P4        1.0  0.34800  0.04240  0.75000  1.0000
  P   P5        1.0  0.95800  0.30600  0.75000  1.0000
  P   P6        1.0  0.69400  0.65200  0.75000  1.0000
