data_image0
_chemical_formula_structural       Au12Eu8In16
_chemical_formula_sum              "Au12 Eu8 In16"
_cell_length_a       15.0066
_cell_length_b       15.0066
_cell_length_c       4.5427
_cell_angle_alpha    90
_cell_angle_beta     90
_cell_angle_gamma    120.001

_space_group_name_H-M_alt    "P 1"
_space_group_IT_number       1

loop_
  _space_group_symop_operation_xyz
  'x, y, z'

loop_
  _atom_site_type_symbol
  _atom_site_label
  _atom_site_symmetry_multiplicity
  _atom_site_fract_x
  _atom_site_fract_y
  _atom_site_fract_z
  _atom_site_occupancy
  Au  Au1       1.0  0.17700  0.00000  0.00000  1.0000
  Au  Au2       1.0  0.65700  0.00000  0.00000  1.0000
  Au  Au3       1.0  0.00000  0.17700  0.00000  1.0000
  Au  Au4       1.0  0.34300  0.34300  0.00000  1.0000
  Au  Au5       1.0  0.00000  0.65700  0.00000  1.0000
  Au  Au6       1.0  0.82300  0.82300  0.00000  1.0000
  Au  Au7       1.0  0.49500  0.17100  0.50000  1.0000
  Au  Au8       1.0  0.82900  0.32400  0.50000  1.0000
  Au  Au9       1.0  0.17100  0.49500  0.50000  1.0000
  Au  Au10      1.0  0.67600  0.50500  0.50000  1.0000
  Au  Au11      1.0  0.50500  0.67600  0.50000  1.0000
  Au  Au12      1.0  0.32400  0.82900  0.50000  1.0000
  Eu  Eu1       1.0  0.45300  0.00000  0.00000  1.0000
  Eu  Eu2       1.0  0.66700  0.33300  0.00000  1.0000
  Eu  Eu3       1.0  0.00000  0.45300  0.00000  1.0000
  Eu  Eu4       1.0  0.54700  0.54700  0.00000  1.0000
  Eu  Eu5       1.0  0.33300  0.66700  0.00000  1.0000
  Eu  Eu6       1.0  0.81900  0.00000  0.50000  1.0000
  Eu  Eu7       1.0  0.18100  0.18100  0.50000  1.0000
  Eu  Eu8       1.0  0.00000  0.81900  0.50000  1.0000
  In  In1       1.0  0.00000  0.00000  0.00000  1.0000
  In  In2       1.0  0.38200  0.18100  0.00000  1.0000
  In  In3       1.0  0.81900  0.20100  0.00000  1.0000
  In  In4       1.0  0.18100  0.38200  0.00000  1.0000
  In  In5       1.0  0.79900  0.61800  0.00000  1.0000
  In  In6       1.0  0.61800  0.79900  0.00000  1.0000
  In  In7       1.0  0.20100  0.81900  0.00000  1.0000
  In  In8       1.0  0.28200  0.00000  0.50000  1.0000
  In  In9       1.0  0.65100  0.12300  0.50000  1.0000
  In  In10      1.0  0.00000  0.28200  0.50000  1.0000
  In  In11      1.0  0.47300  0.34900  0.50000  1.0000
  In  In12      1.0  0.34900  0.47300  0.50000  1.0000
  In  In13      1.0  0.87700  0.52700  0.50000  1.0000
  In  In14      1.0  0.12300  0.65100  0.50000  1.0000
  In  In15      1.0  0.71800  0.71800  0.50000  1.0000
  In  In16      1.0  0.52700  0.87700  0.50000  1.0000
