data_image0
_chemical_formula_structural       Cl12O2S2Ti2
_chemical_formula_sum              "Cl12 O2 S2 Ti2"
_cell_length_a       6.43749
_cell_length_b       7.99393
_cell_length_c       11.0751
_cell_angle_alpha    108.502
_cell_angle_beta     91.0184
_cell_angle_gamma    113.588

_space_group_name_H-M_alt    "P 1"
_space_group_IT_number       1

loop_
  _space_group_symop_operation_xyz
  'x, y, z'

loop_
  _atom_site_type_symbol
  _atom_site_label
  _atom_site_symmetry_multiplicity
  _atom_site_fract_x
  _atom_site_fract_y
  _atom_site_fract_z
  _atom_site_occupancy
  Cl  Cl1       1.0  0.83900  0.32500  0.06040  1.0000
  Cl  Cl2       1.0  0.79900  0.89000  0.06140  1.0000
  Cl  Cl3       1.0  0.39800  0.50900  0.19300  1.0000
  Cl  Cl4       1.0  0.05380  0.82100  0.32700  1.0000
  Cl  Cl5       1.0  0.96400  0.27200  0.33800  1.0000
  Cl  Cl6       1.0  0.45400  0.23100  0.48600  1.0000
  Cl  Cl7       1.0  0.54600  0.76900  0.51400  1.0000
  Cl  Cl8       1.0  0.03620  0.72800  0.66200  1.0000
  Cl  Cl9       1.0  0.94600  0.17900  0.67300  1.0000
  Cl  Cl10      1.0  0.60200  0.49100  0.80700  1.0000
  Cl  Cl11      1.0  0.20100  0.11000  0.93900  1.0000
  Cl  Cl12      1.0  0.16100  0.67500  0.94000  1.0000
  O   O1        1.0  0.30100  0.10600  0.21300  1.0000
  O   O2        1.0  0.69900  0.89400  0.78700  1.0000
  S   S1        1.0  0.35900  0.02180  0.30100  1.0000
  S   S2        1.0  0.64100  0.97800  0.69900  1.0000
  Ti  Ti1       1.0  0.07260  0.23600  0.14400  1.0000
  Ti  Ti2       1.0  0.92700  0.76400  0.85600  1.0000
