data_image0
_chemical_formula_structural       Ir12Pr8Sb16
_chemical_formula_sum              "Ir12 Pr8 Sb16"
_cell_length_a       16.292
_cell_length_b       4.58903
_cell_length_c       11.0926
_cell_angle_alpha    90
_cell_angle_beta     90
_cell_angle_gamma    90

_space_group_name_H-M_alt    "P 1"
_space_group_IT_number       1

loop_
  _space_group_symop_operation_xyz
  'x, y, z'

loop_
  _atom_site_type_symbol
  _atom_site_label
  _atom_site_symmetry_multiplicity
  _atom_site_fract_x
  _atom_site_fract_y
  _atom_site_fract_z
  _atom_site_occupancy
  Ir  Ir1       1.0  0.05650  0.25000  0.03400  1.0000
  Ir  Ir2       1.0  0.59300  0.25000  0.05680  1.0000
  Ir  Ir3       1.0  0.31900  0.25000  0.22300  1.0000
  Ir  Ir4       1.0  0.81900  0.25000  0.27700  1.0000
  Ir  Ir5       1.0  0.09270  0.25000  0.44300  1.0000
  Ir  Ir6       1.0  0.55700  0.25000  0.46600  1.0000
  Ir  Ir7       1.0  0.44300  0.75000  0.53400  1.0000
  Ir  Ir8       1.0  0.90700  0.75000  0.55700  1.0000
  Ir  Ir9       1.0  0.18100  0.75000  0.72300  1.0000
  Ir  Ir10      1.0  0.68100  0.75000  0.77700  1.0000
  Ir  Ir11      1.0  0.40700  0.75000  0.94300  1.0000
  Ir  Ir12      1.0  0.94300  0.75000  0.96600  1.0000
  Pr  Pr1       1.0  0.74800  0.75000  0.08960  1.0000
  Pr  Pr2       1.0  0.99300  0.75000  0.24800  1.0000
  Pr  Pr3       1.0  0.49300  0.75000  0.25200  1.0000
  Pr  Pr4       1.0  0.24800  0.75000  0.41000  1.0000
  Pr  Pr5       1.0  0.75200  0.25000  0.59000  1.0000
  Pr  Pr6       1.0  0.50700  0.25000  0.74800  1.0000
  Pr  Pr7       1.0  0.00659  0.25000  0.75200  1.0000
  Pr  Pr8       1.0  0.25200  0.25000  0.91000  1.0000
  Sb  Sb1       1.0  0.43200  0.25000  0.05210  1.0000
  Sb  Sb2       1.0  0.89400  0.25000  0.06230  1.0000
  Sb  Sb3       1.0  0.28900  0.75000  0.11300  1.0000
  Sb  Sb4       1.0  0.15100  0.25000  0.22400  1.0000
  Sb  Sb5       1.0  0.65100  0.25000  0.27600  1.0000
  Sb  Sb6       1.0  0.78900  0.75000  0.38700  1.0000
  Sb  Sb7       1.0  0.39400  0.25000  0.43800  1.0000
  Sb  Sb8       1.0  0.93200  0.25000  0.44800  1.0000
  Sb  Sb9       1.0  0.06820  0.75000  0.55200  1.0000
  Sb  Sb10      1.0  0.60600  0.75000  0.56200  1.0000
  Sb  Sb11      1.0  0.21100  0.25000  0.61300  1.0000
  Sb  Sb12      1.0  0.34900  0.75000  0.72400  1.0000
  Sb  Sb13      1.0  0.84900  0.75000  0.77600  1.0000
  Sb  Sb14      1.0  0.71100  0.25000  0.88700  1.0000
  Sb  Sb15      1.0  0.10600  0.75000  0.93800  1.0000
  Sb  Sb16      1.0  0.56800  0.75000  0.94800  1.0000
