data_image0
_chemical_formula_structural       Cs2O24Te4V6
_chemical_formula_sum              "Cs2 O24 Te4 V6"
_cell_length_a       7.1428
_cell_length_b       7.14276
_cell_length_c       11.4128
_cell_angle_alpha    90
_cell_angle_beta     90
_cell_angle_gamma    119.999

_space_group_name_H-M_alt    "P 1"
_space_group_IT_number       1

loop_
  _space_group_symop_operation_xyz
  'x, y, z'

loop_
  _atom_site_type_symbol
  _atom_site_label
  _atom_site_symmetry_multiplicity
  _atom_site_fract_x
  _atom_site_fract_y
  _atom_site_fract_z
  _atom_site_occupancy
  Cs  Cs1       1.0  0.33300  0.66700  0.00832  1.0000
  Cs  Cs2       1.0  0.66700  0.33300  0.50800  1.0000
  O   O1        1.0  0.80900  0.60100  0.00659  1.0000
  O   O2        1.0  0.79300  0.19100  0.00659  1.0000
  O   O3        1.0  0.39900  0.20700  0.00660  1.0000
  O   O4        1.0  0.73300  0.85900  0.17700  1.0000
  O   O5        1.0  0.14100  0.87300  0.17700  1.0000
  O   O6        1.0  0.12700  0.26700  0.17800  1.0000
  O   O7        1.0  0.46000  0.54100  0.31400  1.0000
  O   O8        1.0  0.08080  0.54000  0.31400  1.0000
  O   O9        1.0  0.45900  0.91900  0.31400  1.0000
  O   O10       1.0  0.24900  0.12700  0.36700  1.0000
  O   O11       1.0  0.87300  0.12200  0.36700  1.0000
  O   O12       1.0  0.87800  0.75100  0.36700  1.0000
  O   O13       1.0  0.19100  0.39900  0.50700  1.0000
  O   O14       1.0  0.20700  0.80900  0.50700  1.0000
  O   O15       1.0  0.60100  0.79300  0.50700  1.0000
  O   O16       1.0  0.26700  0.14100  0.67700  1.0000
  O   O17       1.0  0.85900  0.12700  0.67700  1.0000
  O   O18       1.0  0.87300  0.73300  0.67800  1.0000
  O   O19       1.0  0.54000  0.45900  0.81400  1.0000
  O   O20       1.0  0.91900  0.46000  0.81400  1.0000
  O   O21       1.0  0.54100  0.08080  0.81400  1.0000
  O   O22       1.0  0.75100  0.87300  0.86700  1.0000
  O   O23       1.0  0.12700  0.87800  0.86700  1.0000
  O   O24       1.0  0.12200  0.24900  0.86700  1.0000
  Te  Te1       1.0  0.66700  0.33300  0.08680  1.0000
  Te  Te2       1.0  0.00000  0.00000  0.09130  1.0000
  Te  Te3       1.0  0.33300  0.66700  0.58700  1.0000
  Te  Te4       1.0  0.00000  0.00000  0.59100  1.0000
  V   V1        1.0  0.13000  0.79600  0.33400  1.0000
  V   V2        1.0  0.20400  0.33400  0.33400  1.0000
  V   V3        1.0  0.66600  0.87000  0.33400  1.0000
  V   V4        1.0  0.87000  0.20400  0.83400  1.0000
  V   V5        1.0  0.33400  0.13000  0.83400  1.0000
  V   V6        1.0  0.79600  0.66600  0.83400  1.0000
