data_image0
_chemical_formula_structural       Ge16Nd20
_chemical_formula_sum              "Ge16 Nd20"
_cell_length_a       7.93228
_cell_length_b       8.03475
_cell_length_c       15.2141
_cell_angle_alpha    90
_cell_angle_beta     90
_cell_angle_gamma    90

_space_group_name_H-M_alt    "P 1"
_space_group_IT_number       1

loop_
  _space_group_symop_operation_xyz
  'x, y, z'

loop_
  _atom_site_type_symbol
  _atom_site_label
  _atom_site_symmetry_multiplicity
  _atom_site_fract_x
  _atom_site_fract_y
  _atom_site_fract_z
  _atom_site_occupancy
  Ge  Ge1       1.0  0.28100  0.03470  0.04440  1.0000
  Ge  Ge2       1.0  0.78100  0.46500  0.04440  1.0000
  Ge  Ge3       1.0  0.91700  0.10900  0.25000  1.0000
  Ge  Ge4       1.0  0.41700  0.39100  0.25000  1.0000
  Ge  Ge5       1.0  0.18000  0.63400  0.25000  1.0000
  Ge  Ge6       1.0  0.68000  0.86600  0.25000  1.0000
  Ge  Ge7       1.0  0.28100  0.03470  0.45600  1.0000
  Ge  Ge8       1.0  0.78100  0.46500  0.45600  1.0000
  Ge  Ge9       1.0  0.21900  0.53500  0.54400  1.0000
  Ge  Ge10      1.0  0.71900  0.96500  0.54400  1.0000
  Ge  Ge11      1.0  0.32000  0.13400  0.75000  1.0000
  Ge  Ge12      1.0  0.82000  0.36600  0.75000  1.0000
  Ge  Ge13      1.0  0.58300  0.60900  0.75000  1.0000
  Ge  Ge14      1.0  0.08310  0.89100  0.75000  1.0000
  Ge  Ge15      1.0  0.21900  0.53500  0.95600  1.0000
  Ge  Ge16      1.0  0.71900  0.96500  0.95600  1.0000
  Nd  Nd1       1.0  0.48000  0.68000  0.10200  1.0000
  Nd  Nd2       1.0  0.98000  0.82000  0.10200  1.0000
  Nd  Nd3       1.0  0.62400  0.16000  0.11500  1.0000
  Nd  Nd4       1.0  0.12400  0.34000  0.11500  1.0000
  Nd  Nd5       1.0  0.29000  0.00258  0.25000  1.0000
  Nd  Nd6       1.0  0.79000  0.49700  0.25000  1.0000
  Nd  Nd7       1.0  0.62400  0.16000  0.38500  1.0000
  Nd  Nd8       1.0  0.12400  0.34000  0.38500  1.0000
  Nd  Nd9       1.0  0.48000  0.68000  0.39800  1.0000
  Nd  Nd10      1.0  0.98000  0.82000  0.39800  1.0000
  Nd  Nd11      1.0  0.01990  0.18000  0.60200  1.0000
  Nd  Nd12      1.0  0.52000  0.32000  0.60200  1.0000
  Nd  Nd13      1.0  0.87600  0.66000  0.61500  1.0000
  Nd  Nd14      1.0  0.37600  0.84000  0.61500  1.0000
  Nd  Nd15      1.0  0.21000  0.50300  0.75000  1.0000
  Nd  Nd16      1.0  0.71000  0.99700  0.75000  1.0000
  Nd  Nd17      1.0  0.87600  0.66000  0.88500  1.0000
  Nd  Nd18      1.0  0.37600  0.84000  0.88500  1.0000
  Nd  Nd19      1.0  0.01990  0.18000  0.89800  1.0000
  Nd  Nd20      1.0  0.52000  0.32000  0.89800  1.0000
