data_image0
_chemical_formula_structural       C4F20N4O4S4
_chemical_formula_sum              "C4 F20 N4 O4 S4"
_cell_length_a       4.71874
_cell_length_b       8.7171
_cell_length_c       9.60462
_cell_angle_alpha    74.9288
_cell_angle_beta     84.6839
_cell_angle_gamma    84.6607

_space_group_name_H-M_alt    "P 1"
_space_group_IT_number       1

loop_
  _space_group_symop_operation_xyz
  'x, y, z'

loop_
  _atom_site_type_symbol
  _atom_site_label
  _atom_site_symmetry_multiplicity
  _atom_site_fract_x
  _atom_site_fract_y
  _atom_site_fract_z
  _atom_site_occupancy
  C   C1        1.0  0.29400  0.61200  0.09630  1.0000
  C   C2        1.0  0.22000  0.06120  0.09860  1.0000
  C   C3        1.0  0.78000  0.93900  0.90100  1.0000
  C   C4        1.0  0.70600  0.38800  0.90400  1.0000
  F   F1        1.0  0.80400  0.35000  0.19100  1.0000
  F   F2        1.0  0.26800  0.30700  0.24100  1.0000
  F   F3        1.0  0.80400  0.82800  0.25900  1.0000
  F   F4        1.0  0.66600  0.06100  0.31300  1.0000
  F   F5        1.0  0.35500  0.74900  0.32000  1.0000
  F   F6        1.0  0.72400  0.50800  0.34300  1.0000
  F   F7        1.0  0.21500  0.98300  0.37500  1.0000
  F   F8        1.0  0.18700  0.46900  0.39300  1.0000
  F   F9        1.0  0.92500  0.26300  0.41900  1.0000
  F   F10       1.0  0.58900  0.83100  0.47500  1.0000
  F   F11       1.0  0.41100  0.16900  0.52500  1.0000
  F   F12       1.0  0.07550  0.73700  0.58100  1.0000
  F   F13       1.0  0.81300  0.53100  0.60700  1.0000
  F   F14       1.0  0.78500  0.01690  0.62500  1.0000
  F   F15       1.0  0.27600  0.49200  0.65700  1.0000
  F   F16       1.0  0.64500  0.25100  0.68000  1.0000
  F   F17       1.0  0.33400  0.93900  0.68700  1.0000
  F   F18       1.0  0.19600  0.17200  0.74100  1.0000
  F   F19       1.0  0.73200  0.69300  0.75900  1.0000
  F   F20       1.0  0.19600  0.65000  0.80900  1.0000
  N   N1        1.0  0.43700  0.98200  0.14200  1.0000
  N   N2        1.0  0.06070  0.57000  0.15100  1.0000
  N   N3        1.0  0.93900  0.43000  0.84900  1.0000
  N   N4        1.0  0.56300  0.01810  0.85800  1.0000
  O   O1        1.0  0.50200  0.66500  0.03440  1.0000
  O   O2        1.0  0.02340  0.13600  0.04360  1.0000
  O   O3        1.0  0.97700  0.86400  0.95600  1.0000
  O   O4        1.0  0.49800  0.33500  0.96600  1.0000
  S   S1        1.0  0.99700  0.41300  0.28900  1.0000
  S   S2        1.0  0.50900  0.90700  0.31300  1.0000
  S   S3        1.0  0.49100  0.09330  0.68700  1.0000
  S   S4        1.0  0.00316  0.58700  0.71100  1.0000
