data_image0
_chemical_formula_structural       Cd12K8Se16
_chemical_formula_sum              "Cd12 K8 Se16"
_cell_length_a       14.3641
_cell_length_b       10.7237
_cell_length_c       6.92211
_cell_angle_alpha    90
_cell_angle_beta     90
_cell_angle_gamma    90

_space_group_name_H-M_alt    "P 1"
_space_group_IT_number       1

loop_
  _space_group_symop_operation_xyz
  'x, y, z'

loop_
  _atom_site_type_symbol
  _atom_site_label
  _atom_site_symmetry_multiplicity
  _atom_site_fract_x
  _atom_site_fract_y
  _atom_site_fract_z
  _atom_site_occupancy
  Cd  Cd1       1.0  0.75400  0.59400  0.16400  1.0000
  Cd  Cd2       1.0  0.75400  0.90600  0.16400  1.0000
  Cd  Cd3       1.0  0.79700  0.25000  0.22800  1.0000
  Cd  Cd4       1.0  0.29700  0.25000  0.27200  1.0000
  Cd  Cd5       1.0  0.25400  0.59400  0.33600  1.0000
  Cd  Cd6       1.0  0.25400  0.90600  0.33600  1.0000
  Cd  Cd7       1.0  0.74600  0.09380  0.66400  1.0000
  Cd  Cd8       1.0  0.74600  0.40600  0.66400  1.0000
  Cd  Cd9       1.0  0.70300  0.75000  0.72800  1.0000
  Cd  Cd10      1.0  0.20300  0.75000  0.77200  1.0000
  Cd  Cd11      1.0  0.24600  0.09380  0.83600  1.0000
  Cd  Cd12      1.0  0.24600  0.40600  0.83600  1.0000
  K   K1        1.0  0.00000  0.00000  0.00000  1.0000
  K   K2        1.0  0.00000  0.50000  0.00000  1.0000
  K   K3        1.0  0.46700  0.75000  0.02050  1.0000
  K   K4        1.0  0.96700  0.75000  0.48000  1.0000
  K   K5        1.0  0.50000  0.00000  0.50000  1.0000
  K   K6        1.0  0.50000  0.50000  0.50000  1.0000
  K   K7        1.0  0.03350  0.25000  0.52000  1.0000
  K   K8        1.0  0.53300  0.25000  0.98000  1.0000
  Se  Se1       1.0  0.13700  0.25000  0.06990  1.0000
  Se  Se2       1.0  0.36900  0.03190  0.11200  1.0000
  Se  Se3       1.0  0.36900  0.46800  0.11200  1.0000
  Se  Se4       1.0  0.14200  0.75000  0.13000  1.0000
  Se  Se5       1.0  0.64200  0.75000  0.37000  1.0000
  Se  Se6       1.0  0.86900  0.03190  0.38800  1.0000
  Se  Se7       1.0  0.86900  0.46800  0.38800  1.0000
  Se  Se8       1.0  0.63700  0.25000  0.43000  1.0000
  Se  Se9       1.0  0.36300  0.75000  0.57000  1.0000
  Se  Se10      1.0  0.13100  0.53200  0.61200  1.0000
  Se  Se11      1.0  0.13100  0.96800  0.61200  1.0000
  Se  Se12      1.0  0.35800  0.25000  0.63000  1.0000
  Se  Se13      1.0  0.85800  0.25000  0.87000  1.0000
  Se  Se14      1.0  0.63100  0.53200  0.88800  1.0000
  Se  Se15      1.0  0.63100  0.96800  0.88800  1.0000
  Se  Se16      1.0  0.86300  0.75000  0.93000  1.0000
