data_image0
_chemical_formula_structural       B16Ru16Sc4
_chemical_formula_sum              "B16 Ru16 Sc4"
_cell_length_a       9.12749
_cell_length_b       7.38567
_cell_length_c       7.38567
_cell_angle_alpha    90
_cell_angle_beta     113.865
_cell_angle_gamma    113.865

_space_group_name_H-M_alt    "P 1"
_space_group_IT_number       1

loop_
  _space_group_symop_operation_xyz
  'x, y, z'

loop_
  _atom_site_type_symbol
  _atom_site_label
  _atom_site_symmetry_multiplicity
  _atom_site_fract_x
  _atom_site_fract_y
  _atom_site_fract_z
  _atom_site_occupancy
  B   B1        1.0  0.91300  0.28700  0.07070  1.0000
  B   B2        1.0  0.41300  0.57100  0.12600  1.0000
  B   B3        1.0  0.08710  0.21300  0.15800  1.0000
  B   B4        1.0  0.58700  0.15800  0.21300  1.0000
  B   B5        1.0  0.41300  0.07070  0.28700  1.0000
  B   B6        1.0  0.91300  0.62600  0.34200  1.0000
  B   B7        1.0  0.58700  0.65800  0.37400  1.0000
  B   B8        1.0  0.08710  0.87400  0.42900  1.0000
  B   B9        1.0  0.91300  0.12600  0.57100  1.0000
  B   B10       1.0  0.41300  0.34200  0.62600  1.0000
  B   B11       1.0  0.08710  0.37400  0.65800  1.0000
  B   B12       1.0  0.58700  0.92900  0.71300  1.0000
  B   B13       1.0  0.41300  0.84200  0.78700  1.0000
  B   B14       1.0  0.91300  0.78700  0.84200  1.0000
  B   B15       1.0  0.58700  0.42900  0.87400  1.0000
  B   B16       1.0  0.08710  0.71300  0.92900  1.0000
  Ru  Ru1       1.0  0.87300  0.55100  0.03280  1.0000
  Ru  Ru2       1.0  0.37300  0.84000  0.05130  1.0000
  Ru  Ru3       1.0  0.12700  0.94900  0.16000  1.0000
  Ru  Ru4       1.0  0.62700  0.46700  0.17800  1.0000
  Ru  Ru5       1.0  0.37300  0.34000  0.32200  1.0000
  Ru  Ru6       1.0  0.87300  0.32200  0.34000  1.0000
  Ru  Ru7       1.0  0.62700  0.96700  0.44900  1.0000
  Ru  Ru8       1.0  0.12700  0.17800  0.46700  1.0000
  Ru  Ru9       1.0  0.87300  0.82200  0.53300  1.0000
  Ru  Ru10      1.0  0.37300  0.03280  0.55100  1.0000
  Ru  Ru11      1.0  0.12700  0.67800  0.66000  1.0000
  Ru  Ru12      1.0  0.62700  0.66000  0.67800  1.0000
  Ru  Ru13      1.0  0.37300  0.53300  0.82200  1.0000
  Ru  Ru14      1.0  0.87300  0.05130  0.84000  1.0000
  Ru  Ru15      1.0  0.62700  0.16000  0.94900  1.0000
  Ru  Ru16      1.0  0.12700  0.44900  0.96700  1.0000
  Sc  Sc1       1.0  0.75000  0.87500  0.12500  1.0000
  Sc  Sc2       1.0  0.25000  0.62500  0.37500  1.0000
  Sc  Sc3       1.0  0.75000  0.37500  0.62500  1.0000
  Sc  Sc4       1.0  0.25000  0.12500  0.87500  1.0000
