data_image0
_chemical_formula_structural       Cl2Np2O20Rb8S4
_chemical_formula_sum              "Cl2 Np2 O20 Rb8 S4"
_cell_length_a       10.3632
_cell_length_b       4.59469
_cell_length_c       14.6499
_cell_angle_alpha    90
_cell_angle_beta     102.851
_cell_angle_gamma    90

_space_group_name_H-M_alt    "P 1"
_space_group_IT_number       1

loop_
  _space_group_symop_operation_xyz
  'x, y, z'

loop_
  _atom_site_type_symbol
  _atom_site_label
  _atom_site_symmetry_multiplicity
  _atom_site_fract_x
  _atom_site_fract_y
  _atom_site_fract_z
  _atom_site_occupancy
  Cl  Cl1       1.0  0.75000  0.73200  0.25000  1.0000
  Cl  Cl2       1.0  0.25000  0.26800  0.75000  1.0000
  Np  Np1       1.0  0.25000  0.25900  0.25000  1.0000
  Np  Np2       1.0  0.75000  0.74100  0.75000  1.0000
  O   O1        1.0  0.83400  0.25400  0.00691  1.0000
  O   O2        1.0  0.40500  0.74600  0.05870  1.0000
  O   O3        1.0  0.27000  0.33000  0.08260  1.0000
  O   O4        1.0  0.25000  0.76900  0.16400  1.0000
  O   O5        1.0  0.06800  0.26000  0.21600  1.0000
  O   O6        1.0  0.43200  0.26000  0.28400  1.0000
  O   O7        1.0  0.25000  0.76900  0.33600  1.0000
  O   O8        1.0  0.23000  0.33000  0.41700  1.0000
  O   O9        1.0  0.09480  0.74600  0.44100  1.0000
  O   O10       1.0  0.66600  0.25400  0.49300  1.0000
  O   O11       1.0  0.33400  0.74600  0.50700  1.0000
  O   O12       1.0  0.90500  0.25400  0.55900  1.0000
  O   O13       1.0  0.77000  0.67000  0.58300  1.0000
  O   O14       1.0  0.75000  0.23100  0.66400  1.0000
  O   O15       1.0  0.56800  0.74000  0.71600  1.0000
  O   O16       1.0  0.93200  0.74000  0.78400  1.0000
  O   O17       1.0  0.75000  0.23100  0.83600  1.0000
  O   O18       1.0  0.73000  0.67000  0.91700  1.0000
  O   O19       1.0  0.59500  0.25400  0.94100  1.0000
  O   O20       1.0  0.16600  0.74600  0.99300  1.0000
  Rb  Rb1       1.0  0.94100  0.76300  0.10600  1.0000
  Rb  Rb2       1.0  0.57000  0.22900  0.13000  1.0000
  Rb  Rb3       1.0  0.93000  0.22900  0.37000  1.0000
  Rb  Rb4       1.0  0.55900  0.76300  0.39400  1.0000
  Rb  Rb5       1.0  0.44100  0.23700  0.60600  1.0000
  Rb  Rb6       1.0  0.07030  0.77100  0.63000  1.0000
  Rb  Rb7       1.0  0.43000  0.77100  0.87000  1.0000
  Rb  Rb8       1.0  0.05870  0.23700  0.89400  1.0000
  S   S1        1.0  0.27400  0.65500  0.07140  1.0000
  S   S2        1.0  0.22600  0.65500  0.42900  1.0000
  S   S3        1.0  0.77400  0.34500  0.57100  1.0000
  S   S4        1.0  0.72600  0.34500  0.92900  1.0000
