data_image0
_chemical_formula_structural       As12Hf24
_chemical_formula_sum              "As12 Hf24"
_cell_length_a       15.4228
_cell_length_b       12.4963
_cell_length_c       3.67356
_cell_angle_alpha    90
_cell_angle_beta     90
_cell_angle_gamma    90

_space_group_name_H-M_alt    "P 1"
_space_group_IT_number       1

loop_
  _space_group_symop_operation_xyz
  'x, y, z'

loop_
  _atom_site_type_symbol
  _atom_site_label
  _atom_site_symmetry_multiplicity
  _atom_site_fract_x
  _atom_site_fract_y
  _atom_site_fract_z
  _atom_site_occupancy
  As  As1       1.0  0.41400  0.24400  0.00000  1.0000
  As  As2       1.0  0.65100  0.31100  0.00000  1.0000
  As  As3       1.0  0.21200  0.43900  0.00000  1.0000
  As  As4       1.0  0.78800  0.56100  0.00000  1.0000
  As  As5       1.0  0.34900  0.68900  0.00000  1.0000
  As  As6       1.0  0.58600  0.75600  0.00000  1.0000
  As  As7       1.0  0.71200  0.06110  0.50000  1.0000
  As  As8       1.0  0.15100  0.18900  0.50000  1.0000
  As  As9       1.0  0.91400  0.25600  0.50000  1.0000
  As  As10      1.0  0.08570  0.74400  0.50000  1.0000
  As  As11      1.0  0.84900  0.81100  0.50000  1.0000
  As  As12      1.0  0.28800  0.93900  0.50000  1.0000
  Hf  Hf1       1.0  0.25700  0.09750  0.00000  1.0000
  Hf  Hf2       1.0  0.58100  0.11500  0.00000  1.0000
  Hf  Hf3       1.0  0.02300  0.15300  0.00000  1.0000
  Hf  Hf4       1.0  0.79500  0.18900  0.00000  1.0000
  Hf  Hf5       1.0  0.92600  0.41700  0.00000  1.0000
  Hf  Hf6       1.0  0.39500  0.47400  0.00000  1.0000
  Hf  Hf7       1.0  0.60500  0.52600  0.00000  1.0000
  Hf  Hf8       1.0  0.07450  0.58300  0.00000  1.0000
  Hf  Hf9       1.0  0.20500  0.81100  0.00000  1.0000
  Hf  Hf10      1.0  0.97700  0.84700  0.00000  1.0000
  Hf  Hf11      1.0  0.41900  0.88500  0.00000  1.0000
  Hf  Hf12      1.0  0.74300  0.90200  0.00000  1.0000
  Hf  Hf13      1.0  0.89500  0.02620  0.50000  1.0000
  Hf  Hf14      1.0  0.42600  0.08350  0.50000  1.0000
  Hf  Hf15      1.0  0.29500  0.31100  0.50000  1.0000
  Hf  Hf16      1.0  0.52300  0.34700  0.50000  1.0000
  Hf  Hf17      1.0  0.08110  0.38500  0.50000  1.0000
  Hf  Hf18      1.0  0.75700  0.40200  0.50000  1.0000
  Hf  Hf19      1.0  0.24300  0.59800  0.50000  1.0000
  Hf  Hf20      1.0  0.91900  0.61500  0.50000  1.0000
  Hf  Hf21      1.0  0.47700  0.65300  0.50000  1.0000
  Hf  Hf22      1.0  0.70500  0.68900  0.50000  1.0000
  Hf  Hf23      1.0  0.57400  0.91700  0.50000  1.0000
  Hf  Hf24      1.0  0.10500  0.97400  0.50000  1.0000
