data_image0
_chemical_formula_structural       Ge8Rb8Se20
_chemical_formula_sum              "Ge8 Rb8 Se20"
_cell_length_a       9.61791
_cell_length_b       11.7391
_cell_length_c       11.7391
_cell_angle_alpha    90.1047
_cell_angle_beta     99.9188
_cell_angle_gamma    99.9188

_space_group_name_H-M_alt    "P 1"
_space_group_IT_number       1

loop_
  _space_group_symop_operation_xyz
  'x, y, z'

loop_
  _atom_site_type_symbol
  _atom_site_label
  _atom_site_symmetry_multiplicity
  _atom_site_fract_x
  _atom_site_fract_y
  _atom_site_fract_z
  _atom_site_occupancy
  Ge  Ge1       1.0  0.38700  0.73000  0.13400  1.0000
  Ge  Ge2       1.0  0.09860  0.52900  0.26700  1.0000
  Ge  Ge3       1.0  0.11300  0.86600  0.27000  1.0000
  Ge  Ge4       1.0  0.40100  0.73300  0.47100  1.0000
  Ge  Ge5       1.0  0.59900  0.26700  0.52900  1.0000
  Ge  Ge6       1.0  0.88700  0.13400  0.73000  1.0000
  Ge  Ge7       1.0  0.90100  0.47100  0.73300  1.0000
  Ge  Ge8       1.0  0.61300  0.27000  0.86600  1.0000
  Rb  Rb1       1.0  0.11500  0.21200  0.05360  1.0000
  Rb  Rb2       1.0  0.61500  0.05360  0.21200  1.0000
  Rb  Rb3       1.0  0.61600  0.47300  0.21200  1.0000
  Rb  Rb4       1.0  0.11600  0.21200  0.47300  1.0000
  Rb  Rb5       1.0  0.88400  0.78800  0.52700  1.0000
  Rb  Rb6       1.0  0.38400  0.52700  0.78800  1.0000
  Rb  Rb7       1.0  0.38500  0.94600  0.78800  1.0000
  Rb  Rb8       1.0  0.88500  0.78800  0.94600  1.0000
  Se  Se1       1.0  0.47100  0.24600  0.00535  1.0000
  Se  Se2       1.0  0.23700  0.54300  0.11100  1.0000
  Se  Se3       1.0  0.25000  0.88600  0.11400  1.0000
  Se  Se4       1.0  0.94600  0.35400  0.24200  1.0000
  Se  Se5       1.0  0.95300  0.68000  0.24600  1.0000
  Se  Se6       1.0  0.97100  0.00535  0.24600  1.0000
  Se  Se7       1.0  0.54700  0.75400  0.32000  1.0000
  Se  Se8       1.0  0.44600  0.24200  0.35400  1.0000
  Se  Se9       1.0  0.25000  0.54500  0.45500  1.0000
  Se  Se10      1.0  0.26300  0.88900  0.45700  1.0000
  Se  Se11      1.0  0.73700  0.11100  0.54300  1.0000
  Se  Se12      1.0  0.75000  0.45500  0.54500  1.0000
  Se  Se13      1.0  0.55400  0.75800  0.64600  1.0000
  Se  Se14      1.0  0.45300  0.24600  0.68000  1.0000
  Se  Se15      1.0  0.02930  0.99500  0.75400  1.0000
  Se  Se16      1.0  0.04680  0.32000  0.75400  1.0000
  Se  Se17      1.0  0.05380  0.64600  0.75800  1.0000
  Se  Se18      1.0  0.75000  0.11400  0.88600  1.0000
  Se  Se19      1.0  0.76300  0.45700  0.88900  1.0000
  Se  Se20      1.0  0.52900  0.75400  0.99500  1.0000
