data_image0
_chemical_formula_structural       Cu4In4La8Se20
_chemical_formula_sum              "Cu4 In4 La8 Se20"
_cell_length_a       12.2163
_cell_length_b       4.13751
_cell_length_c       17.5898
_cell_angle_alpha    90
_cell_angle_beta     90
_cell_angle_gamma    90

_space_group_name_H-M_alt    "P 1"
_space_group_IT_number       1

loop_
  _space_group_symop_operation_xyz
  'x, y, z'

loop_
  _atom_site_type_symbol
  _atom_site_label
  _atom_site_symmetry_multiplicity
  _atom_site_fract_x
  _atom_site_fract_y
  _atom_site_fract_z
  _atom_site_occupancy
  Cu  Cu1       1.0  0.92400  0.75000  0.00211  1.0000
  Cu  Cu2       1.0  0.42400  0.75000  0.49800  1.0000
  Cu  Cu3       1.0  0.57600  0.25000  0.50200  1.0000
  Cu  Cu4       1.0  0.07590  0.25000  0.99800  1.0000
  In  In1       1.0  0.69100  0.25000  0.13900  1.0000
  In  In2       1.0  0.19100  0.25000  0.36100  1.0000
  In  In3       1.0  0.80900  0.75000  0.63900  1.0000
  In  In4       1.0  0.30900  0.75000  0.86100  1.0000
  La  La1       1.0  0.36300  0.75000  0.09270  1.0000
  La  La2       1.0  0.02210  0.75000  0.17900  1.0000
  La  La3       1.0  0.52200  0.75000  0.32100  1.0000
  La  La4       1.0  0.86300  0.75000  0.40700  1.0000
  La  La5       1.0  0.13700  0.25000  0.59300  1.0000
  La  La6       1.0  0.47800  0.25000  0.67900  1.0000
  La  La7       1.0  0.97800  0.25000  0.82100  1.0000
  La  La8       1.0  0.63700  0.25000  0.90700  1.0000
  Se  Se1       1.0  0.60800  0.75000  0.03690  1.0000
  Se  Se2       1.0  0.89900  0.25000  0.07690  1.0000
  Se  Se3       1.0  0.18200  0.25000  0.11400  1.0000
  Se  Se4       1.0  0.48300  0.25000  0.19400  1.0000
  Se  Se5       1.0  0.76000  0.75000  0.22900  1.0000
  Se  Se6       1.0  0.26000  0.75000  0.27100  1.0000
  Se  Se7       1.0  0.98300  0.25000  0.30600  1.0000
  Se  Se8       1.0  0.68200  0.25000  0.38600  1.0000
  Se  Se9       1.0  0.39900  0.25000  0.42300  1.0000
  Se  Se10      1.0  0.10800  0.75000  0.46300  1.0000
  Se  Se11      1.0  0.89200  0.25000  0.53700  1.0000
  Se  Se12      1.0  0.60100  0.75000  0.57700  1.0000
  Se  Se13      1.0  0.31800  0.75000  0.61400  1.0000
  Se  Se14      1.0  0.01660  0.75000  0.69400  1.0000
  Se  Se15      1.0  0.74000  0.25000  0.72900  1.0000
  Se  Se16      1.0  0.24000  0.25000  0.77100  1.0000
  Se  Se17      1.0  0.51700  0.75000  0.80600  1.0000
  Se  Se18      1.0  0.81800  0.75000  0.88600  1.0000
  Se  Se19      1.0  0.10100  0.75000  0.92300  1.0000
  Se  Se20      1.0  0.39200  0.25000  0.96300  1.0000
