data_image0
_chemical_formula_structural       B16Ru16Th4
_chemical_formula_sum              "B16 Ru16 Th4"
_cell_length_a       9.3024
_cell_length_b       7.56358
_cell_length_c       7.56358
_cell_angle_alpha    90
_cell_angle_beta     113.988
_cell_angle_gamma    113.988

_space_group_name_H-M_alt    "P 1"
_space_group_IT_number       1

loop_
  _space_group_symop_operation_xyz
  'x, y, z'

loop_
  _atom_site_type_symbol
  _atom_site_label
  _atom_site_symmetry_multiplicity
  _atom_site_fract_x
  _atom_site_fract_y
  _atom_site_fract_z
  _atom_site_occupancy
  B   B1        1.0  0.91500  0.29000  0.06160  1.0000
  B   B2        1.0  0.41500  0.56200  0.12500  1.0000
  B   B3        1.0  0.08500  0.21000  0.14700  1.0000
  B   B4        1.0  0.58500  0.14700  0.21000  1.0000
  B   B5        1.0  0.41500  0.06160  0.29000  1.0000
  B   B6        1.0  0.91500  0.62500  0.35300  1.0000
  B   B7        1.0  0.58500  0.64700  0.37500  1.0000
  B   B8        1.0  0.08500  0.87500  0.43800  1.0000
  B   B9        1.0  0.91500  0.12500  0.56200  1.0000
  B   B10       1.0  0.41500  0.35300  0.62500  1.0000
  B   B11       1.0  0.08500  0.37500  0.64700  1.0000
  B   B12       1.0  0.58500  0.93800  0.71000  1.0000
  B   B13       1.0  0.41500  0.85300  0.79000  1.0000
  B   B14       1.0  0.91500  0.79000  0.85300  1.0000
  B   B15       1.0  0.58500  0.43800  0.87500  1.0000
  B   B16       1.0  0.08500  0.71000  0.93800  1.0000
  Ru  Ru1       1.0  0.87300  0.55100  0.04100  1.0000
  Ru  Ru2       1.0  0.37300  0.83200  0.05100  1.0000
  Ru  Ru3       1.0  0.12700  0.94900  0.16800  1.0000
  Ru  Ru4       1.0  0.62700  0.45900  0.17800  1.0000
  Ru  Ru5       1.0  0.37300  0.33200  0.32200  1.0000
  Ru  Ru6       1.0  0.87300  0.32200  0.33200  1.0000
  Ru  Ru7       1.0  0.62700  0.95900  0.44900  1.0000
  Ru  Ru8       1.0  0.12700  0.17800  0.45900  1.0000
  Ru  Ru9       1.0  0.87300  0.82200  0.54100  1.0000
  Ru  Ru10      1.0  0.37300  0.04100  0.55100  1.0000
  Ru  Ru11      1.0  0.12700  0.67800  0.66800  1.0000
  Ru  Ru12      1.0  0.62700  0.66800  0.67800  1.0000
  Ru  Ru13      1.0  0.37300  0.54100  0.82200  1.0000
  Ru  Ru14      1.0  0.87300  0.05100  0.83200  1.0000
  Ru  Ru15      1.0  0.62700  0.16800  0.94900  1.0000
  Ru  Ru16      1.0  0.12700  0.44900  0.95900  1.0000
  Th  Th1       1.0  0.75000  0.87500  0.12500  1.0000
  Th  Th2       1.0  0.25000  0.62500  0.37500  1.0000
  Th  Th3       1.0  0.75000  0.37500  0.62500  1.0000
  Th  Th4       1.0  0.25000  0.12500  0.87500  1.0000
