data_image0
_chemical_formula_structural       B24Os4Tm8
_chemical_formula_sum              "B24 Os4 Tm8"
_cell_length_a       9.05992
_cell_length_b       11.4268
_cell_length_c       3.61345
_cell_angle_alpha    90
_cell_angle_beta     90
_cell_angle_gamma    90

_space_group_name_H-M_alt    "P 1"
_space_group_IT_number       1

loop_
  _space_group_symop_operation_xyz
  'x, y, z'

loop_
  _atom_site_type_symbol
  _atom_site_label
  _atom_site_symmetry_multiplicity
  _atom_site_fract_x
  _atom_site_fract_y
  _atom_site_fract_z
  _atom_site_occupancy
  B   B1        1.0  0.60800  0.02970  0.50000  1.0000
  B   B2        1.0  0.05330  0.06650  0.50000  1.0000
  B   B3        1.0  0.24800  0.07950  0.50000  1.0000
  B   B4        1.0  0.63100  0.18500  0.50000  1.0000
  B   B5        1.0  0.98200  0.21300  0.50000  1.0000
  B   B6        1.0  0.29100  0.23400  0.50000  1.0000
  B   B7        1.0  0.79100  0.26600  0.50000  1.0000
  B   B8        1.0  0.48200  0.28700  0.50000  1.0000
  B   B9        1.0  0.13100  0.31500  0.50000  1.0000
  B   B10       1.0  0.74800  0.42000  0.50000  1.0000
  B   B11       1.0  0.55300  0.43400  0.50000  1.0000
  B   B12       1.0  0.10800  0.47000  0.50000  1.0000
  B   B13       1.0  0.89200  0.53000  0.50000  1.0000
  B   B14       1.0  0.44700  0.56600  0.50000  1.0000
  B   B15       1.0  0.25200  0.58000  0.50000  1.0000
  B   B16       1.0  0.86900  0.68500  0.50000  1.0000
  B   B17       1.0  0.51800  0.71300  0.50000  1.0000
  B   B18       1.0  0.20900  0.73400  0.50000  1.0000
  B   B19       1.0  0.70900  0.76600  0.50000  1.0000
  B   B20       1.0  0.01820  0.78700  0.50000  1.0000
  B   B21       1.0  0.36900  0.81500  0.50000  1.0000
  B   B22       1.0  0.75200  0.92000  0.50000  1.0000
  B   B23       1.0  0.94700  0.93400  0.50000  1.0000
  B   B24       1.0  0.39200  0.97000  0.50000  1.0000
  Os  Os1       1.0  0.13700  0.17900  0.00000  1.0000
  Os  Os2       1.0  0.63700  0.32100  0.00000  1.0000
  Os  Os3       1.0  0.36300  0.67900  0.00000  1.0000
  Os  Os4       1.0  0.86300  0.82100  0.00000  1.0000
  Tm  Tm1       1.0  0.82100  0.08610  0.00000  1.0000
  Tm  Tm2       1.0  0.44400  0.12700  0.00000  1.0000
  Tm  Tm3       1.0  0.94400  0.37300  0.00000  1.0000
  Tm  Tm4       1.0  0.32100  0.41400  0.00000  1.0000
  Tm  Tm5       1.0  0.67900  0.58600  0.00000  1.0000
  Tm  Tm6       1.0  0.05620  0.62700  0.00000  1.0000
  Tm  Tm7       1.0  0.55600  0.87300  0.00000  1.0000
  Tm  Tm8       1.0  0.17900  0.91400  0.00000  1.0000
