data_image0
_chemical_formula_structural       B24Pu8Ru4
_chemical_formula_sum              "B24 Pu8 Ru4"
_cell_length_a       9.36179
_cell_length_b       11.4258
_cell_length_c       3.5808
_cell_angle_alpha    90
_cell_angle_beta     90
_cell_angle_gamma    90

_space_group_name_H-M_alt    "P 1"
_space_group_IT_number       1

loop_
  _space_group_symop_operation_xyz
  'x, y, z'

loop_
  _atom_site_type_symbol
  _atom_site_label
  _atom_site_symmetry_multiplicity
  _atom_site_fract_x
  _atom_site_fract_y
  _atom_site_fract_z
  _atom_site_occupancy
  B   B1        1.0  0.64400  0.04070  0.50000  1.0000
  B   B2        1.0  0.05220  0.06840  0.50000  1.0000
  B   B3        1.0  0.24400  0.07620  0.50000  1.0000
  B   B4        1.0  0.64500  0.18900  0.50000  1.0000
  B   B5        1.0  0.98900  0.21800  0.50000  1.0000
  B   B6        1.0  0.30300  0.22600  0.50000  1.0000
  B   B7        1.0  0.80300  0.27400  0.50000  1.0000
  B   B8        1.0  0.48900  0.28200  0.50000  1.0000
  B   B9        1.0  0.14500  0.31100  0.50000  1.0000
  B   B10       1.0  0.74400  0.42400  0.50000  1.0000
  B   B11       1.0  0.55200  0.43200  0.50000  1.0000
  B   B12       1.0  0.14400  0.45900  0.50000  1.0000
  B   B13       1.0  0.85600  0.54100  0.50000  1.0000
  B   B14       1.0  0.44800  0.56800  0.50000  1.0000
  B   B15       1.0  0.25600  0.57600  0.50000  1.0000
  B   B16       1.0  0.85500  0.68900  0.50000  1.0000
  B   B17       1.0  0.51100  0.71800  0.50000  1.0000
  B   B18       1.0  0.19700  0.72600  0.50000  1.0000
  B   B19       1.0  0.69700  0.77400  0.50000  1.0000
  B   B20       1.0  0.01080  0.78200  0.50000  1.0000
  B   B21       1.0  0.35500  0.81100  0.50000  1.0000
  B   B22       1.0  0.75600  0.92400  0.50000  1.0000
  B   B23       1.0  0.94800  0.93200  0.50000  1.0000
  B   B24       1.0  0.35600  0.95900  0.50000  1.0000
  Pu  Pu1       1.0  0.83700  0.09300  0.00000  1.0000
  Pu  Pu2       1.0  0.45500  0.10800  0.00000  1.0000
  Pu  Pu3       1.0  0.95500  0.39200  0.00000  1.0000
  Pu  Pu4       1.0  0.33700  0.40700  0.00000  1.0000
  Pu  Pu5       1.0  0.66300  0.59300  0.00000  1.0000
  Pu  Pu6       1.0  0.04490  0.60800  0.00000  1.0000
  Pu  Pu7       1.0  0.54500  0.89200  0.00000  1.0000
  Pu  Pu8       1.0  0.16300  0.90700  0.00000  1.0000
  Ru  Ru1       1.0  0.14500  0.17900  0.00000  1.0000
  Ru  Ru2       1.0  0.64500  0.32100  0.00000  1.0000
  Ru  Ru3       1.0  0.35500  0.67900  0.00000  1.0000
  Ru  Ru4       1.0  0.85500  0.82100  0.00000  1.0000
