data_image0
_chemical_formula_structural       Cl16H8N4O4Re4
_chemical_formula_sum              "Cl16 H8 N4 O4 Re4"
_cell_length_a       10.9679
_cell_length_b       11.1521
_cell_length_c       5.4955
_cell_angle_alpha    90
_cell_angle_beta     90
_cell_angle_gamma    90

_space_group_name_H-M_alt    "P 1"
_space_group_IT_number       1

loop_
  _space_group_symop_operation_xyz
  'x, y, z'

loop_
  _atom_site_type_symbol
  _atom_site_label
  _atom_site_symmetry_multiplicity
  _atom_site_fract_x
  _atom_site_fract_y
  _atom_site_fract_z
  _atom_site_occupancy
  Cl  Cl1       1.0  0.23100  0.10300  0.13500  1.0000
  Cl  Cl2       1.0  0.23100  0.39700  0.13500  1.0000
  Cl  Cl3       1.0  0.47900  0.60600  0.22600  1.0000
  Cl  Cl4       1.0  0.47900  0.89400  0.22600  1.0000
  Cl  Cl5       1.0  0.97900  0.60600  0.27400  1.0000
  Cl  Cl6       1.0  0.97900  0.89400  0.27400  1.0000
  Cl  Cl7       1.0  0.73100  0.10300  0.36500  1.0000
  Cl  Cl8       1.0  0.73100  0.39700  0.36500  1.0000
  Cl  Cl9       1.0  0.26900  0.60300  0.63500  1.0000
  Cl  Cl10      1.0  0.26900  0.89700  0.63500  1.0000
  Cl  Cl11      1.0  0.02090  0.10600  0.72600  1.0000
  Cl  Cl12      1.0  0.02090  0.39400  0.72600  1.0000
  Cl  Cl13      1.0  0.52100  0.10600  0.77400  1.0000
  Cl  Cl14      1.0  0.52100  0.39400  0.77400  1.0000
  Cl  Cl15      1.0  0.76900  0.60300  0.86500  1.0000
  Cl  Cl16      1.0  0.76900  0.89700  0.86500  1.0000
  H   H1        1.0  0.49700  0.18000  0.18800  1.0000
  H   H2        1.0  0.49700  0.32000  0.18800  1.0000
  H   H3        1.0  0.99700  0.18000  0.31200  1.0000
  H   H4        1.0  0.99700  0.32000  0.31200  1.0000
  H   H5        1.0  0.00281  0.68000  0.68800  1.0000
  H   H6        1.0  0.00281  0.82000  0.68800  1.0000
  H   H7        1.0  0.50300  0.68000  0.81200  1.0000
  H   H8        1.0  0.50300  0.82000  0.81200  1.0000
  N   N1        1.0  0.24200  0.75000  0.17000  1.0000
  N   N2        1.0  0.74200  0.75000  0.33000  1.0000
  N   N3        1.0  0.25800  0.25000  0.67000  1.0000
  N   N4        1.0  0.75800  0.25000  0.83000  1.0000
  O   O1        1.0  0.99400  0.25000  0.20300  1.0000
  O   O2        1.0  0.49400  0.25000  0.29700  1.0000
  O   O3        1.0  0.50600  0.75000  0.70300  1.0000
  O   O4        1.0  0.00575  0.75000  0.79700  1.0000
  Re  Re1       1.0  0.84800  0.75000  0.10900  1.0000
  Re  Re2       1.0  0.34800  0.75000  0.39100  1.0000
  Re  Re3       1.0  0.65200  0.25000  0.60900  1.0000
  Re  Re4       1.0  0.15200  0.25000  0.89100  1.0000
