data_image0
_chemical_formula_structural       B6Cl2Eu10O18
_chemical_formula_sum              "B6 Cl2 Eu10 O18"
_cell_length_a       7.15809
_cell_length_b       8.37086
_cell_length_c       8.37086
_cell_angle_alpha    108.941
_cell_angle_beta     90
_cell_angle_gamma    90

_space_group_name_H-M_alt    "P 1"
_space_group_IT_number       1

loop_
  _space_group_symop_operation_xyz
  'x, y, z'

loop_
  _atom_site_type_symbol
  _atom_site_label
  _atom_site_symmetry_multiplicity
  _atom_site_fract_x
  _atom_site_fract_y
  _atom_site_fract_z
  _atom_site_occupancy
  B   B1        1.0  0.52900  0.58900  0.01500  1.0000
  B   B2        1.0  0.50000  0.37000  0.37000  1.0000
  B   B3        1.0  0.97100  0.98500  0.41100  1.0000
  B   B4        1.0  0.47100  0.01500  0.58900  1.0000
  B   B5        1.0  0.00000  0.63000  0.63000  1.0000
  B   B6        1.0  0.02920  0.41100  0.98500  1.0000
  Cl  Cl1       1.0  0.25000  0.94600  0.05400  1.0000
  Cl  Cl2       1.0  0.75000  0.05400  0.94600  1.0000
  Eu  Eu1       1.0  0.43700  0.26000  0.00656  1.0000
  Eu  Eu2       1.0  0.00000  0.23900  0.23900  1.0000
  Eu  Eu3       1.0  0.56300  0.00656  0.26000  1.0000
  Eu  Eu4       1.0  0.75000  0.63700  0.36300  1.0000
  Eu  Eu5       1.0  0.25000  0.63200  0.36800  1.0000
  Eu  Eu6       1.0  0.75000  0.36800  0.63200  1.0000
  Eu  Eu7       1.0  0.25000  0.36300  0.63700  1.0000
  Eu  Eu8       1.0  0.06350  0.99300  0.74000  1.0000
  Eu  Eu9       1.0  0.50000  0.76100  0.76100  1.0000
  Eu  Eu10      1.0  0.93700  0.74000  0.99300  1.0000
  O   O1        1.0  0.61800  0.73900  0.02930  1.0000
  O   O2        1.0  0.98900  0.52600  0.14400  1.0000
  O   O3        1.0  0.48500  0.55100  0.15900  1.0000
  O   O4        1.0  0.88200  0.97100  0.26100  1.0000
  O   O5        1.0  0.66900  0.30300  0.30200  1.0000
  O   O6        1.0  0.33100  0.30200  0.30300  1.0000
  O   O7        1.0  0.01500  0.84100  0.44900  1.0000
  O   O8        1.0  0.51100  0.85600  0.47400  1.0000
  O   O9        1.0  0.00000  0.48700  0.48700  1.0000
  O   O10       1.0  0.50000  0.51300  0.51300  1.0000
  O   O11       1.0  0.01120  0.14400  0.52600  1.0000
  O   O12       1.0  0.51500  0.15900  0.55100  1.0000
  O   O13       1.0  0.83100  0.69800  0.69700  1.0000
  O   O14       1.0  0.16900  0.69700  0.69800  1.0000
  O   O15       1.0  0.38200  0.02930  0.73900  1.0000
  O   O16       1.0  0.98500  0.44900  0.84100  1.0000
  O   O17       1.0  0.48900  0.47400  0.85600  1.0000
  O   O18       1.0  0.11800  0.26100  0.97100  1.0000
