data_image0
_chemical_formula_structural       B24Re4Tm8
_chemical_formula_sum              "B24 Re4 Tm8"
_cell_length_a       9.0964
_cell_length_b       11.4472
_cell_length_c       3.63384
_cell_angle_alpha    90
_cell_angle_beta     90
_cell_angle_gamma    90

_space_group_name_H-M_alt    "P 1"
_space_group_IT_number       1

loop_
  _space_group_symop_operation_xyz
  'x, y, z'

loop_
  _atom_site_type_symbol
  _atom_site_label
  _atom_site_symmetry_multiplicity
  _atom_site_fract_x
  _atom_site_fract_y
  _atom_site_fract_z
  _atom_site_occupancy
  B   B1        1.0  0.60000  0.02780  0.50000  1.0000
  B   B2        1.0  0.05310  0.06650  0.50000  1.0000
  B   B3        1.0  0.25000  0.08070  0.50000  1.0000
  B   B4        1.0  0.63100  0.18500  0.50000  1.0000
  B   B5        1.0  0.98200  0.21200  0.50000  1.0000
  B   B6        1.0  0.29300  0.23500  0.50000  1.0000
  B   B7        1.0  0.79300  0.26500  0.50000  1.0000
  B   B8        1.0  0.48200  0.28800  0.50000  1.0000
  B   B9        1.0  0.13100  0.31500  0.50000  1.0000
  B   B10       1.0  0.75000  0.41900  0.50000  1.0000
  B   B11       1.0  0.55300  0.43400  0.50000  1.0000
  B   B12       1.0  0.09970  0.47200  0.50000  1.0000
  B   B13       1.0  0.90000  0.52800  0.50000  1.0000
  B   B14       1.0  0.44700  0.56600  0.50000  1.0000
  B   B15       1.0  0.25000  0.58100  0.50000  1.0000
  B   B16       1.0  0.86900  0.68500  0.50000  1.0000
  B   B17       1.0  0.51800  0.71200  0.50000  1.0000
  B   B18       1.0  0.20700  0.73500  0.50000  1.0000
  B   B19       1.0  0.70700  0.76500  0.50000  1.0000
  B   B20       1.0  0.01840  0.78800  0.50000  1.0000
  B   B21       1.0  0.36900  0.81500  0.50000  1.0000
  B   B22       1.0  0.75000  0.91900  0.50000  1.0000
  B   B23       1.0  0.94700  0.93400  0.50000  1.0000
  B   B24       1.0  0.40000  0.97200  0.50000  1.0000
  Re  Re1       1.0  0.13900  0.17900  0.00000  1.0000
  Re  Re2       1.0  0.63900  0.32100  0.00000  1.0000
  Re  Re3       1.0  0.36100  0.67900  0.00000  1.0000
  Re  Re4       1.0  0.86100  0.82100  0.00000  1.0000
  Tm  Tm1       1.0  0.82300  0.08610  0.00000  1.0000
  Tm  Tm2       1.0  0.44300  0.13000  0.00000  1.0000
  Tm  Tm3       1.0  0.94300  0.37000  0.00000  1.0000
  Tm  Tm4       1.0  0.32300  0.41400  0.00000  1.0000
  Tm  Tm5       1.0  0.67700  0.58600  0.00000  1.0000
  Tm  Tm6       1.0  0.05680  0.63000  0.00000  1.0000
  Tm  Tm7       1.0  0.55700  0.87000  0.00000  1.0000
  Tm  Tm8       1.0  0.17700  0.91400  0.00000  1.0000
