data_image0
_chemical_formula_structural       B24Pu8Re4
_chemical_formula_sum              "B24 Pu8 Re4"
_cell_length_a       9.29764
_cell_length_b       11.4113
_cell_length_c       3.63996
_cell_angle_alpha    90
_cell_angle_beta     90
_cell_angle_gamma    90

_space_group_name_H-M_alt    "P 1"
_space_group_IT_number       1

loop_
  _space_group_symop_operation_xyz
  'x, y, z'

loop_
  _atom_site_type_symbol
  _atom_site_label
  _atom_site_symmetry_multiplicity
  _atom_site_fract_x
  _atom_site_fract_y
  _atom_site_fract_z
  _atom_site_occupancy
  B   B1        1.0  0.64000  0.03860  0.50000  1.0000
  B   B2        1.0  0.05220  0.06810  0.50000  1.0000
  B   B3        1.0  0.24400  0.07710  0.50000  1.0000
  B   B4        1.0  0.64300  0.18800  0.50000  1.0000
  B   B5        1.0  0.98700  0.21800  0.50000  1.0000
  B   B6        1.0  0.30200  0.22800  0.50000  1.0000
  B   B7        1.0  0.80200  0.27200  0.50000  1.0000
  B   B8        1.0  0.48700  0.28200  0.50000  1.0000
  B   B9        1.0  0.14300  0.31200  0.50000  1.0000
  B   B10       1.0  0.74400  0.42300  0.50000  1.0000
  B   B11       1.0  0.55200  0.43200  0.50000  1.0000
  B   B12       1.0  0.14000  0.46100  0.50000  1.0000
  B   B13       1.0  0.86000  0.53900  0.50000  1.0000
  B   B14       1.0  0.44800  0.56800  0.50000  1.0000
  B   B15       1.0  0.25600  0.57700  0.50000  1.0000
  B   B16       1.0  0.85700  0.68800  0.50000  1.0000
  B   B17       1.0  0.51300  0.71800  0.50000  1.0000
  B   B18       1.0  0.19800  0.72800  0.50000  1.0000
  B   B19       1.0  0.69800  0.77200  0.50000  1.0000
  B   B20       1.0  0.01260  0.78200  0.50000  1.0000
  B   B21       1.0  0.35700  0.81200  0.50000  1.0000
  B   B22       1.0  0.75600  0.92300  0.50000  1.0000
  B   B23       1.0  0.94800  0.93200  0.50000  1.0000
  B   B24       1.0  0.36000  0.96100  0.50000  1.0000
  Pu  Pu1       1.0  0.83500  0.09190  0.00000  1.0000
  Pu  Pu2       1.0  0.45400  0.10900  0.00000  1.0000
  Pu  Pu3       1.0  0.95400  0.39100  0.00000  1.0000
  Pu  Pu4       1.0  0.33500  0.40800  0.00000  1.0000
  Pu  Pu5       1.0  0.66500  0.59200  0.00000  1.0000
  Pu  Pu6       1.0  0.04600  0.60900  0.00000  1.0000
  Pu  Pu7       1.0  0.54600  0.89100  0.00000  1.0000
  Pu  Pu8       1.0  0.16500  0.90800  0.00000  1.0000
  Re  Re1       1.0  0.14500  0.18000  0.00000  1.0000
  Re  Re2       1.0  0.64500  0.32000  0.00000  1.0000
  Re  Re3       1.0  0.35500  0.68000  0.00000  1.0000
  Re  Re4       1.0  0.85500  0.82000  0.00000  1.0000
