data_image0
_chemical_formula_structural       B2Ca2H6Ni2O20P4
_chemical_formula_sum              "B2 Ca2 H6 Ni2 O20 P4"
_cell_length_a       6.54827
_cell_length_b       6.54827
_cell_length_c       9.10104
_cell_angle_alpha    110.052
_cell_angle_beta     69.9477
_cell_angle_gamma    102.275

_space_group_name_H-M_alt    "P 1"
_space_group_IT_number       1

loop_
  _space_group_symop_operation_xyz
  'x, y, z'

loop_
  _atom_site_type_symbol
  _atom_site_label
  _atom_site_symmetry_multiplicity
  _atom_site_fract_x
  _atom_site_fract_y
  _atom_site_fract_z
  _atom_site_occupancy
  B   B1        1.0  0.52700  0.52700  0.25000  1.0000
  B   B2        1.0  0.47300  0.47300  0.75000  1.0000
  Ca  Ca1       1.0  0.13100  0.13100  0.25000  1.0000
  Ca  Ca2       1.0  0.86900  0.86900  0.75000  1.0000
  H   H1        1.0  0.50000  0.00000  0.00000  1.0000
  H   H2        1.0  0.66000  0.69200  0.07880  1.0000
  H   H3        1.0  0.69200  0.66000  0.42100  1.0000
  H   H4        1.0  0.00000  0.50000  0.50000  1.0000
  H   H5        1.0  0.30800  0.34000  0.57900  1.0000
  H   H6        1.0  0.34000  0.30800  0.92100  1.0000
  Ni  Ni1       1.0  0.00000  0.50000  0.00000  1.0000
  Ni  Ni2       1.0  0.50000  0.00000  0.50000  1.0000
  O   O1        1.0  0.64900  0.95800  0.03070  1.0000
  O   O2        1.0  0.67700  0.55900  0.09790  1.0000
  O   O3        1.0  0.94300  0.26600  0.11100  1.0000
  O   O4        1.0  0.05880  0.73700  0.19800  1.0000
  O   O5        1.0  0.52700  0.29600  0.24400  1.0000
  O   O6        1.0  0.29600  0.52700  0.25600  1.0000
  O   O7        1.0  0.73700  0.05880  0.30200  1.0000
  O   O8        1.0  0.26600  0.94300  0.38900  1.0000
  O   O9        1.0  0.55900  0.67700  0.40200  1.0000
  O   O10       1.0  0.95800  0.64900  0.46900  1.0000
  O   O11       1.0  0.04210  0.35100  0.53100  1.0000
  O   O12       1.0  0.44100  0.32300  0.59800  1.0000
  O   O13       1.0  0.73400  0.05670  0.61100  1.0000
  O   O14       1.0  0.26300  0.94100  0.69800  1.0000
  O   O15       1.0  0.70400  0.47300  0.74400  1.0000
  O   O16       1.0  0.47300  0.70400  0.75600  1.0000
  O   O17       1.0  0.94100  0.26300  0.80200  1.0000
  O   O18       1.0  0.05670  0.73400  0.88900  1.0000
  O   O19       1.0  0.32300  0.44100  0.90200  1.0000
  O   O20       1.0  0.35100  0.04210  0.96900  1.0000
  P   P1        1.0  0.71800  0.14800  0.17400  1.0000
  P   P2        1.0  0.14800  0.71800  0.32600  1.0000
  P   P3        1.0  0.85200  0.28200  0.67400  1.0000
  P   P4        1.0  0.28200  0.85200  0.82600  1.0000
