data_image0
_chemical_formula_structural       Cr12Sc8Si16
_chemical_formula_sum              "Cr12 Sc8 Si16"
_cell_length_a       6.50945
_cell_length_b       6.50945
_cell_length_c       12.0452
_cell_angle_alpha    90
_cell_angle_beta     90
_cell_angle_gamma    90

_space_group_name_H-M_alt    "P 1"
_space_group_IT_number       1

loop_
  _space_group_symop_operation_xyz
  'x, y, z'

loop_
  _atom_site_type_symbol
  _atom_site_label
  _atom_site_symmetry_multiplicity
  _atom_site_fract_x
  _atom_site_fract_y
  _atom_site_fract_z
  _atom_site_occupancy
  Cr  Cr1       1.0  0.33300  0.33300  0.00000  1.0000
  Cr  Cr2       1.0  0.50300  0.66700  0.12400  1.0000
  Cr  Cr3       1.0  0.99700  0.16700  0.12600  1.0000
  Cr  Cr4       1.0  0.16700  0.83300  0.25000  1.0000
  Cr  Cr5       1.0  0.83300  0.00322  0.37400  1.0000
  Cr  Cr6       1.0  0.33300  0.49700  0.37600  1.0000
  Cr  Cr7       1.0  0.66700  0.66700  0.50000  1.0000
  Cr  Cr8       1.0  0.49700  0.33300  0.62400  1.0000
  Cr  Cr9       1.0  0.00322  0.83300  0.62600  1.0000
  Cr  Cr10      1.0  0.83300  0.16700  0.75000  1.0000
  Cr  Cr11      1.0  0.16700  0.99700  0.87400  1.0000
  Cr  Cr12      1.0  0.66700  0.50300  0.87600  1.0000
  Sc  Sc1       1.0  0.00147  0.66300  0.02880  1.0000
  Sc  Sc2       1.0  0.49900  0.16300  0.22100  1.0000
  Sc  Sc3       1.0  0.83700  0.50100  0.27900  1.0000
  Sc  Sc4       1.0  0.33700  0.99900  0.47100  1.0000
  Sc  Sc5       1.0  0.99900  0.33700  0.52900  1.0000
  Sc  Sc6       1.0  0.50100  0.83700  0.72100  1.0000
  Sc  Sc7       1.0  0.16300  0.49900  0.77900  1.0000
  Sc  Sc8       1.0  0.66300  0.00147  0.97100  1.0000
  Si  Si1       1.0  0.28700  0.96700  0.06590  1.0000
  Si  Si2       1.0  0.69800  0.37600  0.06670  1.0000
  Si  Si3       1.0  0.80200  0.87600  0.18300  1.0000
  Si  Si4       1.0  0.21300  0.46700  0.18400  1.0000
  Si  Si5       1.0  0.53300  0.78700  0.31600  1.0000
  Si  Si6       1.0  0.12400  0.19800  0.31700  1.0000
  Si  Si7       1.0  0.62400  0.30200  0.43300  1.0000
  Si  Si8       1.0  0.03330  0.71300  0.43400  1.0000
  Si  Si9       1.0  0.71300  0.03330  0.56600  1.0000
  Si  Si10      1.0  0.30200  0.62400  0.56700  1.0000
  Si  Si11      1.0  0.19800  0.12400  0.68300  1.0000
  Si  Si12      1.0  0.78700  0.53300  0.68400  1.0000
  Si  Si13      1.0  0.46700  0.21300  0.81600  1.0000
  Si  Si14      1.0  0.87600  0.80200  0.81700  1.0000
  Si  Si15      1.0  0.37600  0.69800  0.93300  1.0000
  Si  Si16      1.0  0.96700  0.28700  0.93400  1.0000
