data_image0
_chemical_formula_structural       As16Cl4Cu4S12
_chemical_formula_sum              "As16 Cl4 Cu4 S12"
_cell_length_a       11.1296
_cell_length_b       11.232
_cell_length_c       7.3735
_cell_angle_alpha    90
_cell_angle_beta     90
_cell_angle_gamma    90

_space_group_name_H-M_alt    "P 1"
_space_group_IT_number       1

loop_
  _space_group_symop_operation_xyz
  'x, y, z'

loop_
  _atom_site_type_symbol
  _atom_site_label
  _atom_site_symmetry_multiplicity
  _atom_site_fract_x
  _atom_site_fract_y
  _atom_site_fract_z
  _atom_site_occupancy
  As  As1       1.0  0.63700  0.44700  0.08000  1.0000
  As  As2       1.0  0.36300  0.94700  0.08000  1.0000
  As  As3       1.0  0.07520  0.05940  0.25000  1.0000
  As  As4       1.0  0.74800  0.28700  0.25000  1.0000
  As  As5       1.0  0.92500  0.55900  0.25000  1.0000
  As  As6       1.0  0.25200  0.78700  0.25000  1.0000
  As  As7       1.0  0.63700  0.44700  0.42000  1.0000
  As  As8       1.0  0.36300  0.94700  0.42000  1.0000
  As  As9       1.0  0.63700  0.05350  0.58000  1.0000
  As  As10      1.0  0.36300  0.55300  0.58000  1.0000
  As  As11      1.0  0.74800  0.21300  0.75000  1.0000
  As  As12      1.0  0.07520  0.44100  0.75000  1.0000
  As  As13      1.0  0.25200  0.71300  0.75000  1.0000
  As  As14      1.0  0.92500  0.94100  0.75000  1.0000
  As  As15      1.0  0.63700  0.05350  0.92000  1.0000
  As  As16      1.0  0.36300  0.55300  0.92000  1.0000
  Cl  Cl1       1.0  0.44400  0.26900  0.25000  1.0000
  Cl  Cl2       1.0  0.55600  0.76900  0.25000  1.0000
  Cl  Cl3       1.0  0.44400  0.23100  0.75000  1.0000
  Cl  Cl4       1.0  0.55600  0.73100  0.75000  1.0000
  Cu  Cu1       1.0  0.30800  0.25000  0.00000  1.0000
  Cu  Cu2       1.0  0.69200  0.75000  0.00000  1.0000
  Cu  Cu3       1.0  0.30800  0.25000  0.50000  1.0000
  Cu  Cu4       1.0  0.69200  0.75000  0.50000  1.0000
  S   S1        1.0  0.21000  0.07420  0.01390  1.0000
  S   S2        1.0  0.79000  0.57400  0.01390  1.0000
  S   S3        1.0  0.93800  0.35900  0.25000  1.0000
  S   S4        1.0  0.06250  0.85900  0.25000  1.0000
  S   S5        1.0  0.21000  0.07420  0.48600  1.0000
  S   S6        1.0  0.79000  0.57400  0.48600  1.0000
  S   S7        1.0  0.21000  0.42600  0.51400  1.0000
  S   S8        1.0  0.79000  0.92600  0.51400  1.0000
  S   S9        1.0  0.93800  0.14100  0.75000  1.0000
  S   S10       1.0  0.06250  0.64100  0.75000  1.0000
  S   S11       1.0  0.21000  0.42600  0.98600  1.0000
  S   S12       1.0  0.79000  0.92600  0.98600  1.0000
