data_image0
_chemical_formula_structural       B2Ga2H6Na2O20P4
_chemical_formula_sum              "B2 Ga2 H6 Na2 O20 P4"
_cell_length_a       7.95197
_cell_length_b       7.95197
_cell_length_c       8.53808
_cell_angle_alpha    122.103
_cell_angle_beta     57.8966
_cell_angle_gamma    121.605

_space_group_name_H-M_alt    "P 1"
_space_group_IT_number       1

loop_
  _space_group_symop_operation_xyz
  'x, y, z'

loop_
  _atom_site_type_symbol
  _atom_site_label
  _atom_site_symmetry_multiplicity
  _atom_site_fract_x
  _atom_site_fract_y
  _atom_site_fract_z
  _atom_site_occupancy
  B   B1        1.0  0.56800  0.56800  0.25000  1.0000
  B   B2        1.0  0.43200  0.43200  0.75000  1.0000
  Ga  Ga1       1.0  0.50000  0.00000  0.00000  1.0000
  Ga  Ga2       1.0  0.00000  0.50000  0.50000  1.0000
  H   H1        1.0  0.00000  0.50000  0.00000  1.0000
  H   H2        1.0  0.47700  0.68700  0.09880  1.0000
  H   H3        1.0  0.68700  0.47700  0.40100  1.0000
  H   H4        1.0  0.50000  0.00000  0.50000  1.0000
  H   H5        1.0  0.31300  0.52300  0.59900  1.0000
  H   H6        1.0  0.52300  0.31300  0.90100  1.0000
  Na  Na1       1.0  0.94100  0.94100  0.25000  1.0000
  Na  Na2       1.0  0.05860  0.05860  0.75000  1.0000
  O   O1        1.0  0.02960  0.39500  0.03580  1.0000
  O   O2        1.0  0.40000  0.76600  0.08900  1.0000
  O   O3        1.0  0.72800  0.07920  0.10100  1.0000
  O   O4        1.0  0.51100  0.62700  0.18200  1.0000
  O   O5        1.0  0.03950  0.26000  0.23300  1.0000
  O   O6        1.0  0.26000  0.03950  0.26700  1.0000
  O   O7        1.0  0.62700  0.51100  0.31800  1.0000
  O   O8        1.0  0.07920  0.72800  0.39900  1.0000
  O   O9        1.0  0.76600  0.40000  0.41100  1.0000
  O   O10       1.0  0.39500  0.02960  0.46400  1.0000
  O   O11       1.0  0.60500  0.97000  0.53600  1.0000
  O   O12       1.0  0.23400  0.60000  0.58900  1.0000
  O   O13       1.0  0.92100  0.27200  0.60100  1.0000
  O   O14       1.0  0.37300  0.48900  0.68200  1.0000
  O   O15       1.0  0.74000  0.96000  0.73300  1.0000
  O   O16       1.0  0.96000  0.74000  0.76700  1.0000
  O   O17       1.0  0.48900  0.37300  0.81800  1.0000
  O   O18       1.0  0.27200  0.92100  0.89900  1.0000
  O   O19       1.0  0.60000  0.23400  0.91100  1.0000
  O   O20       1.0  0.97000  0.60500  0.96400  1.0000
  P   P1        1.0  0.89000  0.27900  0.18300  1.0000
  P   P2        1.0  0.27900  0.89000  0.31700  1.0000
  P   P3        1.0  0.72100  0.11000  0.68300  1.0000
  P   P4        1.0  0.11000  0.72100  0.81700  1.0000
