data_image0
_chemical_formula_structural       B24Mo4U8
_chemical_formula_sum              "B24 Mo4 U8"
_cell_length_a       9.25094
_cell_length_b       11.3405
_cell_length_c       3.69222
_cell_angle_alpha    90
_cell_angle_beta     90
_cell_angle_gamma    90

_space_group_name_H-M_alt    "P 1"
_space_group_IT_number       1

loop_
  _space_group_symop_operation_xyz
  'x, y, z'

loop_
  _atom_site_type_symbol
  _atom_site_label
  _atom_site_symmetry_multiplicity
  _atom_site_fract_x
  _atom_site_fract_y
  _atom_site_fract_z
  _atom_site_occupancy
  B   B1        1.0  0.64200  0.03930  0.50000  1.0000
  B   B2        1.0  0.04990  0.06660  0.50000  1.0000
  B   B3        1.0  0.24400  0.07580  0.50000  1.0000
  B   B4        1.0  0.64400  0.18700  0.50000  1.0000
  B   B5        1.0  0.98500  0.21800  0.50000  1.0000
  B   B6        1.0  0.30400  0.22800  0.50000  1.0000
  B   B7        1.0  0.80400  0.27200  0.50000  1.0000
  B   B8        1.0  0.48500  0.28200  0.50000  1.0000
  B   B9        1.0  0.14400  0.31300  0.50000  1.0000
  B   B10       1.0  0.74400  0.42400  0.50000  1.0000
  B   B11       1.0  0.55000  0.43300  0.50000  1.0000
  B   B12       1.0  0.14200  0.46100  0.50000  1.0000
  B   B13       1.0  0.85800  0.53900  0.50000  1.0000
  B   B14       1.0  0.45000  0.56700  0.50000  1.0000
  B   B15       1.0  0.25600  0.57600  0.50000  1.0000
  B   B16       1.0  0.85600  0.68700  0.50000  1.0000
  B   B17       1.0  0.51500  0.71800  0.50000  1.0000
  B   B18       1.0  0.19600  0.72800  0.50000  1.0000
  B   B19       1.0  0.69600  0.77200  0.50000  1.0000
  B   B20       1.0  0.01480  0.78200  0.50000  1.0000
  B   B21       1.0  0.35600  0.81300  0.50000  1.0000
  B   B22       1.0  0.75600  0.92400  0.50000  1.0000
  B   B23       1.0  0.95000  0.93300  0.50000  1.0000
  B   B24       1.0  0.35800  0.96100  0.50000  1.0000
  Mo  Mo1       1.0  0.14500  0.18000  0.00000  1.0000
  Mo  Mo2       1.0  0.64500  0.32000  0.00000  1.0000
  Mo  Mo3       1.0  0.35500  0.68000  0.00000  1.0000
  Mo  Mo4       1.0  0.85500  0.82000  0.00000  1.0000
  U   U1        1.0  0.83500  0.09230  0.00000  1.0000
  U   U2        1.0  0.45600  0.10600  0.00000  1.0000
  U   U3        1.0  0.95600  0.39400  0.00000  1.0000
  U   U4        1.0  0.33500  0.40800  0.00000  1.0000
  U   U5        1.0  0.66500  0.59200  0.00000  1.0000
  U   U6        1.0  0.04400  0.60600  0.00000  1.0000
  U   U7        1.0  0.54400  0.89400  0.00000  1.0000
  U   U8        1.0  0.16500  0.90800  0.00000  1.0000
