data_image0
_chemical_formula_structural       Co20Lu4P12
_chemical_formula_sum              "Co20 Lu4 P12"
_cell_length_a       11.6355
_cell_length_b       3.60776
_cell_length_c       10.2012
_cell_angle_alpha    90
_cell_angle_beta     90
_cell_angle_gamma    90

_space_group_name_H-M_alt    "P 1"
_space_group_IT_number       1

loop_
  _space_group_symop_operation_xyz
  'x, y, z'

loop_
  _atom_site_type_symbol
  _atom_site_label
  _atom_site_symmetry_multiplicity
  _atom_site_fract_x
  _atom_site_fract_y
  _atom_site_fract_z
  _atom_site_occupancy
  Co  Co1       1.0  0.43100  0.25000  0.03280  1.0000
  Co  Co2       1.0  0.98700  0.25000  0.09270  1.0000
  Co  Co3       1.0  0.30100  0.75000  0.11700  1.0000
  Co  Co4       1.0  0.50900  0.75000  0.21700  1.0000
  Co  Co5       1.0  0.17700  0.25000  0.22100  1.0000
  Co  Co6       1.0  0.67700  0.25000  0.27900  1.0000
  Co  Co7       1.0  0.00924  0.75000  0.28300  1.0000
  Co  Co8       1.0  0.80100  0.75000  0.38300  1.0000
  Co  Co9       1.0  0.48700  0.25000  0.40700  1.0000
  Co  Co10      1.0  0.93100  0.25000  0.46700  1.0000
  Co  Co11      1.0  0.06880  0.75000  0.53300  1.0000
  Co  Co12      1.0  0.51300  0.75000  0.59300  1.0000
  Co  Co13      1.0  0.19900  0.25000  0.61700  1.0000
  Co  Co14      1.0  0.99100  0.25000  0.71700  1.0000
  Co  Co15      1.0  0.32300  0.75000  0.72100  1.0000
  Co  Co16      1.0  0.82300  0.75000  0.77900  1.0000
  Co  Co17      1.0  0.49100  0.25000  0.78300  1.0000
  Co  Co18      1.0  0.69900  0.25000  0.88300  1.0000
  Co  Co19      1.0  0.01350  0.75000  0.90700  1.0000
  Co  Co20      1.0  0.56900  0.75000  0.96700  1.0000
  Lu  Lu1       1.0  0.79700  0.75000  0.08260  1.0000
  Lu  Lu2       1.0  0.29700  0.75000  0.41700  1.0000
  Lu  Lu3       1.0  0.70300  0.25000  0.58300  1.0000
  Lu  Lu4       1.0  0.20300  0.25000  0.91700  1.0000
  P   P1        1.0  0.61300  0.25000  0.08190  1.0000
  P   P2        1.0  0.11000  0.75000  0.10000  1.0000
  P   P3        1.0  0.37000  0.25000  0.23100  1.0000
  P   P4        1.0  0.87000  0.25000  0.26900  1.0000
  P   P5        1.0  0.61000  0.75000  0.40000  1.0000
  P   P6        1.0  0.11300  0.25000  0.41800  1.0000
  P   P7        1.0  0.88700  0.75000  0.58200  1.0000
  P   P8        1.0  0.39000  0.25000  0.60000  1.0000
  P   P9        1.0  0.13000  0.75000  0.73100  1.0000
  P   P10       1.0  0.63000  0.75000  0.76900  1.0000
  P   P11       1.0  0.89000  0.25000  0.90000  1.0000
  P   P12       1.0  0.38700  0.75000  0.91800  1.0000
