data_image0
_chemical_formula_structural       B24Re4U8
_chemical_formula_sum              "B24 Re4 U8"
_cell_length_a       9.26309
_cell_length_b       11.3465
_cell_length_c       3.63556
_cell_angle_alpha    90
_cell_angle_beta     90
_cell_angle_gamma    90

_space_group_name_H-M_alt    "P 1"
_space_group_IT_number       1

loop_
  _space_group_symop_operation_xyz
  'x, y, z'

loop_
  _atom_site_type_symbol
  _atom_site_label
  _atom_site_symmetry_multiplicity
  _atom_site_fract_x
  _atom_site_fract_y
  _atom_site_fract_z
  _atom_site_occupancy
  B   B1        1.0  0.64300  0.03940  0.50000  1.0000
  B   B2        1.0  0.04960  0.06690  0.50000  1.0000
  B   B3        1.0  0.24300  0.07610  0.50000  1.0000
  B   B4        1.0  0.64400  0.18800  0.50000  1.0000
  B   B5        1.0  0.98500  0.21900  0.50000  1.0000
  B   B6        1.0  0.30300  0.22700  0.50000  1.0000
  B   B7        1.0  0.80300  0.27300  0.50000  1.0000
  B   B8        1.0  0.48500  0.28100  0.50000  1.0000
  B   B9        1.0  0.14400  0.31200  0.50000  1.0000
  B   B10       1.0  0.74300  0.42400  0.50000  1.0000
  B   B11       1.0  0.55000  0.43300  0.50000  1.0000
  B   B12       1.0  0.14300  0.46100  0.50000  1.0000
  B   B13       1.0  0.85700  0.53900  0.50000  1.0000
  B   B14       1.0  0.45000  0.56700  0.50000  1.0000
  B   B15       1.0  0.25700  0.57600  0.50000  1.0000
  B   B16       1.0  0.85600  0.68800  0.50000  1.0000
  B   B17       1.0  0.51500  0.71900  0.50000  1.0000
  B   B18       1.0  0.19700  0.72700  0.50000  1.0000
  B   B19       1.0  0.69700  0.77300  0.50000  1.0000
  B   B20       1.0  0.01500  0.78100  0.50000  1.0000
  B   B21       1.0  0.35600  0.81200  0.50000  1.0000
  B   B22       1.0  0.75700  0.92400  0.50000  1.0000
  B   B23       1.0  0.95000  0.93300  0.50000  1.0000
  B   B24       1.0  0.35700  0.96100  0.50000  1.0000
  Re  Re1       1.0  0.14400  0.18000  0.00000  1.0000
  Re  Re2       1.0  0.64400  0.32000  0.00000  1.0000
  Re  Re3       1.0  0.35600  0.68000  0.00000  1.0000
  Re  Re4       1.0  0.85600  0.82000  0.00000  1.0000
  U   U1        1.0  0.83600  0.09250  0.00000  1.0000
  U   U2        1.0  0.45600  0.10500  0.00000  1.0000
  U   U3        1.0  0.95600  0.39500  0.00000  1.0000
  U   U4        1.0  0.33600  0.40700  0.00000  1.0000
  U   U5        1.0  0.66400  0.59300  0.00000  1.0000
  U   U6        1.0  0.04390  0.60500  0.00000  1.0000
  U   U7        1.0  0.54400  0.89500  0.00000  1.0000
  U   U8        1.0  0.16400  0.90700  0.00000  1.0000
