data_image0
_chemical_formula_structural       Ce5P12Ru19
_chemical_formula_sum              "Ce5 P12 Ru19"
_cell_length_a       12.6965
_cell_length_b       12.6965
_cell_length_c       4.03279
_cell_angle_alpha    90
_cell_angle_beta     90
_cell_angle_gamma    120

_space_group_name_H-M_alt    "P 1"
_space_group_IT_number       1

loop_
  _space_group_symop_operation_xyz
  'x, y, z'

loop_
  _atom_site_type_symbol
  _atom_site_label
  _atom_site_symmetry_multiplicity
  _atom_site_fract_x
  _atom_site_fract_y
  _atom_site_fract_z
  _atom_site_occupancy
  Ce  Ce1       1.0  0.66700  0.33300  0.00000  1.0000
  Ce  Ce2       1.0  0.33300  0.66700  0.00000  1.0000
  Ce  Ce3       1.0  0.18400  0.00000  0.50000  1.0000
  Ce  Ce4       1.0  0.00000  0.18400  0.50000  1.0000
  Ce  Ce5       1.0  0.81600  0.81600  0.50000  1.0000
  P   P1        1.0  0.37600  0.00000  0.00000  1.0000
  P   P2        1.0  0.81100  0.00000  0.00000  1.0000
  P   P3        1.0  0.18900  0.18900  0.00000  1.0000
  P   P4        1.0  0.00000  0.37600  0.00000  1.0000
  P   P5        1.0  0.62400  0.62400  0.00000  1.0000
  P   P6        1.0  0.00000  0.81100  0.00000  1.0000
  P   P7        1.0  0.69500  0.17100  0.50000  1.0000
  P   P8        1.0  0.47600  0.30500  0.50000  1.0000
  P   P9        1.0  0.30500  0.47600  0.50000  1.0000
  P   P10       1.0  0.82900  0.52400  0.50000  1.0000
  P   P11       1.0  0.17100  0.69500  0.50000  1.0000
  P   P12       1.0  0.52400  0.82900  0.50000  1.0000
  Ru  Ru1       1.0  0.00000  0.00000  0.00000  1.0000
  Ru  Ru2       1.0  0.55500  0.00000  0.00000  1.0000
  Ru  Ru3       1.0  0.80500  0.18400  0.00000  1.0000
  Ru  Ru4       1.0  0.37900  0.19500  0.00000  1.0000
  Ru  Ru5       1.0  0.19500  0.37900  0.00000  1.0000
  Ru  Ru6       1.0  0.44500  0.44500  0.00000  1.0000
  Ru  Ru7       1.0  0.00000  0.55500  0.00000  1.0000
  Ru  Ru8       1.0  0.81600  0.62100  0.00000  1.0000
  Ru  Ru9       1.0  0.18400  0.80500  0.00000  1.0000
  Ru  Ru10      1.0  0.62100  0.81600  0.00000  1.0000
  Ru  Ru11      1.0  0.71400  0.00000  0.50000  1.0000
  Ru  Ru12      1.0  0.49100  0.12400  0.50000  1.0000
  Ru  Ru13      1.0  0.28600  0.28600  0.50000  1.0000
  Ru  Ru14      1.0  0.87600  0.36700  0.50000  1.0000
  Ru  Ru15      1.0  0.12400  0.49100  0.50000  1.0000
  Ru  Ru16      1.0  0.63300  0.50900  0.50000  1.0000
  Ru  Ru17      1.0  0.50900  0.63300  0.50000  1.0000
  Ru  Ru18      1.0  0.00000  0.71400  0.50000  1.0000
  Ru  Ru19      1.0  0.36700  0.87600  0.50000  1.0000
