data_image0
_chemical_formula_structural       B24Re4Sc8
_chemical_formula_sum              "B24 Re4 Sc8"
_cell_length_a       8.90555
_cell_length_b       11.1783
_cell_length_c       3.50906
_cell_angle_alpha    90
_cell_angle_beta     90
_cell_angle_gamma    90

_space_group_name_H-M_alt    "P 1"
_space_group_IT_number       1

loop_
  _space_group_symop_operation_xyz
  'x, y, z'

loop_
  _atom_site_type_symbol
  _atom_site_label
  _atom_site_symmetry_multiplicity
  _atom_site_fract_x
  _atom_site_fract_y
  _atom_site_fract_z
  _atom_site_occupancy
  B   B1        1.0  0.59800  0.02700  0.50000  1.0000
  B   B2        1.0  0.05320  0.06490  0.50000  1.0000
  B   B3        1.0  0.25400  0.07820  0.50000  1.0000
  B   B4        1.0  0.63000  0.18200  0.50000  1.0000
  B   B5        1.0  0.97900  0.21200  0.50000  1.0000
  B   B6        1.0  0.29600  0.23600  0.50000  1.0000
  B   B7        1.0  0.79600  0.26400  0.50000  1.0000
  B   B8        1.0  0.47900  0.28800  0.50000  1.0000
  B   B9        1.0  0.13000  0.31800  0.50000  1.0000
  B   B10       1.0  0.75400  0.42200  0.50000  1.0000
  B   B11       1.0  0.55300  0.43500  0.50000  1.0000
  B   B12       1.0  0.09760  0.47300  0.50000  1.0000
  B   B13       1.0  0.90200  0.52700  0.50000  1.0000
  B   B14       1.0  0.44700  0.56500  0.50000  1.0000
  B   B15       1.0  0.24600  0.57800  0.50000  1.0000
  B   B16       1.0  0.87000  0.68200  0.50000  1.0000
  B   B17       1.0  0.52100  0.71200  0.50000  1.0000
  B   B18       1.0  0.20400  0.73600  0.50000  1.0000
  B   B19       1.0  0.70400  0.76400  0.50000  1.0000
  B   B20       1.0  0.02060  0.78800  0.50000  1.0000
  B   B21       1.0  0.37000  0.81800  0.50000  1.0000
  B   B22       1.0  0.74600  0.92200  0.50000  1.0000
  B   B23       1.0  0.94700  0.93500  0.50000  1.0000
  B   B24       1.0  0.40200  0.97300  0.50000  1.0000
  Re  Re1       1.0  0.14000  0.18000  0.00000  1.0000
  Re  Re2       1.0  0.64000  0.32000  0.00000  1.0000
  Re  Re3       1.0  0.36000  0.68000  0.00000  1.0000
  Re  Re4       1.0  0.86000  0.82000  0.00000  1.0000
  Sc  Sc1       1.0  0.82200  0.08680  0.00000  1.0000
  Sc  Sc2       1.0  0.44400  0.12900  0.00000  1.0000
  Sc  Sc3       1.0  0.94400  0.37100  0.00000  1.0000
  Sc  Sc4       1.0  0.32200  0.41300  0.00000  1.0000
  Sc  Sc5       1.0  0.67800  0.58700  0.00000  1.0000
  Sc  Sc6       1.0  0.05580  0.62900  0.00000  1.0000
  Sc  Sc7       1.0  0.55600  0.87100  0.00000  1.0000
  Sc  Sc8       1.0  0.17800  0.91300  0.00000  1.0000
