data_image0
_chemical_formula_structural       La4Nb4O24Te4
_chemical_formula_sum              "La4 Nb4 O24 Te4"
_cell_length_a       6.7464
_cell_length_b       7.44004
_cell_length_c       10.7099
_cell_angle_alpha    79.5024
_cell_angle_beta     77.0078
_cell_angle_gamma    89.9024

_space_group_name_H-M_alt    "P 1"
_space_group_IT_number       1

loop_
  _space_group_symop_operation_xyz
  'x, y, z'

loop_
  _atom_site_type_symbol
  _atom_site_label
  _atom_site_symmetry_multiplicity
  _atom_site_fract_x
  _atom_site_fract_y
  _atom_site_fract_z
  _atom_site_occupancy
  La  La1       1.0  0.66800  0.71600  0.15700  1.0000
  La  La2       1.0  0.76100  0.86100  0.49600  1.0000
  La  La3       1.0  0.23900  0.13900  0.50400  1.0000
  La  La4       1.0  0.33200  0.28400  0.84300  1.0000
  Nb  Nb1       1.0  0.18400  0.45400  0.19700  1.0000
  Nb  Nb2       1.0  0.17400  0.96000  0.19900  1.0000
  Nb  Nb3       1.0  0.82600  0.04000  0.80100  1.0000
  Nb  Nb4       1.0  0.81600  0.54600  0.80300  1.0000
  O   O1        1.0  0.24300  0.43500  0.02610  1.0000
  O   O2        1.0  0.17900  0.05630  0.03110  1.0000
  O   O3        1.0  0.28800  0.71500  0.17800  1.0000
  O   O4        1.0  0.49500  0.02150  0.17900  1.0000
  O   O5        1.0  0.49800  0.39800  0.21100  1.0000
  O   O6        1.0  0.90400  0.49500  0.22300  1.0000
  O   O7        1.0  0.88800  0.89000  0.25800  1.0000
  O   O8        1.0  0.13700  0.18400  0.28300  1.0000
  O   O9        1.0  0.61100  0.13100  0.38400  1.0000
  O   O10       1.0  0.53500  0.67500  0.40600  1.0000
  O   O11       1.0  0.17700  0.45500  0.41100  1.0000
  O   O12       1.0  0.15100  0.84900  0.42700  1.0000
  O   O13       1.0  0.84900  0.15100  0.57300  1.0000
  O   O14       1.0  0.82300  0.54500  0.58900  1.0000
  O   O15       1.0  0.46500  0.32500  0.59400  1.0000
  O   O16       1.0  0.38900  0.86900  0.61600  1.0000
  O   O17       1.0  0.86300  0.81600  0.71700  1.0000
  O   O18       1.0  0.11200  0.11000  0.74200  1.0000
  O   O19       1.0  0.09560  0.50500  0.77700  1.0000
  O   O20       1.0  0.50200  0.60200  0.78900  1.0000
  O   O21       1.0  0.50500  0.97900  0.82100  1.0000
  O   O22       1.0  0.71200  0.28500  0.82200  1.0000
  O   O23       1.0  0.82100  0.94400  0.96900  1.0000
  O   O24       1.0  0.75700  0.56500  0.97400  1.0000
  Te  Te1       1.0  0.67900  0.20400  0.19700  1.0000
  Te  Te2       1.0  0.73900  0.37300  0.49300  1.0000
  Te  Te3       1.0  0.26100  0.62700  0.50700  1.0000
  Te  Te4       1.0  0.32100  0.79600  0.80300  1.0000
