data_image0
_chemical_formula_structural       Co4O24P8
_chemical_formula_sum              "Co4 O24 P8"
_cell_length_a       7.13181
_cell_length_b       7.13181
_cell_length_c       9.66993
_cell_angle_alpha    98.801
_cell_angle_beta     109.864
_cell_angle_gamma    109.381

_space_group_name_H-M_alt    "P 1"
_space_group_IT_number       1

loop_
  _space_group_symop_operation_xyz
  'x, y, z'

loop_
  _atom_site_type_symbol
  _atom_site_label
  _atom_site_symmetry_multiplicity
  _atom_site_fract_x
  _atom_site_fract_y
  _atom_site_fract_z
  _atom_site_occupancy
  Co  Co1       1.0  0.50000  0.00000  0.00000  1.0000
  Co  Co2       1.0  0.30500  0.05530  0.25000  1.0000
  Co  Co3       1.0  0.50000  0.50000  0.50000  1.0000
  Co  Co4       1.0  0.69500  0.94500  0.75000  1.0000
  O   O1        1.0  0.28100  0.51000  0.06520  1.0000
  O   O2        1.0  0.37600  0.20000  0.08340  1.0000
  O   O3        1.0  0.01320  0.84100  0.08900  1.0000
  O   O4        1.0  0.80600  0.19100  0.14700  1.0000
  O   O5        1.0  0.69700  0.68800  0.15900  1.0000
  O   O6        1.0  0.47200  0.89100  0.18300  1.0000
  O   O7        1.0  0.20800  0.28800  0.31700  1.0000
  O   O8        1.0  0.02910  0.53800  0.34100  1.0000
  O   O9        1.0  0.54400  0.65900  0.35300  1.0000
  O   O10       1.0  0.25200  0.92400  0.41100  1.0000
  O   O11       1.0  0.61600  0.29300  0.41700  1.0000
  O   O12       1.0  0.94500  0.21600  0.43500  1.0000
  O   O13       1.0  0.05500  0.78400  0.56500  1.0000
  O   O14       1.0  0.38400  0.70700  0.58300  1.0000
  O   O15       1.0  0.74800  0.07580  0.58900  1.0000
  O   O16       1.0  0.45600  0.34100  0.64700  1.0000
  O   O17       1.0  0.97100  0.46200  0.65900  1.0000
  O   O18       1.0  0.79200  0.71200  0.68300  1.0000
  O   O19       1.0  0.52800  0.10900  0.81700  1.0000
  O   O20       1.0  0.30300  0.31200  0.84100  1.0000
  O   O21       1.0  0.19400  0.80900  0.85300  1.0000
  O   O22       1.0  0.98700  0.15900  0.91100  1.0000
  O   O23       1.0  0.62400  0.80000  0.91700  1.0000
  O   O24       1.0  0.71900  0.49000  0.93500  1.0000
  P   P1        1.0  0.77400  0.72400  0.02290  1.0000
  P   P2        1.0  0.49900  0.69300  0.20000  1.0000
  P   P3        1.0  0.99300  0.29900  0.30000  1.0000
  P   P4        1.0  0.20100  0.75100  0.47700  1.0000
  P   P5        1.0  0.79900  0.24900  0.52300  1.0000
  P   P6        1.0  0.00737  0.70100  0.70000  1.0000
  P   P7        1.0  0.50100  0.30700  0.80000  1.0000
  P   P8        1.0  0.22600  0.27600  0.97700  1.0000
