data_image0
_chemical_formula_structural       B16Os16U4
_chemical_formula_sum              "B16 Os16 U4"
_cell_length_a       9.24637
_cell_length_b       7.53232
_cell_length_c       7.53232
_cell_angle_alpha    90
_cell_angle_beta     114.036
_cell_angle_gamma    114.036

_space_group_name_H-M_alt    "P 1"
_space_group_IT_number       1

loop_
  _space_group_symop_operation_xyz
  'x, y, z'

loop_
  _atom_site_type_symbol
  _atom_site_label
  _atom_site_symmetry_multiplicity
  _atom_site_fract_x
  _atom_site_fract_y
  _atom_site_fract_z
  _atom_site_occupancy
  B   B1        1.0  0.91500  0.28800  0.06470  1.0000
  B   B2        1.0  0.41500  0.56500  0.12700  1.0000
  B   B3        1.0  0.08530  0.21200  0.15000  1.0000
  B   B4        1.0  0.58500  0.15000  0.21200  1.0000
  B   B5        1.0  0.41500  0.06470  0.28800  1.0000
  B   B6        1.0  0.91500  0.62700  0.35000  1.0000
  B   B7        1.0  0.58500  0.65000  0.37300  1.0000
  B   B8        1.0  0.08530  0.87300  0.43500  1.0000
  B   B9        1.0  0.91500  0.12700  0.56500  1.0000
  B   B10       1.0  0.41500  0.35000  0.62700  1.0000
  B   B11       1.0  0.08530  0.37300  0.65000  1.0000
  B   B12       1.0  0.58500  0.93500  0.71200  1.0000
  B   B13       1.0  0.41500  0.85000  0.78800  1.0000
  B   B14       1.0  0.91500  0.78800  0.85000  1.0000
  B   B15       1.0  0.58500  0.43500  0.87300  1.0000
  B   B16       1.0  0.08530  0.71200  0.93500  1.0000
  Os  Os1       1.0  0.87500  0.55100  0.03640  1.0000
  Os  Os2       1.0  0.37500  0.83800  0.05070  1.0000
  Os  Os3       1.0  0.12500  0.94900  0.16200  1.0000
  Os  Os4       1.0  0.62500  0.46400  0.17600  1.0000
  Os  Os5       1.0  0.37500  0.33800  0.32400  1.0000
  Os  Os6       1.0  0.87500  0.32400  0.33800  1.0000
  Os  Os7       1.0  0.62500  0.96400  0.44900  1.0000
  Os  Os8       1.0  0.12500  0.17600  0.46400  1.0000
  Os  Os9       1.0  0.87500  0.82400  0.53600  1.0000
  Os  Os10      1.0  0.37500  0.03640  0.55100  1.0000
  Os  Os11      1.0  0.12500  0.67600  0.66200  1.0000
  Os  Os12      1.0  0.62500  0.66200  0.67600  1.0000
  Os  Os13      1.0  0.37500  0.53600  0.82400  1.0000
  Os  Os14      1.0  0.87500  0.05070  0.83800  1.0000
  Os  Os15      1.0  0.62500  0.16200  0.94900  1.0000
  Os  Os16      1.0  0.12500  0.44900  0.96400  1.0000
  U   U1        1.0  0.75000  0.87500  0.12500  1.0000
  U   U2        1.0  0.25000  0.62500  0.37500  1.0000
  U   U3        1.0  0.75000  0.37500  0.62500  1.0000
  U   U4        1.0  0.25000  0.12500  0.87500  1.0000
