data_image0
_chemical_formula_structural       Ge16Lu20
_chemical_formula_sum              "Ge16 Lu20"
_cell_length_a       7.46726
_cell_length_b       14.3628
_cell_length_c       7.54934
_cell_angle_alpha    90
_cell_angle_beta     90
_cell_angle_gamma    90

_space_group_name_H-M_alt    "P 1"
_space_group_IT_number       1

loop_
  _space_group_symop_operation_xyz
  'x, y, z'

loop_
  _atom_site_type_symbol
  _atom_site_label
  _atom_site_symmetry_multiplicity
  _atom_site_fract_x
  _atom_site_fract_y
  _atom_site_fract_z
  _atom_site_occupancy
  Ge  Ge1       1.0  0.28800  0.04260  0.03640  1.0000
  Ge  Ge2       1.0  0.28800  0.45700  0.03640  1.0000
  Ge  Ge3       1.0  0.92900  0.25000  0.11800  1.0000
  Ge  Ge4       1.0  0.33000  0.75000  0.14200  1.0000
  Ge  Ge5       1.0  0.83000  0.75000  0.35800  1.0000
  Ge  Ge6       1.0  0.42900  0.25000  0.38200  1.0000
  Ge  Ge7       1.0  0.78800  0.04260  0.46400  1.0000
  Ge  Ge8       1.0  0.78800  0.45700  0.46400  1.0000
  Ge  Ge9       1.0  0.21200  0.54300  0.53600  1.0000
  Ge  Ge10      1.0  0.21200  0.95700  0.53600  1.0000
  Ge  Ge11      1.0  0.57100  0.75000  0.61800  1.0000
  Ge  Ge12      1.0  0.17000  0.25000  0.64200  1.0000
  Ge  Ge13      1.0  0.67000  0.25000  0.85800  1.0000
  Ge  Ge14      1.0  0.07070  0.75000  0.88200  1.0000
  Ge  Ge15      1.0  0.71200  0.54300  0.96400  1.0000
  Ge  Ge16      1.0  0.71200  0.95700  0.96400  1.0000
  Lu  Lu1       1.0  0.29400  0.25000  0.00076  1.0000
  Lu  Lu2       1.0  0.63100  0.12000  0.16100  1.0000
  Lu  Lu3       1.0  0.63100  0.38000  0.16100  1.0000
  Lu  Lu4       1.0  0.02080  0.59800  0.17800  1.0000
  Lu  Lu5       1.0  0.02080  0.90200  0.17800  1.0000
  Lu  Lu6       1.0  0.52100  0.59800  0.32200  1.0000
  Lu  Lu7       1.0  0.52100  0.90200  0.32200  1.0000
  Lu  Lu8       1.0  0.13100  0.12000  0.33900  1.0000
  Lu  Lu9       1.0  0.13100  0.38000  0.33900  1.0000
  Lu  Lu10      1.0  0.79400  0.25000  0.49900  1.0000
  Lu  Lu11      1.0  0.20600  0.75000  0.50100  1.0000
  Lu  Lu12      1.0  0.86900  0.62000  0.66100  1.0000
  Lu  Lu13      1.0  0.86900  0.88000  0.66100  1.0000
  Lu  Lu14      1.0  0.47900  0.09820  0.67800  1.0000
  Lu  Lu15      1.0  0.47900  0.40200  0.67800  1.0000
  Lu  Lu16      1.0  0.97900  0.09820  0.82200  1.0000
  Lu  Lu17      1.0  0.97900  0.40200  0.82200  1.0000
  Lu  Lu18      1.0  0.36900  0.62000  0.83900  1.0000
  Lu  Lu19      1.0  0.36900  0.88000  0.83900  1.0000
  Lu  Lu20      1.0  0.70600  0.75000  0.99900  1.0000
