data_image0
_chemical_formula_structural       Al3Cu2Mg9Si7
_chemical_formula_sum              "Al3 Cu2 Mg9 Si7"
_cell_length_a       10.4099
_cell_length_b       10.4098
_cell_length_c       3.99697
_cell_angle_alpha    90
_cell_angle_beta     90
_cell_angle_gamma    120

_space_group_name_H-M_alt    "P 1"
_space_group_IT_number       1

loop_
  _space_group_symop_operation_xyz
  'x, y, z'

loop_
  _atom_site_type_symbol
  _atom_site_label
  _atom_site_symmetry_multiplicity
  _atom_site_fract_x
  _atom_site_fract_y
  _atom_site_fract_z
  _atom_site_occupancy
  Al  Al1       1.0  0.25100  0.00568  0.00000  1.0000
  Al  Al2       1.0  0.99400  0.24500  0.00000  1.0000
  Al  Al3       1.0  0.75500  0.74900  0.00000  1.0000
  Cu  Cu1       1.0  0.33300  0.66700  0.00000  1.0000
  Cu  Cu2       1.0  0.66700  0.33300  0.50000  1.0000
  Mg  Mg1       1.0  0.63500  0.13800  0.00000  1.0000
  Mg  Mg2       1.0  0.50300  0.36500  0.00000  1.0000
  Mg  Mg3       1.0  0.86200  0.49700  0.00000  1.0000
  Mg  Mg4       1.0  0.19900  0.20300  0.50000  1.0000
  Mg  Mg5       1.0  0.14100  0.52100  0.50000  1.0000
  Mg  Mg6       1.0  0.47900  0.62000  0.50000  1.0000
  Mg  Mg7       1.0  0.00484  0.80100  0.50000  1.0000
  Mg  Mg8       1.0  0.38000  0.85900  0.50000  1.0000
  Mg  Mg9       1.0  0.79700  0.99500  0.50000  1.0000
  Si  Si1       1.0  0.00000  0.00000  0.00000  1.0000
  Si  Si2       1.0  0.27300  0.41600  0.00000  1.0000
  Si  Si3       1.0  0.14300  0.72700  0.00000  1.0000
  Si  Si4       1.0  0.58400  0.85700  0.00000  1.0000
  Si  Si5       1.0  0.41900  0.13100  0.50000  1.0000
  Si  Si6       1.0  0.86900  0.28800  0.50000  1.0000
  Si  Si7       1.0  0.71200  0.58100  0.50000  1.0000
