data_image0
_chemical_formula_structural       Ir12La8Sb16
_chemical_formula_sum              "Ir12 La8 Sb16"
_cell_length_a       16.3952
_cell_length_b       4.62887
_cell_length_c       11.0912
_cell_angle_alpha    90
_cell_angle_beta     90
_cell_angle_gamma    90

_space_group_name_H-M_alt    "P 1"
_space_group_IT_number       1

loop_
  _space_group_symop_operation_xyz
  'x, y, z'

loop_
  _atom_site_type_symbol
  _atom_site_label
  _atom_site_symmetry_multiplicity
  _atom_site_fract_x
  _atom_site_fract_y
  _atom_site_fract_z
  _atom_site_occupancy
  Ir  Ir1       1.0  0.05620  0.25000  0.03390  1.0000
  Ir  Ir2       1.0  0.59200  0.25000  0.05700  1.0000
  Ir  Ir3       1.0  0.32000  0.25000  0.22300  1.0000
  Ir  Ir4       1.0  0.82000  0.25000  0.27700  1.0000
  Ir  Ir5       1.0  0.09240  0.25000  0.44300  1.0000
  Ir  Ir6       1.0  0.55600  0.25000  0.46600  1.0000
  Ir  Ir7       1.0  0.44400  0.75000  0.53400  1.0000
  Ir  Ir8       1.0  0.90800  0.75000  0.55700  1.0000
  Ir  Ir9       1.0  0.18000  0.75000  0.72300  1.0000
  Ir  Ir10      1.0  0.68000  0.75000  0.77700  1.0000
  Ir  Ir11      1.0  0.40800  0.75000  0.94300  1.0000
  Ir  Ir12      1.0  0.94400  0.75000  0.96600  1.0000
  La  La1       1.0  0.74900  0.75000  0.08770  1.0000
  La  La2       1.0  0.99400  0.75000  0.24900  1.0000
  La  La3       1.0  0.49400  0.75000  0.25100  1.0000
  La  La4       1.0  0.24900  0.75000  0.41200  1.0000
  La  La5       1.0  0.75100  0.25000  0.58800  1.0000
  La  La6       1.0  0.50600  0.25000  0.74900  1.0000
  La  La7       1.0  0.00573  0.25000  0.75100  1.0000
  La  La8       1.0  0.25100  0.25000  0.91200  1.0000
  Sb  Sb1       1.0  0.43200  0.25000  0.05070  1.0000
  Sb  Sb2       1.0  0.89500  0.25000  0.06140  1.0000
  Sb  Sb3       1.0  0.29100  0.75000  0.11500  1.0000
  Sb  Sb4       1.0  0.15200  0.25000  0.22400  1.0000
  Sb  Sb5       1.0  0.65200  0.25000  0.27600  1.0000
  Sb  Sb6       1.0  0.79100  0.75000  0.38500  1.0000
  Sb  Sb7       1.0  0.39500  0.25000  0.43900  1.0000
  Sb  Sb8       1.0  0.93200  0.25000  0.44900  1.0000
  Sb  Sb9       1.0  0.06810  0.75000  0.55100  1.0000
  Sb  Sb10      1.0  0.60500  0.75000  0.56100  1.0000
  Sb  Sb11      1.0  0.20900  0.25000  0.61500  1.0000
  Sb  Sb12      1.0  0.34800  0.75000  0.72400  1.0000
  Sb  Sb13      1.0  0.84800  0.75000  0.77600  1.0000
  Sb  Sb14      1.0  0.70900  0.25000  0.88500  1.0000
  Sb  Sb15      1.0  0.10500  0.75000  0.93900  1.0000
  Sb  Sb16      1.0  0.56800  0.75000  0.94900  1.0000
