data_image0
_chemical_formula_structural       Er4Ni20Si12
_chemical_formula_sum              "Er4 Ni20 Si12"
_cell_length_a       18.6476
_cell_length_b       3.77275
_cell_length_c       6.60091
_cell_angle_alpha    90
_cell_angle_beta     90
_cell_angle_gamma    90

_space_group_name_H-M_alt    "P 1"
_space_group_IT_number       1

loop_
  _space_group_symop_operation_xyz
  'x, y, z'

loop_
  _atom_site_type_symbol
  _atom_site_label
  _atom_site_symmetry_multiplicity
  _atom_site_fract_x
  _atom_site_fract_y
  _atom_site_fract_z
  _atom_site_occupancy
  Er  Er1       1.0  0.85600  0.75000  0.12200  1.0000
  Er  Er2       1.0  0.35600  0.75000  0.37800  1.0000
  Er  Er3       1.0  0.64400  0.25000  0.62200  1.0000
  Er  Er4       1.0  0.14400  0.25000  0.87800  1.0000
  Ni  Ni1       1.0  0.29400  0.25000  0.07060  1.0000
  Ni  Ni2       1.0  0.48600  0.75000  0.11800  1.0000
  Ni  Ni3       1.0  0.99500  0.25000  0.13100  1.0000
  Ni  Ni4       1.0  0.61500  0.25000  0.14200  1.0000
  Ni  Ni5       1.0  0.20000  0.75000  0.18500  1.0000
  Ni  Ni6       1.0  0.70000  0.75000  0.31500  1.0000
  Ni  Ni7       1.0  0.11500  0.25000  0.35800  1.0000
  Ni  Ni8       1.0  0.49500  0.25000  0.36900  1.0000
  Ni  Ni9       1.0  0.98600  0.75000  0.38200  1.0000
  Ni  Ni10      1.0  0.79400  0.25000  0.42900  1.0000
  Ni  Ni11      1.0  0.20600  0.75000  0.57100  1.0000
  Ni  Ni12      1.0  0.01430  0.25000  0.61800  1.0000
  Ni  Ni13      1.0  0.50500  0.75000  0.63100  1.0000
  Ni  Ni14      1.0  0.88500  0.75000  0.64200  1.0000
  Ni  Ni15      1.0  0.30000  0.25000  0.68500  1.0000
  Ni  Ni16      1.0  0.80000  0.25000  0.81500  1.0000
  Ni  Ni17      1.0  0.38500  0.75000  0.85800  1.0000
  Ni  Ni18      1.0  0.00502  0.75000  0.86900  1.0000
  Ni  Ni19      1.0  0.51400  0.25000  0.88200  1.0000
  Ni  Ni20      1.0  0.70600  0.75000  0.92900  1.0000
  Si  Si1       1.0  0.41500  0.25000  0.08590  1.0000
  Si  Si2       1.0  0.73700  0.25000  0.12100  1.0000
  Si  Si3       1.0  0.07550  0.75000  0.15400  1.0000
  Si  Si4       1.0  0.57500  0.75000  0.34600  1.0000
  Si  Si5       1.0  0.23700  0.25000  0.37900  1.0000
  Si  Si6       1.0  0.91500  0.25000  0.41400  1.0000
  Si  Si7       1.0  0.08540  0.75000  0.58600  1.0000
  Si  Si8       1.0  0.76300  0.75000  0.62100  1.0000
  Si  Si9       1.0  0.42500  0.25000  0.65400  1.0000
  Si  Si10      1.0  0.92500  0.25000  0.84600  1.0000
  Si  Si11      1.0  0.26300  0.75000  0.87900  1.0000
  Si  Si12      1.0  0.58500  0.75000  0.91400  1.0000
