data_image0
_chemical_formula_structural       As12Nd5Ni16Zr3
_chemical_formula_sum              "As12 Nd5 Ni16 Zr3"
_cell_length_a       12.8457
_cell_length_b       12.8457
_cell_length_c       4.00846
_cell_angle_alpha    90
_cell_angle_beta     90
_cell_angle_gamma    120.003

_space_group_name_H-M_alt    "P 1"
_space_group_IT_number       1

loop_
  _space_group_symop_operation_xyz
  'x, y, z'

loop_
  _atom_site_type_symbol
  _atom_site_label
  _atom_site_symmetry_multiplicity
  _atom_site_fract_x
  _atom_site_fract_y
  _atom_site_fract_z
  _atom_site_occupancy
  As  As1       1.0  0.36300  0.00000  0.00000  1.0000
  As  As2       1.0  0.82000  0.00000  0.00000  1.0000
  As  As3       1.0  0.18000  0.18000  0.00000  1.0000
  As  As4       1.0  0.00000  0.36300  0.00000  1.0000
  As  As5       1.0  0.63700  0.63700  0.00000  1.0000
  As  As6       1.0  0.00000  0.82000  0.00000  1.0000
  As  As7       1.0  0.69700  0.17200  0.50000  1.0000
  As  As8       1.0  0.47500  0.30300  0.50000  1.0000
  As  As9       1.0  0.30300  0.47500  0.50000  1.0000
  As  As10      1.0  0.82800  0.52500  0.50000  1.0000
  As  As11      1.0  0.17200  0.69700  0.50000  1.0000
  As  As12      1.0  0.52500  0.82800  0.50000  1.0000
  Nd  Nd1       1.0  0.66700  0.33300  0.00000  1.0000
  Nd  Nd2       1.0  0.33300  0.66700  0.00000  1.0000
  Nd  Nd3       1.0  0.18800  0.00000  0.50000  1.0000
  Nd  Nd4       1.0  0.00000  0.18800  0.50000  1.0000
  Nd  Nd5       1.0  0.81200  0.81200  0.50000  1.0000
  Ni  Ni1       1.0  0.00000  0.00000  0.00000  1.0000
  Ni  Ni2       1.0  0.80800  0.18600  0.00000  1.0000
  Ni  Ni3       1.0  0.37900  0.19200  0.00000  1.0000
  Ni  Ni4       1.0  0.19200  0.37900  0.00000  1.0000
  Ni  Ni5       1.0  0.81400  0.62100  0.00000  1.0000
  Ni  Ni6       1.0  0.18600  0.80800  0.00000  1.0000
  Ni  Ni7       1.0  0.62100  0.81400  0.00000  1.0000
  Ni  Ni8       1.0  0.72500  0.00000  0.50000  1.0000
  Ni  Ni9       1.0  0.48500  0.11900  0.50000  1.0000
  Ni  Ni10      1.0  0.27500  0.27500  0.50000  1.0000
  Ni  Ni11      1.0  0.88100  0.36600  0.50000  1.0000
  Ni  Ni12      1.0  0.11900  0.48500  0.50000  1.0000
  Ni  Ni13      1.0  0.63400  0.51500  0.50000  1.0000
  Ni  Ni14      1.0  0.51500  0.63400  0.50000  1.0000
  Ni  Ni15      1.0  0.00000  0.72500  0.50000  1.0000
  Ni  Ni16      1.0  0.36600  0.88100  0.50000  1.0000
  Zr  Zr1       1.0  0.57000  0.00000  0.00000  1.0000
  Zr  Zr2       1.0  0.43000  0.43000  0.00000  1.0000
  Zr  Zr3       1.0  0.00000  0.57000  0.00000  1.0000
