data_image0
_chemical_formula_structural       B16Ho4Ru16
_chemical_formula_sum              "B16 Ho4 Ru16"
_cell_length_a       9.1884
_cell_length_b       7.47841
_cell_length_c       7.47841
_cell_angle_alpha    90
_cell_angle_beta     114.013
_cell_angle_gamma    114.013

_space_group_name_H-M_alt    "P 1"
_space_group_IT_number       1

loop_
  _space_group_symop_operation_xyz
  'x, y, z'

loop_
  _atom_site_type_symbol
  _atom_site_label
  _atom_site_symmetry_multiplicity
  _atom_site_fract_x
  _atom_site_fract_y
  _atom_site_fract_z
  _atom_site_occupancy
  B   B1        1.0  0.91400  0.28800  0.06720  1.0000
  B   B2        1.0  0.41400  0.56700  0.12500  1.0000
  B   B3        1.0  0.08640  0.21200  0.15400  1.0000
  B   B4        1.0  0.58600  0.15400  0.21200  1.0000
  B   B5        1.0  0.41400  0.06720  0.28800  1.0000
  B   B6        1.0  0.91400  0.62500  0.34600  1.0000
  B   B7        1.0  0.58600  0.65400  0.37500  1.0000
  B   B8        1.0  0.08640  0.87500  0.43300  1.0000
  B   B9        1.0  0.91400  0.12500  0.56700  1.0000
  B   B10       1.0  0.41400  0.34600  0.62500  1.0000
  B   B11       1.0  0.08640  0.37500  0.65400  1.0000
  B   B12       1.0  0.58600  0.93300  0.71200  1.0000
  B   B13       1.0  0.41400  0.84600  0.78800  1.0000
  B   B14       1.0  0.91400  0.78800  0.84600  1.0000
  B   B15       1.0  0.58600  0.43300  0.87500  1.0000
  B   B16       1.0  0.08640  0.71200  0.93300  1.0000
  Ho  Ho1       1.0  0.75000  0.87500  0.12500  1.0000
  Ho  Ho2       1.0  0.25000  0.62500  0.37500  1.0000
  Ho  Ho3       1.0  0.75000  0.37500  0.62500  1.0000
  Ho  Ho4       1.0  0.25000  0.12500  0.87500  1.0000
  Ru  Ru1       1.0  0.87400  0.55200  0.03800  1.0000
  Ru  Ru2       1.0  0.37400  0.83600  0.05200  1.0000
  Ru  Ru3       1.0  0.12600  0.94800  0.16400  1.0000
  Ru  Ru4       1.0  0.62600  0.46200  0.17800  1.0000
  Ru  Ru5       1.0  0.37400  0.33600  0.32200  1.0000
  Ru  Ru6       1.0  0.87400  0.32200  0.33600  1.0000
  Ru  Ru7       1.0  0.62600  0.96200  0.44800  1.0000
  Ru  Ru8       1.0  0.12600  0.17800  0.46200  1.0000
  Ru  Ru9       1.0  0.87400  0.82200  0.53800  1.0000
  Ru  Ru10      1.0  0.37400  0.03800  0.55200  1.0000
  Ru  Ru11      1.0  0.12600  0.67800  0.66400  1.0000
  Ru  Ru12      1.0  0.62600  0.66400  0.67800  1.0000
  Ru  Ru13      1.0  0.37400  0.53800  0.82200  1.0000
  Ru  Ru14      1.0  0.87400  0.05200  0.83600  1.0000
  Ru  Ru15      1.0  0.62600  0.16400  0.94800  1.0000
  Ru  Ru16      1.0  0.12600  0.44800  0.96200  1.0000
