data_image0
_chemical_formula_structural       Ge12Mn20Tb4
_chemical_formula_sum              "Ge12 Mn20 Tb4"
_cell_length_a       13.6024
_cell_length_b       3.99597
_cell_length_c       11.8826
_cell_angle_alpha    90
_cell_angle_beta     90
_cell_angle_gamma    90

_space_group_name_H-M_alt    "P 1"
_space_group_IT_number       1

loop_
  _space_group_symop_operation_xyz
  'x, y, z'

loop_
  _atom_site_type_symbol
  _atom_site_label
  _atom_site_symmetry_multiplicity
  _atom_site_fract_x
  _atom_site_fract_y
  _atom_site_fract_z
  _atom_site_occupancy
  Ge  Ge1       1.0  0.61700  0.25000  0.08860  1.0000
  Ge  Ge2       1.0  0.12000  0.75000  0.09280  1.0000
  Ge  Ge3       1.0  0.37700  0.25000  0.23700  1.0000
  Ge  Ge4       1.0  0.87700  0.25000  0.26300  1.0000
  Ge  Ge5       1.0  0.62000  0.75000  0.40700  1.0000
  Ge  Ge6       1.0  0.11700  0.25000  0.41100  1.0000
  Ge  Ge7       1.0  0.88300  0.75000  0.58900  1.0000
  Ge  Ge8       1.0  0.38000  0.25000  0.59300  1.0000
  Ge  Ge9       1.0  0.12300  0.75000  0.73700  1.0000
  Ge  Ge10      1.0  0.62300  0.75000  0.76300  1.0000
  Ge  Ge11      1.0  0.88000  0.25000  0.90700  1.0000
  Ge  Ge12      1.0  0.38300  0.75000  0.91100  1.0000
  Mn  Mn1       1.0  0.43700  0.25000  0.03440  1.0000
  Mn  Mn2       1.0  0.99500  0.25000  0.09120  1.0000
  Mn  Mn3       1.0  0.31500  0.75000  0.11600  1.0000
  Mn  Mn4       1.0  0.18600  0.25000  0.20800  1.0000
  Mn  Mn5       1.0  0.52000  0.75000  0.21000  1.0000
  Mn  Mn6       1.0  0.01990  0.75000  0.29000  1.0000
  Mn  Mn7       1.0  0.68600  0.25000  0.29200  1.0000
  Mn  Mn8       1.0  0.81500  0.75000  0.38400  1.0000
  Mn  Mn9       1.0  0.49500  0.25000  0.40900  1.0000
  Mn  Mn10      1.0  0.93700  0.25000  0.46600  1.0000
  Mn  Mn11      1.0  0.06270  0.75000  0.53400  1.0000
  Mn  Mn12      1.0  0.50500  0.75000  0.59100  1.0000
  Mn  Mn13      1.0  0.18500  0.25000  0.61600  1.0000
  Mn  Mn14      1.0  0.31400  0.75000  0.70800  1.0000
  Mn  Mn15      1.0  0.98000  0.25000  0.71000  1.0000
  Mn  Mn16      1.0  0.48000  0.25000  0.79000  1.0000
  Mn  Mn17      1.0  0.81400  0.75000  0.79200  1.0000
  Mn  Mn18      1.0  0.68500  0.25000  0.88400  1.0000
  Mn  Mn19      1.0  0.00481  0.75000  0.90900  1.0000
  Mn  Mn20      1.0  0.56300  0.75000  0.96600  1.0000
  Tb  Tb1       1.0  0.79200  0.75000  0.08690  1.0000
  Tb  Tb2       1.0  0.29200  0.75000  0.41300  1.0000
  Tb  Tb3       1.0  0.70800  0.25000  0.58700  1.0000
  Tb  Tb4       1.0  0.20800  0.25000  0.91300  1.0000
