data_image0
_chemical_formula_structural       F26N2O4Xe4
_chemical_formula_sum              "F26 N2 O4 Xe4"
_cell_length_a       7.04148
_cell_length_b       8.26482
_cell_length_c       8.2906
_cell_angle_alpha    95.8589
_cell_angle_beta     115.13
_cell_angle_gamma    90

_space_group_name_H-M_alt    "P 1"
_space_group_IT_number       1

loop_
  _space_group_symop_operation_xyz
  'x, y, z'

loop_
  _atom_site_type_symbol
  _atom_site_label
  _atom_site_symmetry_multiplicity
  _atom_site_fract_x
  _atom_site_fract_y
  _atom_site_fract_z
  _atom_site_occupancy
  F   F1        1.0  0.52400  0.15500  0.04820  1.0000
  F   F2        1.0  0.04050  0.14800  0.08090  1.0000
  F   F3        1.0  0.35100  0.62700  0.08800  1.0000
  F   F4        1.0  0.73700  0.62700  0.08800  1.0000
  F   F5        1.0  0.06440  0.45400  0.12900  1.0000
  F   F6        1.0  0.41700  0.96100  0.23100  1.0000
  F   F7        1.0  0.81300  0.96100  0.23100  1.0000
  F   F8        1.0  0.41200  0.31600  0.26400  1.0000
  F   F9        1.0  0.85200  0.31600  0.26400  1.0000
  F   F10       1.0  0.19700  0.06670  0.39500  1.0000
  F   F11       1.0  0.52900  0.71000  0.41600  1.0000
  F   F12       1.0  0.88700  0.71000  0.41600  1.0000
  F   F13       1.0  0.23000  0.52300  0.46000  1.0000
  F   F14       1.0  0.77000  0.47700  0.54000  1.0000
  F   F15       1.0  0.11300  0.29000  0.58400  1.0000
  F   F16       1.0  0.47100  0.29000  0.58400  1.0000
  F   F17       1.0  0.80300  0.93300  0.60500  1.0000
  F   F18       1.0  0.14800  0.68400  0.73600  1.0000
  F   F19       1.0  0.58800  0.68400  0.73600  1.0000
  F   F20       1.0  0.18700  0.03860  0.76900  1.0000
  F   F21       1.0  0.58300  0.03860  0.76900  1.0000
  F   F22       1.0  0.93600  0.54600  0.87100  1.0000
  F   F23       1.0  0.26300  0.37300  0.91200  1.0000
  F   F24       1.0  0.64900  0.37300  0.91200  1.0000
  F   F25       1.0  0.96000  0.85200  0.91900  1.0000
  F   F26       1.0  0.47600  0.84500  0.95200  1.0000
  N   N1        1.0  0.19700  0.79200  0.39500  1.0000
  N   N2        1.0  0.80300  0.20800  0.60500  1.0000
  O   O1        1.0  0.12100  0.76200  0.24300  1.0000
  O   O2        1.0  0.72700  0.17600  0.45400  1.0000
  O   O3        1.0  0.27300  0.82400  0.54600  1.0000
  O   O4        1.0  0.87900  0.23800  0.75700  1.0000
  Xe  Xe1       1.0  0.59900  0.78300  0.19700  1.0000
  Xe  Xe2       1.0  0.15500  0.30000  0.30900  1.0000
  Xe  Xe3       1.0  0.84500  0.70000  0.69100  1.0000
  Xe  Xe4       1.0  0.40100  0.21700  0.80300  1.0000
