data_image0
_chemical_formula_structural       Cs4Ho12Te20
_chemical_formula_sum              "Cs4 Ho12 Te20"
_cell_length_a       23.9518
_cell_length_b       4.40136
_cell_length_c       13.0195
_cell_angle_alpha    90
_cell_angle_beta     90
_cell_angle_gamma    90

_space_group_name_H-M_alt    "P 1"
_space_group_IT_number       1

loop_
  _space_group_symop_operation_xyz
  'x, y, z'

loop_
  _atom_site_type_symbol
  _atom_site_label
  _atom_site_symmetry_multiplicity
  _atom_site_fract_x
  _atom_site_fract_y
  _atom_site_fract_z
  _atom_site_occupancy
  Cs  Cs1       1.0  0.58700  0.25000  0.14100  1.0000
  Cs  Cs2       1.0  0.08660  0.25000  0.35900  1.0000
  Cs  Cs3       1.0  0.91300  0.75000  0.64100  1.0000
  Cs  Cs4       1.0  0.41300  0.75000  0.85900  1.0000
  Ho  Ho1       1.0  0.19600  0.25000  0.04900  1.0000
  Ho  Ho2       1.0  0.94400  0.25000  0.11000  1.0000
  Ho  Ho3       1.0  0.32400  0.75000  0.20200  1.0000
  Ho  Ho4       1.0  0.82400  0.75000  0.29800  1.0000
  Ho  Ho5       1.0  0.44400  0.25000  0.39000  1.0000
  Ho  Ho6       1.0  0.69600  0.25000  0.45100  1.0000
  Ho  Ho7       1.0  0.30400  0.75000  0.54900  1.0000
  Ho  Ho8       1.0  0.55600  0.75000  0.61000  1.0000
  Ho  Ho9       1.0  0.17600  0.25000  0.70200  1.0000
  Ho  Ho10      1.0  0.67600  0.25000  0.79800  1.0000
  Ho  Ho11      1.0  0.05570  0.75000  0.89000  1.0000
  Ho  Ho12      1.0  0.80400  0.75000  0.95100  1.0000
  Te  Te1       1.0  0.32300  0.25000  0.04220  1.0000
  Te  Te2       1.0  0.06810  0.25000  0.05710  1.0000
  Te  Te3       1.0  0.81500  0.25000  0.12400  1.0000
  Te  Te4       1.0  0.19700  0.75000  0.20700  1.0000
  Te  Te5       1.0  0.45200  0.75000  0.22600  1.0000
  Te  Te6       1.0  0.95200  0.75000  0.27400  1.0000
  Te  Te7       1.0  0.69700  0.75000  0.29300  1.0000
  Te  Te8       1.0  0.31500  0.25000  0.37600  1.0000
  Te  Te9       1.0  0.56800  0.25000  0.44300  1.0000
  Te  Te10      1.0  0.82300  0.25000  0.45800  1.0000
  Te  Te11      1.0  0.17700  0.75000  0.54200  1.0000
  Te  Te12      1.0  0.43200  0.75000  0.55700  1.0000
  Te  Te13      1.0  0.68500  0.75000  0.62400  1.0000
  Te  Te14      1.0  0.30300  0.25000  0.70700  1.0000
  Te  Te15      1.0  0.04820  0.25000  0.72600  1.0000
  Te  Te16      1.0  0.54800  0.25000  0.77400  1.0000
  Te  Te17      1.0  0.80300  0.25000  0.79300  1.0000
  Te  Te18      1.0  0.18500  0.75000  0.87600  1.0000
  Te  Te19      1.0  0.93200  0.75000  0.94300  1.0000
  Te  Te20      1.0  0.67700  0.75000  0.95800  1.0000
