data_image0
_chemical_formula_structural       Co16Gd8P12
_chemical_formula_sum              "Co16 Gd8 P12"
_cell_length_a       12.4998
_cell_length_b       12.4998
_cell_length_c       3.77137
_cell_angle_alpha    90
_cell_angle_beta     90
_cell_angle_gamma    119.996

_space_group_name_H-M_alt    "P 1"
_space_group_IT_number       1

loop_
  _space_group_symop_operation_xyz
  'x, y, z'

loop_
  _atom_site_type_symbol
  _atom_site_label
  _atom_site_symmetry_multiplicity
  _atom_site_fract_x
  _atom_site_fract_y
  _atom_site_fract_z
  _atom_site_occupancy
  Co  Co1       1.0  0.00000  0.00000  0.00000  1.0000
  Co  Co2       1.0  0.80900  0.17900  0.00000  1.0000
  Co  Co3       1.0  0.37100  0.19100  0.00000  1.0000
  Co  Co4       1.0  0.19100  0.37100  0.00000  1.0000
  Co  Co5       1.0  0.82100  0.62900  0.00000  1.0000
  Co  Co6       1.0  0.17900  0.80900  0.00000  1.0000
  Co  Co7       1.0  0.62900  0.82100  0.00000  1.0000
  Co  Co8       1.0  0.72600  0.00000  0.50000  1.0000
  Co  Co9       1.0  0.47200  0.12100  0.50000  1.0000
  Co  Co10      1.0  0.27400  0.27400  0.50000  1.0000
  Co  Co11      1.0  0.87900  0.35100  0.50000  1.0000
  Co  Co12      1.0  0.12100  0.47200  0.50000  1.0000
  Co  Co13      1.0  0.64900  0.52800  0.50000  1.0000
  Co  Co14      1.0  0.52800  0.64900  0.50000  1.0000
  Co  Co15      1.0  0.00000  0.72600  0.50000  1.0000
  Co  Co16      1.0  0.35100  0.87900  0.50000  1.0000
  Gd  Gd1       1.0  0.55800  0.00000  0.00000  1.0000
  Gd  Gd2       1.0  0.66700  0.33300  0.00000  1.0000
  Gd  Gd3       1.0  0.44200  0.44200  0.00000  1.0000
  Gd  Gd4       1.0  0.00000  0.55800  0.00000  1.0000
  Gd  Gd5       1.0  0.33300  0.66700  0.00000  1.0000
  Gd  Gd6       1.0  0.18000  0.00000  0.50000  1.0000
  Gd  Gd7       1.0  0.00000  0.18000  0.50000  1.0000
  Gd  Gd8       1.0  0.82000  0.82000  0.50000  1.0000
  P   P1        1.0  0.34700  0.00000  0.00000  1.0000
  P   P2        1.0  0.82100  0.00000  0.00000  1.0000
  P   P3        1.0  0.17900  0.17900  0.00000  1.0000
  P   P4        1.0  0.00000  0.34700  0.00000  1.0000
  P   P5        1.0  0.65300  0.65300  0.00000  1.0000
  P   P6        1.0  0.00000  0.82100  0.00000  1.0000
  P   P7        1.0  0.70300  0.17600  0.50000  1.0000
  P   P8        1.0  0.47300  0.29700  0.50000  1.0000
  P   P9        1.0  0.29700  0.47300  0.50000  1.0000
  P   P10       1.0  0.82400  0.52700  0.50000  1.0000
  P   P11       1.0  0.17600  0.70300  0.50000  1.0000
  P   P12       1.0  0.52700  0.82400  0.50000  1.0000
