data_image0
_chemical_formula_structural       Ge12Mg19Sr5
_chemical_formula_sum              "Ge12 Mg19 Sr5"
_cell_length_a       14.6877
_cell_length_b       14.6877
_cell_length_c       4.41284
_cell_angle_alpha    90
_cell_angle_beta     90
_cell_angle_gamma    120

_space_group_name_H-M_alt    "P 1"
_space_group_IT_number       1

loop_
  _space_group_symop_operation_xyz
  'x, y, z'

loop_
  _atom_site_type_symbol
  _atom_site_label
  _atom_site_symmetry_multiplicity
  _atom_site_fract_x
  _atom_site_fract_y
  _atom_site_fract_z
  _atom_site_occupancy
  Ge  Ge1       1.0  0.36300  0.00000  0.00000  1.0000
  Ge  Ge2       1.0  0.82500  0.00000  0.00000  1.0000
  Ge  Ge3       1.0  0.17500  0.17500  0.00000  1.0000
  Ge  Ge4       1.0  0.00000  0.36300  0.00000  1.0000
  Ge  Ge5       1.0  0.63700  0.63700  0.00000  1.0000
  Ge  Ge6       1.0  0.00000  0.82500  0.00000  1.0000
  Ge  Ge7       1.0  0.68400  0.16800  0.50000  1.0000
  Ge  Ge8       1.0  0.48400  0.31600  0.50000  1.0000
  Ge  Ge9       1.0  0.31600  0.48400  0.50000  1.0000
  Ge  Ge10      1.0  0.83200  0.51600  0.50000  1.0000
  Ge  Ge11      1.0  0.16800  0.68400  0.50000  1.0000
  Ge  Ge12      1.0  0.51600  0.83200  0.50000  1.0000
  Mg  Mg1       1.0  0.00000  0.00000  0.00000  1.0000
  Mg  Mg2       1.0  0.55400  0.00000  0.00000  1.0000
  Mg  Mg3       1.0  0.79900  0.17500  0.00000  1.0000
  Mg  Mg4       1.0  0.37500  0.20100  0.00000  1.0000
  Mg  Mg5       1.0  0.20100  0.37500  0.00000  1.0000
  Mg  Mg6       1.0  0.44600  0.44600  0.00000  1.0000
  Mg  Mg7       1.0  0.00000  0.55400  0.00000  1.0000
  Mg  Mg8       1.0  0.82500  0.62500  0.00000  1.0000
  Mg  Mg9       1.0  0.17500  0.79900  0.00000  1.0000
  Mg  Mg10      1.0  0.62500  0.82500  0.00000  1.0000
  Mg  Mg11      1.0  0.71700  0.00000  0.50000  1.0000
  Mg  Mg12      1.0  0.48100  0.12400  0.50000  1.0000
  Mg  Mg13      1.0  0.28300  0.28300  0.50000  1.0000
  Mg  Mg14      1.0  0.87600  0.35700  0.50000  1.0000
  Mg  Mg15      1.0  0.12400  0.48100  0.50000  1.0000
  Mg  Mg16      1.0  0.64300  0.51900  0.50000  1.0000
  Mg  Mg17      1.0  0.51900  0.64300  0.50000  1.0000
  Mg  Mg18      1.0  0.00000  0.71700  0.50000  1.0000
  Mg  Mg19      1.0  0.35700  0.87600  0.50000  1.0000
  Sr  Sr1       1.0  0.66700  0.33300  0.00000  1.0000
  Sr  Sr2       1.0  0.33300  0.66700  0.00000  1.0000
  Sr  Sr3       1.0  0.18500  0.00000  0.50000  1.0000
  Sr  Sr4       1.0  0.00000  0.18500  0.50000  1.0000
  Sr  Sr5       1.0  0.81500  0.81500  0.50000  1.0000
