data_image0
_chemical_formula_structural       B16Eu4Ru16
_chemical_formula_sum              "B16 Eu4 Ru16"
_cell_length_a       9.25439
_cell_length_b       7.47766
_cell_length_c       7.47766
_cell_angle_alpha    90
_cell_angle_beta     113.829
_cell_angle_gamma    113.829

_space_group_name_H-M_alt    "P 1"
_space_group_IT_number       1

loop_
  _space_group_symop_operation_xyz
  'x, y, z'

loop_
  _atom_site_type_symbol
  _atom_site_label
  _atom_site_symmetry_multiplicity
  _atom_site_fract_x
  _atom_site_fract_y
  _atom_site_fract_z
  _atom_site_occupancy
  B   B1        1.0  0.91300  0.28900  0.06810  1.0000
  B   B2        1.0  0.41300  0.56800  0.12400  1.0000
  B   B3        1.0  0.08680  0.21100  0.15500  1.0000
  B   B4        1.0  0.58700  0.15500  0.21100  1.0000
  B   B5        1.0  0.41300  0.06810  0.28900  1.0000
  B   B6        1.0  0.91300  0.62400  0.34500  1.0000
  B   B7        1.0  0.58700  0.65500  0.37600  1.0000
  B   B8        1.0  0.08680  0.87600  0.43200  1.0000
  B   B9        1.0  0.91300  0.12400  0.56800  1.0000
  B   B10       1.0  0.41300  0.34500  0.62400  1.0000
  B   B11       1.0  0.08680  0.37600  0.65500  1.0000
  B   B12       1.0  0.58700  0.93200  0.71100  1.0000
  B   B13       1.0  0.41300  0.84500  0.78900  1.0000
  B   B14       1.0  0.91300  0.78900  0.84500  1.0000
  B   B15       1.0  0.58700  0.43200  0.87600  1.0000
  B   B16       1.0  0.08680  0.71100  0.93200  1.0000
  Eu  Eu1       1.0  0.75000  0.87500  0.12500  1.0000
  Eu  Eu2       1.0  0.25000  0.62500  0.37500  1.0000
  Eu  Eu3       1.0  0.75000  0.37500  0.62500  1.0000
  Eu  Eu4       1.0  0.25000  0.12500  0.87500  1.0000
  Ru  Ru1       1.0  0.87300  0.55200  0.03700  1.0000
  Ru  Ru2       1.0  0.37300  0.83600  0.05230  1.0000
  Ru  Ru3       1.0  0.12700  0.94800  0.16400  1.0000
  Ru  Ru4       1.0  0.62700  0.46300  0.17900  1.0000
  Ru  Ru5       1.0  0.37300  0.33600  0.32100  1.0000
  Ru  Ru6       1.0  0.87300  0.32100  0.33600  1.0000
  Ru  Ru7       1.0  0.62700  0.96300  0.44800  1.0000
  Ru  Ru8       1.0  0.12700  0.17900  0.46300  1.0000
  Ru  Ru9       1.0  0.87300  0.82100  0.53700  1.0000
  Ru  Ru10      1.0  0.37300  0.03700  0.55200  1.0000
  Ru  Ru11      1.0  0.12700  0.67900  0.66400  1.0000
  Ru  Ru12      1.0  0.62700  0.66400  0.67900  1.0000
  Ru  Ru13      1.0  0.37300  0.53700  0.82100  1.0000
  Ru  Ru14      1.0  0.87300  0.05230  0.83600  1.0000
  Ru  Ru15      1.0  0.62700  0.16400  0.94800  1.0000
  Ru  Ru16      1.0  0.12700  0.44800  0.96300  1.0000
