data_image0
_chemical_formula_structural       B26Co2Gd8
_chemical_formula_sum              "B26 Co2 Gd8"
_cell_length_a       7.34732
_cell_length_b       7.34732
_cell_length_c       6.98005
_cell_angle_alpha    90
_cell_angle_beta     90
_cell_angle_gamma    90

_space_group_name_H-M_alt    "P 1"
_space_group_IT_number       1

loop_
  _space_group_symop_operation_xyz
  'x, y, z'

loop_
  _atom_site_type_symbol
  _atom_site_label
  _atom_site_symmetry_multiplicity
  _atom_site_fract_x
  _atom_site_fract_y
  _atom_site_fract_z
  _atom_site_occupancy
  B   B1        1.0  0.50000  0.50000  0.00000  1.0000
  B   B2        1.0  0.53900  0.33100  0.24600  1.0000
  B   B3        1.0  0.33100  0.46100  0.24600  1.0000
  B   B4        1.0  0.66900  0.53900  0.24600  1.0000
  B   B5        1.0  0.46100  0.66900  0.24600  1.0000
  B   B6        1.0  0.59200  0.09160  0.25000  1.0000
  B   B7        1.0  0.09160  0.40800  0.25000  1.0000
  B   B8        1.0  0.90800  0.59200  0.25000  1.0000
  B   B9        1.0  0.40800  0.90800  0.25000  1.0000
  B   B10       1.0  0.83100  0.03950  0.25400  1.0000
  B   B11       1.0  0.03950  0.16900  0.25400  1.0000
  B   B12       1.0  0.96100  0.83100  0.25400  1.0000
  B   B13       1.0  0.16900  0.96100  0.25400  1.0000
  B   B14       1.0  0.00000  0.00000  0.50000  1.0000
  B   B15       1.0  0.83100  0.03950  0.74600  1.0000
  B   B16       1.0  0.03950  0.16900  0.74600  1.0000
  B   B17       1.0  0.96100  0.83100  0.74600  1.0000
  B   B18       1.0  0.16900  0.96100  0.74600  1.0000
  B   B19       1.0  0.59200  0.09160  0.75000  1.0000
  B   B20       1.0  0.09160  0.40800  0.75000  1.0000
  B   B21       1.0  0.90800  0.59200  0.75000  1.0000
  B   B22       1.0  0.40800  0.90800  0.75000  1.0000
  B   B23       1.0  0.53900  0.33100  0.75400  1.0000
  B   B24       1.0  0.33100  0.46100  0.75400  1.0000
  B   B25       1.0  0.66900  0.53900  0.75400  1.0000
  B   B26       1.0  0.46100  0.66900  0.75400  1.0000
  Co  Co1       1.0  0.00000  0.00000  0.00000  1.0000
  Co  Co2       1.0  0.50000  0.50000  0.50000  1.0000
  Gd  Gd1       1.0  0.31900  0.18400  0.00000  1.0000
  Gd  Gd2       1.0  0.81600  0.31900  0.00000  1.0000
  Gd  Gd3       1.0  0.18400  0.68100  0.00000  1.0000
  Gd  Gd4       1.0  0.68100  0.81600  0.00000  1.0000
  Gd  Gd5       1.0  0.31600  0.18100  0.50000  1.0000
  Gd  Gd6       1.0  0.81900  0.31600  0.50000  1.0000
  Gd  Gd7       1.0  0.18100  0.68400  0.50000  1.0000
  Gd  Gd8       1.0  0.68400  0.81900  0.50000  1.0000
