data_image0
_chemical_formula_structural       B16Pu4Ru16
_chemical_formula_sum              "B16 Pu4 Ru16"
_cell_length_a       9.19374
_cell_length_b       7.45272
_cell_length_c       7.45272
_cell_angle_alpha    90
_cell_angle_beta     113.911
_cell_angle_gamma    113.911

_space_group_name_H-M_alt    "P 1"
_space_group_IT_number       1

loop_
  _space_group_symop_operation_xyz
  'x, y, z'

loop_
  _atom_site_type_symbol
  _atom_site_label
  _atom_site_symmetry_multiplicity
  _atom_site_fract_x
  _atom_site_fract_y
  _atom_site_fract_z
  _atom_site_occupancy
  B   B1        1.0  0.91600  0.28900  0.06830  1.0000
  B   B2        1.0  0.41600  0.56800  0.12600  1.0000
  B   B3        1.0  0.08430  0.21100  0.15300  1.0000
  B   B4        1.0  0.58400  0.15300  0.21100  1.0000
  B   B5        1.0  0.41600  0.06830  0.28900  1.0000
  B   B6        1.0  0.91600  0.62600  0.34700  1.0000
  B   B7        1.0  0.58400  0.65300  0.37400  1.0000
  B   B8        1.0  0.08430  0.87400  0.43200  1.0000
  B   B9        1.0  0.91600  0.12600  0.56800  1.0000
  B   B10       1.0  0.41600  0.34700  0.62600  1.0000
  B   B11       1.0  0.08430  0.37400  0.65300  1.0000
  B   B12       1.0  0.58400  0.93200  0.71100  1.0000
  B   B13       1.0  0.41600  0.84700  0.78900  1.0000
  B   B14       1.0  0.91600  0.78900  0.84700  1.0000
  B   B15       1.0  0.58400  0.43200  0.87400  1.0000
  B   B16       1.0  0.08430  0.71100  0.93200  1.0000
  Pu  Pu1       1.0  0.75000  0.87500  0.12500  1.0000
  Pu  Pu2       1.0  0.25000  0.62500  0.37500  1.0000
  Pu  Pu3       1.0  0.75000  0.37500  0.62500  1.0000
  Pu  Pu4       1.0  0.25000  0.12500  0.87500  1.0000
  Ru  Ru1       1.0  0.87400  0.55100  0.03470  1.0000
  Ru  Ru2       1.0  0.37400  0.83900  0.05130  1.0000
  Ru  Ru3       1.0  0.12600  0.94900  0.16100  1.0000
  Ru  Ru4       1.0  0.62600  0.46500  0.17700  1.0000
  Ru  Ru5       1.0  0.37400  0.33900  0.32300  1.0000
  Ru  Ru6       1.0  0.87400  0.32300  0.33900  1.0000
  Ru  Ru7       1.0  0.62600  0.96500  0.44900  1.0000
  Ru  Ru8       1.0  0.12600  0.17700  0.46500  1.0000
  Ru  Ru9       1.0  0.87400  0.82300  0.53500  1.0000
  Ru  Ru10      1.0  0.37400  0.03470  0.55100  1.0000
  Ru  Ru11      1.0  0.12600  0.67700  0.66100  1.0000
  Ru  Ru12      1.0  0.62600  0.66100  0.67700  1.0000
  Ru  Ru13      1.0  0.37400  0.53500  0.82300  1.0000
  Ru  Ru14      1.0  0.87400  0.05130  0.83900  1.0000
  Ru  Ru15      1.0  0.62600  0.16100  0.94900  1.0000
  Ru  Ru16      1.0  0.12600  0.44900  0.96500  1.0000
