data_image0
_chemical_formula_structural       B16Ru16Yb4
_chemical_formula_sum              "B16 Ru16 Yb4"
_cell_length_a       9.21681
_cell_length_b       7.4263
_cell_length_c       7.4263
_cell_angle_alpha    90
_cell_angle_beta     113.758
_cell_angle_gamma    113.758

_space_group_name_H-M_alt    "P 1"
_space_group_IT_number       1

loop_
  _space_group_symop_operation_xyz
  'x, y, z'

loop_
  _atom_site_type_symbol
  _atom_site_label
  _atom_site_symmetry_multiplicity
  _atom_site_fract_x
  _atom_site_fract_y
  _atom_site_fract_z
  _atom_site_occupancy
  B   B1        1.0  0.91300  0.28800  0.06970  1.0000
  B   B2        1.0  0.41300  0.57000  0.12500  1.0000
  B   B3        1.0  0.08730  0.21200  0.15700  1.0000
  B   B4        1.0  0.58700  0.15700  0.21200  1.0000
  B   B5        1.0  0.41300  0.06970  0.28800  1.0000
  B   B6        1.0  0.91300  0.62500  0.34300  1.0000
  B   B7        1.0  0.58700  0.65700  0.37500  1.0000
  B   B8        1.0  0.08730  0.87500  0.43000  1.0000
  B   B9        1.0  0.91300  0.12500  0.57000  1.0000
  B   B10       1.0  0.41300  0.34300  0.62500  1.0000
  B   B11       1.0  0.08730  0.37500  0.65700  1.0000
  B   B12       1.0  0.58700  0.93000  0.71200  1.0000
  B   B13       1.0  0.41300  0.84300  0.78800  1.0000
  B   B14       1.0  0.91300  0.78800  0.84300  1.0000
  B   B15       1.0  0.58700  0.43000  0.87500  1.0000
  B   B16       1.0  0.08730  0.71200  0.93000  1.0000
  Ru  Ru1       1.0  0.87300  0.55200  0.03450  1.0000
  Ru  Ru2       1.0  0.37300  0.83900  0.05230  1.0000
  Ru  Ru3       1.0  0.12700  0.94800  0.16100  1.0000
  Ru  Ru4       1.0  0.62700  0.46500  0.17900  1.0000
  Ru  Ru5       1.0  0.37300  0.33900  0.32100  1.0000
  Ru  Ru6       1.0  0.87300  0.32100  0.33900  1.0000
  Ru  Ru7       1.0  0.62700  0.96500  0.44800  1.0000
  Ru  Ru8       1.0  0.12700  0.17900  0.46500  1.0000
  Ru  Ru9       1.0  0.87300  0.82100  0.53500  1.0000
  Ru  Ru10      1.0  0.37300  0.03450  0.55200  1.0000
  Ru  Ru11      1.0  0.12700  0.67900  0.66100  1.0000
  Ru  Ru12      1.0  0.62700  0.66100  0.67900  1.0000
  Ru  Ru13      1.0  0.37300  0.53500  0.82100  1.0000
  Ru  Ru14      1.0  0.87300  0.05230  0.83900  1.0000
  Ru  Ru15      1.0  0.62700  0.16100  0.94800  1.0000
  Ru  Ru16      1.0  0.12700  0.44800  0.96500  1.0000
  Yb  Yb1       1.0  0.75000  0.87500  0.12500  1.0000
  Yb  Yb2       1.0  0.25000  0.62500  0.37500  1.0000
  Yb  Yb3       1.0  0.75000  0.37500  0.62500  1.0000
  Yb  Yb4       1.0  0.25000  0.12500  0.87500  1.0000
