data_image0
_chemical_formula_structural       Al4C8Cl14O8Rh2
_chemical_formula_sum              "Al4 C8 Cl14 O8 Rh2"
_cell_length_a       9.65679
_cell_length_b       9.62799
_cell_length_c       10.1491
_cell_angle_alpha    77.1554
_cell_angle_beta     76.5582
_cell_angle_gamma    66.1344

_space_group_name_H-M_alt    "P 1"
_space_group_IT_number       1

loop_
  _space_group_symop_operation_xyz
  'x, y, z'

loop_
  _atom_site_type_symbol
  _atom_site_label
  _atom_site_symmetry_multiplicity
  _atom_site_fract_x
  _atom_site_fract_y
  _atom_site_fract_z
  _atom_site_occupancy
  Al  Al1       1.0  0.16900  0.80500  0.17500  1.0000
  Al  Al2       1.0  0.30100  0.43100  0.42000  1.0000
  Al  Al3       1.0  0.69900  0.56900  0.58000  1.0000
  Al  Al4       1.0  0.83100  0.19500  0.82500  1.0000
  C   C1        1.0  0.78700  0.64400  0.02100  1.0000
  C   C2        1.0  0.93900  0.35200  0.14300  1.0000
  C   C3        1.0  0.53300  0.02450  0.30000  1.0000
  C   C4        1.0  0.70200  0.00832  0.48800  1.0000
  C   C5        1.0  0.29800  0.99200  0.51200  1.0000
  C   C6        1.0  0.46700  0.97500  0.70000  1.0000
  C   C7        1.0  0.06080  0.64800  0.85700  1.0000
  C   C8        1.0  0.21300  0.35600  0.97900  1.0000
  Cl  Cl1       1.0  0.31800  0.64200  0.04500  1.0000
  Cl  Cl2       1.0  0.93400  0.88000  0.15800  1.0000
  Cl  Cl3       1.0  0.24700  0.98200  0.17400  1.0000
  Cl  Cl4       1.0  0.18700  0.34500  0.31900  1.0000
  Cl  Cl5       1.0  0.53600  0.37900  0.33500  1.0000
  Cl  Cl6       1.0  0.73700  0.63600  0.36400  1.0000
  Cl  Cl7       1.0  0.17800  0.68800  0.40000  1.0000
  Cl  Cl8       1.0  0.82200  0.31200  0.60000  1.0000
  Cl  Cl9       1.0  0.26300  0.36400  0.63600  1.0000
  Cl  Cl10      1.0  0.46400  0.62100  0.66500  1.0000
  Cl  Cl11      1.0  0.81300  0.65500  0.68100  1.0000
  Cl  Cl12      1.0  0.75300  0.01750  0.82600  1.0000
  Cl  Cl13      1.0  0.06650  0.12000  0.84200  1.0000
  Cl  Cl14      1.0  0.68200  0.35800  0.95500  1.0000
  O   O1        1.0  0.66200  0.72600  0.03610  1.0000
  O   O2        1.0  0.55600  0.03830  0.18300  1.0000
  O   O3        1.0  0.90200  0.26800  0.22800  1.0000
  O   O4        1.0  0.82000  0.01290  0.47800  1.0000
  O   O5        1.0  0.18000  0.98700  0.52200  1.0000
  O   O6        1.0  0.09750  0.73200  0.77200  1.0000
  O   O7        1.0  0.44400  0.96200  0.81700  1.0000
  O   O8        1.0  0.33800  0.27400  0.96400  1.0000
  Rh  Rh1       1.0  0.00000  0.50000  0.00000  1.0000
  Rh  Rh2       1.0  0.50000  0.00000  0.50000  1.0000
