data_image0
_chemical_formula_structural       Co18P12Sm6
_chemical_formula_sum              "Co18 P12 Sm6"
_cell_length_a       10.5577
_cell_length_b       3.72595
_cell_length_c       12.248
_cell_angle_alpha    90
_cell_angle_beta     90
_cell_angle_gamma    90

_space_group_name_H-M_alt    "P 1"
_space_group_IT_number       1

loop_
  _space_group_symop_operation_xyz
  'x, y, z'

loop_
  _atom_site_type_symbol
  _atom_site_label
  _atom_site_symmetry_multiplicity
  _atom_site_fract_x
  _atom_site_fract_y
  _atom_site_fract_z
  _atom_site_occupancy
  Co  Co1       1.0  0.08370  0.25000  0.00455  1.0000
  Co  Co2       1.0  0.41600  0.25000  0.00455  1.0000
  Co  Co3       1.0  0.25000  0.75000  0.01370  1.0000
  Co  Co4       1.0  0.75000  0.75000  0.15800  1.0000
  Co  Co5       1.0  0.63100  0.25000  0.29000  1.0000
  Co  Co6       1.0  0.86900  0.25000  0.29000  1.0000
  Co  Co7       1.0  0.25000  0.25000  0.29600  1.0000
  Co  Co8       1.0  0.54700  0.75000  0.43000  1.0000
  Co  Co9       1.0  0.95300  0.75000  0.43000  1.0000
  Co  Co10      1.0  0.04730  0.25000  0.57000  1.0000
  Co  Co11      1.0  0.45300  0.25000  0.57000  1.0000
  Co  Co12      1.0  0.75000  0.75000  0.70400  1.0000
  Co  Co13      1.0  0.13100  0.75000  0.71000  1.0000
  Co  Co14      1.0  0.36900  0.75000  0.71000  1.0000
  Co  Co15      1.0  0.25000  0.25000  0.84200  1.0000
  Co  Co16      1.0  0.75000  0.25000  0.98600  1.0000
  Co  Co17      1.0  0.58400  0.75000  0.99500  1.0000
  Co  Co18      1.0  0.91600  0.75000  0.99500  1.0000
  P   P1        1.0  0.59900  0.25000  0.10500  1.0000
  P   P2        1.0  0.90100  0.25000  0.10500  1.0000
  P   P3        1.0  0.25000  0.25000  0.11600  1.0000
  P   P4        1.0  0.75000  0.75000  0.34200  1.0000
  P   P5        1.0  0.05820  0.25000  0.38500  1.0000
  P   P6        1.0  0.44200  0.25000  0.38500  1.0000
  P   P7        1.0  0.55800  0.75000  0.61500  1.0000
  P   P8        1.0  0.94200  0.75000  0.61500  1.0000
  P   P9        1.0  0.25000  0.25000  0.65800  1.0000
  P   P10       1.0  0.75000  0.75000  0.88400  1.0000
  P   P11       1.0  0.09860  0.75000  0.89500  1.0000
  P   P12       1.0  0.40100  0.75000  0.89500  1.0000
  Sm  Sm1       1.0  0.06680  0.75000  0.20600  1.0000
  Sm  Sm2       1.0  0.43300  0.75000  0.20600  1.0000
  Sm  Sm3       1.0  0.25000  0.75000  0.47800  1.0000
  Sm  Sm4       1.0  0.75000  0.25000  0.52200  1.0000
  Sm  Sm5       1.0  0.56700  0.25000  0.79400  1.0000
  Sm  Sm6       1.0  0.93300  0.25000  0.79400  1.0000
