data_image0
_chemical_formula_structural       Bi12Rb4S20
_chemical_formula_sum              "Bi12 Rb4 S20"
_cell_length_a       12.7118
_cell_length_b       18.8913
_cell_length_c       4.23637
_cell_angle_alpha    90
_cell_angle_beta     90
_cell_angle_gamma    90

_space_group_name_H-M_alt    "P 1"
_space_group_IT_number       1

loop_
  _space_group_symop_operation_xyz
  'x, y, z'

loop_
  _atom_site_type_symbol
  _atom_site_label
  _atom_site_symmetry_multiplicity
  _atom_site_fract_x
  _atom_site_fract_y
  _atom_site_fract_z
  _atom_site_occupancy
  Bi  Bi1       1.0  0.04790  0.15200  0.00000  1.0000
  Bi  Bi2       1.0  0.72100  0.18500  0.00000  1.0000
  Bi  Bi3       1.0  0.33100  0.48000  0.00000  1.0000
  Bi  Bi4       1.0  0.66900  0.52000  0.00000  1.0000
  Bi  Bi5       1.0  0.27900  0.81500  0.00000  1.0000
  Bi  Bi6       1.0  0.95200  0.84800  0.00000  1.0000
  Bi  Bi7       1.0  0.83100  0.02010  0.50000  1.0000
  Bi  Bi8       1.0  0.22100  0.31500  0.50000  1.0000
  Bi  Bi9       1.0  0.54800  0.34800  0.50000  1.0000
  Bi  Bi10      1.0  0.45200  0.65200  0.50000  1.0000
  Bi  Bi11      1.0  0.77900  0.68500  0.50000  1.0000
  Bi  Bi12      1.0  0.16900  0.98000  0.50000  1.0000
  Rb  Rb1       1.0  0.39400  0.14900  0.00000  1.0000
  Rb  Rb2       1.0  0.60600  0.85100  0.00000  1.0000
  Rb  Rb3       1.0  0.89400  0.35100  0.50000  1.0000
  Rb  Rb4       1.0  0.10600  0.64900  0.50000  1.0000
  S   S1        1.0  0.00000  0.00000  0.00000  1.0000
  S   S2        1.0  0.50000  0.00000  0.00000  1.0000
  S   S3        1.0  0.67800  0.04340  0.00000  1.0000
  S   S4        1.0  0.08390  0.29600  0.00000  1.0000
  S   S5        1.0  0.38500  0.33400  0.00000  1.0000
  S   S6        1.0  0.68800  0.36600  0.00000  1.0000
  S   S7        1.0  0.31200  0.63400  0.00000  1.0000
  S   S8        1.0  0.61500  0.66600  0.00000  1.0000
  S   S9        1.0  0.91600  0.70400  0.00000  1.0000
  S   S10       1.0  0.32200  0.95700  0.00000  1.0000
  S   S11       1.0  0.18800  0.13400  0.50000  1.0000
  S   S12       1.0  0.88500  0.16600  0.50000  1.0000
  S   S13       1.0  0.58400  0.20400  0.50000  1.0000
  S   S14       1.0  0.17800  0.45700  0.50000  1.0000
  S   S15       1.0  0.00000  0.50000  0.50000  1.0000
  S   S16       1.0  0.50000  0.50000  0.50000  1.0000
  S   S17       1.0  0.82200  0.54300  0.50000  1.0000
  S   S18       1.0  0.41600  0.79600  0.50000  1.0000
  S   S19       1.0  0.11500  0.83400  0.50000  1.0000
  S   S20       1.0  0.81200  0.86600  0.50000  1.0000
