data_image0
_chemical_formula_structural       Co18Dy6P12
_chemical_formula_sum              "Co18 Dy6 P12"
_cell_length_a       10.4858
_cell_length_b       3.68379
_cell_length_c       12.1422
_cell_angle_alpha    90
_cell_angle_beta     90
_cell_angle_gamma    90

_space_group_name_H-M_alt    "P 1"
_space_group_IT_number       1

loop_
  _space_group_symop_operation_xyz
  'x, y, z'

loop_
  _atom_site_type_symbol
  _atom_site_label
  _atom_site_symmetry_multiplicity
  _atom_site_fract_x
  _atom_site_fract_y
  _atom_site_fract_z
  _atom_site_occupancy
  Co  Co1       1.0  0.08340  0.25000  0.00519  1.0000
  Co  Co2       1.0  0.41700  0.25000  0.00519  1.0000
  Co  Co3       1.0  0.25000  0.75000  0.01410  1.0000
  Co  Co4       1.0  0.75000  0.75000  0.15900  1.0000
  Co  Co5       1.0  0.62900  0.25000  0.29000  1.0000
  Co  Co6       1.0  0.87100  0.25000  0.29000  1.0000
  Co  Co7       1.0  0.25000  0.25000  0.29700  1.0000
  Co  Co8       1.0  0.54700  0.75000  0.43100  1.0000
  Co  Co9       1.0  0.95300  0.75000  0.43100  1.0000
  Co  Co10      1.0  0.04740  0.25000  0.56900  1.0000
  Co  Co11      1.0  0.45300  0.25000  0.56900  1.0000
  Co  Co12      1.0  0.75000  0.75000  0.70300  1.0000
  Co  Co13      1.0  0.12900  0.75000  0.71000  1.0000
  Co  Co14      1.0  0.37100  0.75000  0.71000  1.0000
  Co  Co15      1.0  0.25000  0.25000  0.84100  1.0000
  Co  Co16      1.0  0.75000  0.25000  0.98600  1.0000
  Co  Co17      1.0  0.58300  0.75000  0.99500  1.0000
  Co  Co18      1.0  0.91700  0.75000  0.99500  1.0000
  Dy  Dy1       1.0  0.06720  0.75000  0.20600  1.0000
  Dy  Dy2       1.0  0.43300  0.75000  0.20600  1.0000
  Dy  Dy3       1.0  0.25000  0.75000  0.47800  1.0000
  Dy  Dy4       1.0  0.75000  0.25000  0.52200  1.0000
  Dy  Dy5       1.0  0.56700  0.25000  0.79400  1.0000
  Dy  Dy6       1.0  0.93300  0.25000  0.79400  1.0000
  P   P1        1.0  0.59800  0.25000  0.10700  1.0000
  P   P2        1.0  0.90200  0.25000  0.10700  1.0000
  P   P3        1.0  0.25000  0.25000  0.11700  1.0000
  P   P4        1.0  0.75000  0.75000  0.34400  1.0000
  P   P5        1.0  0.06060  0.25000  0.38400  1.0000
  P   P6        1.0  0.43900  0.25000  0.38400  1.0000
  P   P7        1.0  0.56100  0.75000  0.61600  1.0000
  P   P8        1.0  0.93900  0.75000  0.61600  1.0000
  P   P9        1.0  0.25000  0.25000  0.65600  1.0000
  P   P10       1.0  0.75000  0.75000  0.88300  1.0000
  P   P11       1.0  0.09770  0.75000  0.89300  1.0000
  P   P12       1.0  0.40200  0.75000  0.89300  1.0000
