data_image0
_chemical_formula_structural       Nb8Ni4O24
_chemical_formula_sum              "Nb8 Ni4 O24"
_cell_length_a       14.0773
_cell_length_b       5.69659
_cell_length_c       5.02938
_cell_angle_alpha    90
_cell_angle_beta     90
_cell_angle_gamma    90

_space_group_name_H-M_alt    "P 1"
_space_group_IT_number       1

loop_
  _space_group_symop_operation_xyz
  'x, y, z'

loop_
  _atom_site_type_symbol
  _atom_site_label
  _atom_site_symmetry_multiplicity
  _atom_site_fract_x
  _atom_site_fract_y
  _atom_site_fract_z
  _atom_site_occupancy
  Nb  Nb1       1.0  0.34200  0.18400  0.24500  1.0000
  Nb  Nb2       1.0  0.15800  0.68400  0.24500  1.0000
  Nb  Nb3       1.0  0.65800  0.18400  0.25500  1.0000
  Nb  Nb4       1.0  0.84200  0.68400  0.25500  1.0000
  Nb  Nb5       1.0  0.15800  0.31600  0.74500  1.0000
  Nb  Nb6       1.0  0.34200  0.81600  0.74500  1.0000
  Nb  Nb7       1.0  0.84200  0.31600  0.75500  1.0000
  Nb  Nb8       1.0  0.65800  0.81600  0.75500  1.0000
  Ni  Ni1       1.0  0.00000  0.15500  0.25000  1.0000
  Ni  Ni2       1.0  0.50000  0.65500  0.25000  1.0000
  Ni  Ni3       1.0  0.50000  0.34500  0.75000  1.0000
  Ni  Ni4       1.0  0.00000  0.84500  0.75000  1.0000
  O   O1        1.0  0.24400  0.37900  0.07600  1.0000
  O   O2        1.0  0.25600  0.87900  0.07600  1.0000
  O   O3        1.0  0.90800  0.39200  0.08030  1.0000
  O   O4        1.0  0.59200  0.89200  0.08030  1.0000
  O   O5        1.0  0.57800  0.38900  0.08270  1.0000
  O   O6        1.0  0.92200  0.88900  0.08270  1.0000
  O   O7        1.0  0.42200  0.38900  0.41700  1.0000
  O   O8        1.0  0.07820  0.88900  0.41700  1.0000
  O   O9        1.0  0.09220  0.39200  0.42000  1.0000
  O   O10       1.0  0.40800  0.89200  0.42000  1.0000
  O   O11       1.0  0.75600  0.37900  0.42400  1.0000
  O   O12       1.0  0.74400  0.87900  0.42400  1.0000
  O   O13       1.0  0.25600  0.12100  0.57600  1.0000
  O   O14       1.0  0.24400  0.62100  0.57600  1.0000
  O   O15       1.0  0.59200  0.10800  0.58000  1.0000
  O   O16       1.0  0.90800  0.60800  0.58000  1.0000
  O   O17       1.0  0.92200  0.11100  0.58300  1.0000
  O   O18       1.0  0.57800  0.61100  0.58300  1.0000
  O   O19       1.0  0.07820  0.11100  0.91700  1.0000
  O   O20       1.0  0.42200  0.61100  0.91700  1.0000
  O   O21       1.0  0.40800  0.10800  0.92000  1.0000
  O   O22       1.0  0.09220  0.60800  0.92000  1.0000
  O   O23       1.0  0.74400  0.12100  0.92400  1.0000
  O   O24       1.0  0.75600  0.62100  0.92400  1.0000
