data_image0
_chemical_formula_structural       Co4Dy12
_chemical_formula_sum              "Co4 Dy12"
_cell_length_a       6.91207
_cell_length_b       9.38929
_cell_length_c       6.21229
_cell_angle_alpha    90
_cell_angle_beta     90
_cell_angle_gamma    90

_space_group_name_H-M_alt    "P 1"
_space_group_IT_number       1

loop_
  _space_group_symop_operation_xyz
  'x, y, z'

loop_
  _atom_site_type_symbol
  _atom_site_label
  _atom_site_symmetry_multiplicity
  _atom_site_fract_x
  _atom_site_fract_y
  _atom_site_fract_z
  _atom_site_occupancy
  Co  Co1       1.0  0.88800  0.25000  0.04820  1.0000
  Co  Co2       1.0  0.38800  0.25000  0.45200  1.0000
  Co  Co3       1.0  0.61200  0.75000  0.54800  1.0000
  Co  Co4       1.0  0.11200  0.75000  0.95200  1.0000
  Dy  Dy1       1.0  0.45600  0.75000  0.14200  1.0000
  Dy  Dy2       1.0  0.17500  0.06760  0.17600  1.0000
  Dy  Dy3       1.0  0.17500  0.43200  0.17600  1.0000
  Dy  Dy4       1.0  0.67500  0.06760  0.32400  1.0000
  Dy  Dy5       1.0  0.67500  0.43200  0.32400  1.0000
  Dy  Dy6       1.0  0.95600  0.75000  0.35800  1.0000
  Dy  Dy7       1.0  0.04380  0.25000  0.64200  1.0000
  Dy  Dy8       1.0  0.32500  0.56800  0.67600  1.0000
  Dy  Dy9       1.0  0.32500  0.93200  0.67600  1.0000
  Dy  Dy10      1.0  0.82500  0.56800  0.82400  1.0000
  Dy  Dy11      1.0  0.82500  0.93200  0.82400  1.0000
  Dy  Dy12      1.0  0.54400  0.25000  0.85800  1.0000
