data_image0
_chemical_formula_structural       Co18Er6P12
_chemical_formula_sum              "Co18 Er6 P12"
_cell_length_a       10.4745
_cell_length_b       3.66656
_cell_length_c       12.1271
_cell_angle_alpha    90
_cell_angle_beta     90
_cell_angle_gamma    90

_space_group_name_H-M_alt    "P 1"
_space_group_IT_number       1

loop_
  _space_group_symop_operation_xyz
  'x, y, z'

loop_
  _atom_site_type_symbol
  _atom_site_label
  _atom_site_symmetry_multiplicity
  _atom_site_fract_x
  _atom_site_fract_y
  _atom_site_fract_z
  _atom_site_occupancy
  Co  Co1       1.0  0.08380  0.25000  0.00572  1.0000
  Co  Co2       1.0  0.41600  0.25000  0.00572  1.0000
  Co  Co3       1.0  0.25000  0.75000  0.01490  1.0000
  Co  Co4       1.0  0.75000  0.75000  0.15700  1.0000
  Co  Co5       1.0  0.62900  0.25000  0.28900  1.0000
  Co  Co6       1.0  0.87100  0.25000  0.28900  1.0000
  Co  Co7       1.0  0.25000  0.25000  0.29800  1.0000
  Co  Co8       1.0  0.54800  0.75000  0.43000  1.0000
  Co  Co9       1.0  0.95200  0.75000  0.43000  1.0000
  Co  Co10      1.0  0.04800  0.25000  0.57000  1.0000
  Co  Co11      1.0  0.45200  0.25000  0.57000  1.0000
  Co  Co12      1.0  0.75000  0.75000  0.70200  1.0000
  Co  Co13      1.0  0.12900  0.75000  0.71100  1.0000
  Co  Co14      1.0  0.37100  0.75000  0.71100  1.0000
  Co  Co15      1.0  0.25000  0.25000  0.84300  1.0000
  Co  Co16      1.0  0.75000  0.25000  0.98500  1.0000
  Co  Co17      1.0  0.58400  0.75000  0.99400  1.0000
  Co  Co18      1.0  0.91600  0.75000  0.99400  1.0000
  Er  Er1       1.0  0.06750  0.75000  0.20600  1.0000
  Er  Er2       1.0  0.43200  0.75000  0.20600  1.0000
  Er  Er3       1.0  0.25000  0.75000  0.47900  1.0000
  Er  Er4       1.0  0.75000  0.25000  0.52100  1.0000
  Er  Er5       1.0  0.56800  0.25000  0.79400  1.0000
  Er  Er6       1.0  0.93200  0.25000  0.79400  1.0000
  P   P1        1.0  0.59700  0.25000  0.10600  1.0000
  P   P2        1.0  0.90300  0.25000  0.10600  1.0000
  P   P3        1.0  0.25000  0.25000  0.11900  1.0000
  P   P4        1.0  0.75000  0.75000  0.34300  1.0000
  P   P5        1.0  0.06090  0.25000  0.38300  1.0000
  P   P6        1.0  0.43900  0.25000  0.38300  1.0000
  P   P7        1.0  0.56100  0.75000  0.61700  1.0000
  P   P8        1.0  0.93900  0.75000  0.61700  1.0000
  P   P9        1.0  0.25000  0.25000  0.65700  1.0000
  P   P10       1.0  0.75000  0.75000  0.88100  1.0000
  P   P11       1.0  0.09690  0.75000  0.89400  1.0000
  P   P12       1.0  0.40300  0.75000  0.89400  1.0000
