data_image0
_chemical_formula_structural       Fe4Nb8O24
_chemical_formula_sum              "Fe4 Nb8 O24"
_cell_length_a       14.3177
_cell_length_b       5.7387
_cell_length_c       5.07597
_cell_angle_alpha    90
_cell_angle_beta     90
_cell_angle_gamma    90

_space_group_name_H-M_alt    "P 1"
_space_group_IT_number       1

loop_
  _space_group_symop_operation_xyz
  'x, y, z'

loop_
  _atom_site_type_symbol
  _atom_site_label
  _atom_site_symmetry_multiplicity
  _atom_site_fract_x
  _atom_site_fract_y
  _atom_site_fract_z
  _atom_site_occupancy
  Fe  Fe1       1.0  0.00000  0.16700  0.25000  1.0000
  Fe  Fe2       1.0  0.50000  0.66700  0.25000  1.0000
  Fe  Fe3       1.0  0.50000  0.33300  0.75000  1.0000
  Fe  Fe4       1.0  0.00000  0.83300  0.75000  1.0000
  Nb  Nb1       1.0  0.66000  0.18300  0.25000  1.0000
  Nb  Nb2       1.0  0.84000  0.68300  0.25000  1.0000
  Nb  Nb3       1.0  0.34000  0.18300  0.25000  1.0000
  Nb  Nb4       1.0  0.16000  0.68300  0.25000  1.0000
  Nb  Nb5       1.0  0.84000  0.31700  0.75000  1.0000
  Nb  Nb6       1.0  0.66000  0.81700  0.75000  1.0000
  Nb  Nb7       1.0  0.16000  0.31700  0.75000  1.0000
  Nb  Nb8       1.0  0.34000  0.81700  0.75000  1.0000
  O   O1        1.0  0.90500  0.39400  0.07470  1.0000
  O   O2        1.0  0.59500  0.89400  0.07470  1.0000
  O   O3        1.0  0.24400  0.37700  0.07780  1.0000
  O   O4        1.0  0.25600  0.87700  0.07780  1.0000
  O   O5        1.0  0.58000  0.38800  0.09400  1.0000
  O   O6        1.0  0.92000  0.88800  0.09400  1.0000
  O   O7        1.0  0.42000  0.38800  0.40600  1.0000
  O   O8        1.0  0.08020  0.88800  0.40600  1.0000
  O   O9        1.0  0.75600  0.37700  0.42200  1.0000
  O   O10       1.0  0.74400  0.87700  0.42200  1.0000
  O   O11       1.0  0.09530  0.39400  0.42500  1.0000
  O   O12       1.0  0.40500  0.89400  0.42500  1.0000
  O   O13       1.0  0.59500  0.10600  0.57500  1.0000
  O   O14       1.0  0.90500  0.60600  0.57500  1.0000
  O   O15       1.0  0.25600  0.12300  0.57800  1.0000
  O   O16       1.0  0.24400  0.62300  0.57800  1.0000
  O   O17       1.0  0.92000  0.11200  0.59400  1.0000
  O   O18       1.0  0.58000  0.61200  0.59400  1.0000
  O   O19       1.0  0.08020  0.11200  0.90600  1.0000
  O   O20       1.0  0.42000  0.61200  0.90600  1.0000
  O   O21       1.0  0.74400  0.12300  0.92200  1.0000
  O   O22       1.0  0.75600  0.62300  0.92200  1.0000
  O   O23       1.0  0.40500  0.10600  0.92500  1.0000
  O   O24       1.0  0.09530  0.60600  0.92500  1.0000
