data_image0
_chemical_formula_structural       Cd30Th6
_chemical_formula_sum              "Cd30 Th6"
_cell_length_a       9.85976
_cell_length_b       9.85978
_cell_length_c       10.1128
_cell_angle_alpha    90
_cell_angle_beta     90
_cell_angle_gamma    120

_space_group_name_H-M_alt    "P 1"
_space_group_IT_number       1

loop_
  _space_group_symop_operation_xyz
  'x, y, z'

loop_
  _atom_site_type_symbol
  _atom_site_label
  _atom_site_symmetry_multiplicity
  _atom_site_fract_x
  _atom_site_fract_y
  _atom_site_fract_z
  _atom_site_occupancy
  Cd  Cd1       1.0  0.00000  0.00000  0.00000  1.0000
  Cd  Cd2       1.0  0.50000  0.00000  0.00000  1.0000
  Cd  Cd3       1.0  0.00000  0.50000  0.00000  1.0000
  Cd  Cd4       1.0  0.50000  0.50000  0.00000  1.0000
  Cd  Cd5       1.0  0.33300  0.66700  0.04350  1.0000
  Cd  Cd6       1.0  0.84100  0.68200  0.09300  1.0000
  Cd  Cd7       1.0  0.31800  0.15900  0.09300  1.0000
  Cd  Cd8       1.0  0.84100  0.15900  0.09300  1.0000
  Cd  Cd9       1.0  0.56700  0.13400  0.25000  1.0000
  Cd  Cd10      1.0  0.56700  0.43300  0.25000  1.0000
  Cd  Cd11      1.0  0.86600  0.43300  0.25000  1.0000
  Cd  Cd12      1.0  0.31800  0.15900  0.40700  1.0000
  Cd  Cd13      1.0  0.84100  0.15900  0.40700  1.0000
  Cd  Cd14      1.0  0.84100  0.68200  0.40700  1.0000
  Cd  Cd15      1.0  0.33300  0.66700  0.45700  1.0000
  Cd  Cd16      1.0  0.00000  0.00000  0.50000  1.0000
  Cd  Cd17      1.0  0.50000  0.00000  0.50000  1.0000
  Cd  Cd18      1.0  0.00000  0.50000  0.50000  1.0000
  Cd  Cd19      1.0  0.50000  0.50000  0.50000  1.0000
  Cd  Cd20      1.0  0.66700  0.33300  0.54300  1.0000
  Cd  Cd21      1.0  0.15900  0.31800  0.59300  1.0000
  Cd  Cd22      1.0  0.15900  0.84100  0.59300  1.0000
  Cd  Cd23      1.0  0.68200  0.84100  0.59300  1.0000
  Cd  Cd24      1.0  0.13400  0.56700  0.75000  1.0000
  Cd  Cd25      1.0  0.43300  0.56700  0.75000  1.0000
  Cd  Cd26      1.0  0.43300  0.86600  0.75000  1.0000
  Cd  Cd27      1.0  0.15900  0.84100  0.90700  1.0000
  Cd  Cd28      1.0  0.68200  0.84100  0.90700  1.0000
  Cd  Cd29      1.0  0.15900  0.31800  0.90700  1.0000
  Cd  Cd30      1.0  0.66700  0.33300  0.95700  1.0000
  Th  Th1       1.0  0.18600  0.37300  0.25000  1.0000
  Th  Th2       1.0  0.18600  0.81400  0.25000  1.0000
  Th  Th3       1.0  0.62700  0.81400  0.25000  1.0000
  Th  Th4       1.0  0.37300  0.18600  0.75000  1.0000
  Th  Th5       1.0  0.81400  0.18600  0.75000  1.0000
  Th  Th6       1.0  0.81400  0.62700  0.75000  1.0000
