data_image0
_chemical_formula_structural       Co9Yb3
_chemical_formula_sum              "Co9 Yb3"
_cell_length_a       4.93044
_cell_length_b       4.93044
_cell_length_c       8.48044
_cell_angle_alpha    106.9
_cell_angle_beta     73.1004
_cell_angle_gamma    120

_space_group_name_H-M_alt    "P 1"
_space_group_IT_number       1

loop_
  _space_group_symop_operation_xyz
  'x, y, z'

loop_
  _atom_site_type_symbol
  _atom_site_label
  _atom_site_symmetry_multiplicity
  _atom_site_fract_x
  _atom_site_fract_y
  _atom_site_fract_z
  _atom_site_occupancy
  Co  Co1       1.0  0.33500  0.66500  0.99600  1.0000
  Co  Co2       1.0  0.66500  0.33500  0.00422  1.0000
  Co  Co3       1.0  0.92000  0.58300  0.24500  1.0000
  Co  Co4       1.0  0.41700  0.07950  0.24500  1.0000
  Co  Co5       1.0  0.41700  0.58300  0.24500  1.0000
  Co  Co6       1.0  0.50000  0.50000  0.50000  1.0000
  Co  Co7       1.0  0.58300  0.41700  0.75500  1.0000
  Co  Co8       1.0  0.58300  0.92000  0.75500  1.0000
  Co  Co9       1.0  0.07950  0.41700  0.75500  1.0000
  Yb  Yb1       1.0  0.00000  0.00000  0.00000  1.0000
  Yb  Yb2       1.0  0.85800  0.14200  0.42600  1.0000
  Yb  Yb3       1.0  0.14200  0.85800  0.57400  1.0000
