data_image0
_chemical_formula_structural       F8Ge4O16V8
_chemical_formula_sum              "F8 Ge4 O16 V8"
_cell_length_a       9.34176
_cell_length_b       9.01717
_cell_length_c       4.8543
_cell_angle_alpha    90
_cell_angle_beta     90
_cell_angle_gamma    90

_space_group_name_H-M_alt    "P 1"
_space_group_IT_number       1

loop_
  _space_group_symop_operation_xyz
  'x, y, z'

loop_
  _atom_site_type_symbol
  _atom_site_label
  _atom_site_symmetry_multiplicity
  _atom_site_fract_x
  _atom_site_fract_y
  _atom_site_fract_z
  _atom_site_occupancy
  F   F1        1.0  0.74800  0.57200  0.07820  1.0000
  F   F2        1.0  0.74800  0.92800  0.07820  1.0000
  F   F3        1.0  0.24800  0.57200  0.42200  1.0000
  F   F4        1.0  0.24800  0.92800  0.42200  1.0000
  F   F5        1.0  0.75200  0.07230  0.57800  1.0000
  F   F6        1.0  0.75200  0.42800  0.57800  1.0000
  F   F7        1.0  0.25200  0.07230  0.92200  1.0000
  F   F8        1.0  0.25200  0.42800  0.92200  1.0000
  Ge  Ge1       1.0  0.94000  0.25000  0.10400  1.0000
  Ge  Ge2       1.0  0.44000  0.25000  0.39600  1.0000
  Ge  Ge3       1.0  0.56000  0.75000  0.60400  1.0000
  Ge  Ge4       1.0  0.06050  0.75000  0.89600  1.0000
  O   O1        1.0  0.75200  0.25000  0.05940  1.0000
  O   O2        1.0  0.97500  0.75000  0.21900  1.0000
  O   O3        1.0  0.49600  0.08790  0.22200  1.0000
  O   O4        1.0  0.49600  0.41200  0.22200  1.0000
  O   O5        1.0  0.99600  0.08790  0.27800  1.0000
  O   O6        1.0  0.99600  0.41200  0.27800  1.0000
  O   O7        1.0  0.47500  0.75000  0.28100  1.0000
  O   O8        1.0  0.25200  0.25000  0.44100  1.0000
  O   O9        1.0  0.74800  0.75000  0.55900  1.0000
  O   O10       1.0  0.52500  0.25000  0.71900  1.0000
  O   O11       1.0  0.00408  0.58800  0.72200  1.0000
  O   O12       1.0  0.00408  0.91200  0.72200  1.0000
  O   O13       1.0  0.50400  0.58800  0.77800  1.0000
  O   O14       1.0  0.50400  0.91200  0.77800  1.0000
  O   O15       1.0  0.02520  0.25000  0.78100  1.0000
  O   O16       1.0  0.24800  0.75000  0.94100  1.0000
  V   V1        1.0  0.37000  0.58400  0.09420  1.0000
  V   V2        1.0  0.37000  0.91600  0.09420  1.0000
  V   V3        1.0  0.87000  0.58400  0.40600  1.0000
  V   V4        1.0  0.87000  0.91600  0.40600  1.0000
  V   V5        1.0  0.13000  0.08350  0.59400  1.0000
  V   V6        1.0  0.13000  0.41600  0.59400  1.0000
  V   V7        1.0  0.63000  0.08350  0.90600  1.0000
  V   V8        1.0  0.63000  0.41600  0.90600  1.0000
