data_image0
_chemical_formula_structural       Ce4Co20P12
_chemical_formula_sum              "Ce4 Co20 P12"
_cell_length_a       11.8617
_cell_length_b       3.70349
_cell_length_c       10.4558
_cell_angle_alpha    90
_cell_angle_beta     90
_cell_angle_gamma    90

_space_group_name_H-M_alt    "P 1"
_space_group_IT_number       1

loop_
  _space_group_symop_operation_xyz
  'x, y, z'

loop_
  _atom_site_type_symbol
  _atom_site_label
  _atom_site_symmetry_multiplicity
  _atom_site_fract_x
  _atom_site_fract_y
  _atom_site_fract_z
  _atom_site_occupancy
  Ce  Ce1       1.0  0.79900  0.75000  0.08420  1.0000
  Ce  Ce2       1.0  0.29900  0.75000  0.41600  1.0000
  Ce  Ce3       1.0  0.70100  0.25000  0.58400  1.0000
  Ce  Ce4       1.0  0.20100  0.25000  0.91600  1.0000
  Co  Co1       1.0  0.43300  0.25000  0.03000  1.0000
  Co  Co2       1.0  0.99100  0.25000  0.09590  1.0000
  Co  Co3       1.0  0.30300  0.75000  0.11700  1.0000
  Co  Co4       1.0  0.51100  0.75000  0.21200  1.0000
  Co  Co5       1.0  0.17600  0.25000  0.22000  1.0000
  Co  Co6       1.0  0.67600  0.25000  0.28000  1.0000
  Co  Co7       1.0  0.01060  0.75000  0.28800  1.0000
  Co  Co8       1.0  0.80300  0.75000  0.38300  1.0000
  Co  Co9       1.0  0.49100  0.25000  0.40400  1.0000
  Co  Co10      1.0  0.93300  0.25000  0.47000  1.0000
  Co  Co11      1.0  0.06700  0.75000  0.53000  1.0000
  Co  Co12      1.0  0.50900  0.75000  0.59600  1.0000
  Co  Co13      1.0  0.19700  0.25000  0.61700  1.0000
  Co  Co14      1.0  0.98900  0.25000  0.71200  1.0000
  Co  Co15      1.0  0.32400  0.75000  0.72000  1.0000
  Co  Co16      1.0  0.82400  0.75000  0.78000  1.0000
  Co  Co17      1.0  0.48900  0.25000  0.78800  1.0000
  Co  Co18      1.0  0.69700  0.25000  0.88300  1.0000
  Co  Co19      1.0  0.00893  0.75000  0.90400  1.0000
  Co  Co20      1.0  0.56700  0.75000  0.97000  1.0000
  P   P1        1.0  0.60900  0.25000  0.08280  1.0000
  P   P2        1.0  0.10700  0.75000  0.10700  1.0000
  P   P3        1.0  0.37100  0.25000  0.22200  1.0000
  P   P4        1.0  0.87100  0.25000  0.27800  1.0000
  P   P5        1.0  0.60700  0.75000  0.39300  1.0000
  P   P6        1.0  0.10900  0.25000  0.41700  1.0000
  P   P7        1.0  0.89100  0.75000  0.58300  1.0000
  P   P8        1.0  0.39300  0.25000  0.60700  1.0000
  P   P9        1.0  0.12900  0.75000  0.72200  1.0000
  P   P10       1.0  0.62900  0.75000  0.77800  1.0000
  P   P11       1.0  0.89300  0.25000  0.89300  1.0000
  P   P12       1.0  0.39100  0.75000  0.91700  1.0000
