data_image0
_chemical_formula_structural       Ce20Pb16
_chemical_formula_sum              "Ce20 Pb16"
_cell_length_a       8.52386
_cell_length_b       16.3146
_cell_length_c       8.68058
_cell_angle_alpha    90
_cell_angle_beta     90
_cell_angle_gamma    90

_space_group_name_H-M_alt    "P 1"
_space_group_IT_number       1

loop_
  _space_group_symop_operation_xyz
  'x, y, z'

loop_
  _atom_site_type_symbol
  _atom_site_label
  _atom_site_symmetry_multiplicity
  _atom_site_fract_x
  _atom_site_fract_y
  _atom_site_fract_z
  _atom_site_occupancy
  Ce  Ce1       1.0  0.30200  0.25000  0.00281  1.0000
  Ce  Ce2       1.0  0.63200  0.12000  0.15900  1.0000
  Ce  Ce3       1.0  0.63200  0.38000  0.15900  1.0000
  Ce  Ce4       1.0  0.01790  0.59900  0.18000  1.0000
  Ce  Ce5       1.0  0.01790  0.90100  0.18000  1.0000
  Ce  Ce6       1.0  0.51800  0.59900  0.32000  1.0000
  Ce  Ce7       1.0  0.51800  0.90100  0.32000  1.0000
  Ce  Ce8       1.0  0.13200  0.12000  0.34100  1.0000
  Ce  Ce9       1.0  0.13200  0.38000  0.34100  1.0000
  Ce  Ce10      1.0  0.80200  0.25000  0.49700  1.0000
  Ce  Ce11      1.0  0.19800  0.75000  0.50300  1.0000
  Ce  Ce12      1.0  0.86800  0.62000  0.65900  1.0000
  Ce  Ce13      1.0  0.86800  0.88000  0.65900  1.0000
  Ce  Ce14      1.0  0.48200  0.09860  0.68000  1.0000
  Ce  Ce15      1.0  0.48200  0.40100  0.68000  1.0000
  Ce  Ce16      1.0  0.98200  0.09860  0.82000  1.0000
  Ce  Ce17      1.0  0.98200  0.40100  0.82000  1.0000
  Ce  Ce18      1.0  0.36800  0.62000  0.84100  1.0000
  Ce  Ce19      1.0  0.36800  0.88000  0.84100  1.0000
  Ce  Ce20      1.0  0.69800  0.75000  0.99700  1.0000
  Pb  Pb1       1.0  0.28800  0.04190  0.03870  1.0000
  Pb  Pb2       1.0  0.28800  0.45800  0.03870  1.0000
  Pb  Pb3       1.0  0.93500  0.25000  0.11700  1.0000
  Pb  Pb4       1.0  0.32600  0.75000  0.14800  1.0000
  Pb  Pb5       1.0  0.82600  0.75000  0.35200  1.0000
  Pb  Pb6       1.0  0.43500  0.25000  0.38300  1.0000
  Pb  Pb7       1.0  0.78800  0.04190  0.46100  1.0000
  Pb  Pb8       1.0  0.78800  0.45800  0.46100  1.0000
  Pb  Pb9       1.0  0.21200  0.54200  0.53900  1.0000
  Pb  Pb10      1.0  0.21200  0.95800  0.53900  1.0000
  Pb  Pb11      1.0  0.56500  0.75000  0.61700  1.0000
  Pb  Pb12      1.0  0.17400  0.25000  0.64800  1.0000
  Pb  Pb13      1.0  0.67400  0.25000  0.85200  1.0000
  Pb  Pb14      1.0  0.06500  0.75000  0.88300  1.0000
  Pb  Pb15      1.0  0.71200  0.54200  0.96100  1.0000
  Pb  Pb16      1.0  0.71200  0.95800  0.96100  1.0000
