data_image0
_chemical_formula_structural       Co4Tb12
_chemical_formula_sum              "Co4 Tb12"
_cell_length_a       6.94339
_cell_length_b       9.46236
_cell_length_c       6.24272
_cell_angle_alpha    90
_cell_angle_beta     90
_cell_angle_gamma    90

_space_group_name_H-M_alt    "P 1"
_space_group_IT_number       1

loop_
  _space_group_symop_operation_xyz
  'x, y, z'

loop_
  _atom_site_type_symbol
  _atom_site_label
  _atom_site_symmetry_multiplicity
  _atom_site_fract_x
  _atom_site_fract_y
  _atom_site_fract_z
  _atom_site_occupancy
  Co  Co1       1.0  0.88800  0.25000  0.04940  1.0000
  Co  Co2       1.0  0.38800  0.25000  0.45100  1.0000
  Co  Co3       1.0  0.61200  0.75000  0.54900  1.0000
  Co  Co4       1.0  0.11200  0.75000  0.95100  1.0000
  Tb  Tb1       1.0  0.45500  0.75000  0.14400  1.0000
  Tb  Tb2       1.0  0.17500  0.06800  0.17600  1.0000
  Tb  Tb3       1.0  0.17500  0.43200  0.17600  1.0000
  Tb  Tb4       1.0  0.67500  0.06800  0.32400  1.0000
  Tb  Tb5       1.0  0.67500  0.43200  0.32400  1.0000
  Tb  Tb6       1.0  0.95500  0.75000  0.35600  1.0000
  Tb  Tb7       1.0  0.04510  0.25000  0.64400  1.0000
  Tb  Tb8       1.0  0.32500  0.56800  0.67600  1.0000
  Tb  Tb9       1.0  0.32500  0.93200  0.67600  1.0000
  Tb  Tb10      1.0  0.82500  0.56800  0.82400  1.0000
  Tb  Tb11      1.0  0.82500  0.93200  0.82400  1.0000
  Tb  Tb12      1.0  0.54500  0.25000  0.85600  1.0000
