data_image0
_chemical_formula_structural       Ni28Tb8
_chemical_formula_sum              "Ni28 Tb8"
_cell_length_a       4.92472
_cell_length_b       4.92475
_cell_length_c       24.1244
_cell_angle_alpha    90
_cell_angle_beta     90
_cell_angle_gamma    120

_space_group_name_H-M_alt    "P 1"
_space_group_IT_number       1

loop_
  _space_group_symop_operation_xyz
  'x, y, z'

loop_
  _atom_site_type_symbol
  _atom_site_label
  _atom_site_symmetry_multiplicity
  _atom_site_fract_x
  _atom_site_fract_y
  _atom_site_fract_z
  _atom_site_occupancy
  Ni  Ni1       1.0  0.00000  0.00000  0.00000  1.0000
  Ni  Ni2       1.0  0.83300  0.66600  0.08580  1.0000
  Ni  Ni3       1.0  0.33400  0.16700  0.08580  1.0000
  Ni  Ni4       1.0  0.83300  0.16700  0.08580  1.0000
  Ni  Ni5       1.0  0.00000  0.00000  0.16800  1.0000
  Ni  Ni6       1.0  0.66700  0.33300  0.16800  1.0000
  Ni  Ni7       1.0  0.33400  0.16700  0.25000  1.0000
  Ni  Ni8       1.0  0.83300  0.16700  0.25000  1.0000
  Ni  Ni9       1.0  0.83300  0.66600  0.25000  1.0000
  Ni  Ni10      1.0  0.66700  0.33300  0.33200  1.0000
  Ni  Ni11      1.0  0.00000  0.00000  0.33200  1.0000
  Ni  Ni12      1.0  0.33400  0.16700  0.41400  1.0000
  Ni  Ni13      1.0  0.83300  0.16700  0.41400  1.0000
  Ni  Ni14      1.0  0.83300  0.66600  0.41400  1.0000
  Ni  Ni15      1.0  0.00000  0.00000  0.50000  1.0000
  Ni  Ni16      1.0  0.16700  0.33400  0.58600  1.0000
  Ni  Ni17      1.0  0.16700  0.83300  0.58600  1.0000
  Ni  Ni18      1.0  0.66600  0.83300  0.58600  1.0000
  Ni  Ni19      1.0  0.00000  0.00000  0.66800  1.0000
  Ni  Ni20      1.0  0.33300  0.66700  0.66800  1.0000
  Ni  Ni21      1.0  0.16700  0.33400  0.75000  1.0000
  Ni  Ni22      1.0  0.16700  0.83300  0.75000  1.0000
  Ni  Ni23      1.0  0.66600  0.83300  0.75000  1.0000
  Ni  Ni24      1.0  0.33300  0.66700  0.83200  1.0000
  Ni  Ni25      1.0  0.00000  0.00000  0.83200  1.0000
  Ni  Ni26      1.0  0.16700  0.83300  0.91400  1.0000
  Ni  Ni27      1.0  0.66600  0.83300  0.91400  1.0000
  Ni  Ni28      1.0  0.16700  0.33400  0.91400  1.0000
  Tb  Tb1       1.0  0.33300  0.66700  0.02960  1.0000
  Tb  Tb2       1.0  0.33300  0.66700  0.17400  1.0000
  Tb  Tb3       1.0  0.33300  0.66700  0.32600  1.0000
  Tb  Tb4       1.0  0.33300  0.66700  0.47000  1.0000
  Tb  Tb5       1.0  0.66700  0.33300  0.53000  1.0000
  Tb  Tb6       1.0  0.66700  0.33300  0.67400  1.0000
  Tb  Tb7       1.0  0.66700  0.33300  0.82600  1.0000
  Tb  Tb8       1.0  0.66700  0.33300  0.97000  1.0000
