data_image0
_chemical_formula_structural       K20Sb12Sn4
_chemical_formula_sum              "K20 Sb12 Sn4"
_cell_length_a       16.2682
_cell_length_b       8.80129
_cell_length_c       9.94668
_cell_angle_alpha    90
_cell_angle_beta     89.8371
_cell_angle_gamma    90

_space_group_name_H-M_alt    "P 1"
_space_group_IT_number       1

loop_
  _space_group_symop_operation_xyz
  'x, y, z'

loop_
  _atom_site_type_symbol
  _atom_site_label
  _atom_site_symmetry_multiplicity
  _atom_site_fract_x
  _atom_site_fract_y
  _atom_site_fract_z
  _atom_site_occupancy
  K   K1        1.0  0.75900  0.66200  0.07700  1.0000
  K   K2        1.0  0.07920  0.67600  0.07850  1.0000
  K   K3        1.0  0.57700  0.98200  0.16500  1.0000
  K   K4        1.0  0.25700  0.99500  0.19400  1.0000
  K   K5        1.0  0.91300  0.99500  0.20000  1.0000
  K   K6        1.0  0.58700  0.49500  0.30000  1.0000
  K   K7        1.0  0.24300  0.49500  0.30600  1.0000
  K   K8        1.0  0.92300  0.48200  0.33500  1.0000
  K   K9        1.0  0.42100  0.17600  0.42100  1.0000
  K   K10       1.0  0.74100  0.16200  0.42300  1.0000
  K   K11       1.0  0.25900  0.83800  0.57700  1.0000
  K   K12       1.0  0.57900  0.82400  0.57900  1.0000
  K   K13       1.0  0.07700  0.51800  0.66500  1.0000
  K   K14       1.0  0.75700  0.50500  0.69400  1.0000
  K   K15       1.0  0.41300  0.50500  0.70000  1.0000
  K   K16       1.0  0.08740  0.00526  0.80000  1.0000
  K   K17       1.0  0.74300  0.00510  0.80600  1.0000
  K   K18       1.0  0.42300  0.01800  0.83500  1.0000
  K   K19       1.0  0.92100  0.32400  0.92100  1.0000
  K   K20       1.0  0.24100  0.33800  0.92300  1.0000
  Sb  Sb1       1.0  0.72800  0.26600  0.07890  1.0000
  Sb  Sb2       1.0  0.43400  0.31000  0.08090  1.0000
  Sb  Sb3       1.0  0.08060  0.26100  0.15500  1.0000
  Sb  Sb4       1.0  0.41900  0.76100  0.34500  1.0000
  Sb  Sb5       1.0  0.06550  0.81000  0.41900  1.0000
  Sb  Sb6       1.0  0.77200  0.76600  0.42100  1.0000
  Sb  Sb7       1.0  0.22800  0.23400  0.57900  1.0000
  Sb  Sb8       1.0  0.93400  0.19000  0.58100  1.0000
  Sb  Sb9       1.0  0.58100  0.23900  0.65500  1.0000
  Sb  Sb10      1.0  0.91900  0.73900  0.84500  1.0000
  Sb  Sb11      1.0  0.56600  0.69000  0.91900  1.0000
  Sb  Sb12      1.0  0.27200  0.73400  0.92100  1.0000
  Sn  Sn1       1.0  0.41300  0.64300  0.07470  1.0000
  Sn  Sn2       1.0  0.08690  0.14300  0.42500  1.0000
  Sn  Sn3       1.0  0.91300  0.85700  0.57500  1.0000
  Sn  Sn4       1.0  0.58700  0.35700  0.92500  1.0000
