data_image0
_chemical_formula_structural       Er20Pt16
_chemical_formula_sum              "Er20 Pt16"
_cell_length_a       7.41496
_cell_length_b       14.5377
_cell_length_c       7.48442
_cell_angle_alpha    90
_cell_angle_beta     90
_cell_angle_gamma    90

_space_group_name_H-M_alt    "P 1"
_space_group_IT_number       1

loop_
  _space_group_symop_operation_xyz
  'x, y, z'

loop_
  _atom_site_type_symbol
  _atom_site_label
  _atom_site_symmetry_multiplicity
  _atom_site_fract_x
  _atom_site_fract_y
  _atom_site_fract_z
  _atom_site_occupancy
  Er  Er1       1.0  0.69800  0.75000  0.01070  1.0000
  Er  Er2       1.0  0.64100  0.12300  0.16700  1.0000
  Er  Er3       1.0  0.64100  0.37700  0.16700  1.0000
  Er  Er4       1.0  0.01370  0.59300  0.17700  1.0000
  Er  Er5       1.0  0.01370  0.90700  0.17700  1.0000
  Er  Er6       1.0  0.51400  0.59300  0.32300  1.0000
  Er  Er7       1.0  0.51400  0.90700  0.32300  1.0000
  Er  Er8       1.0  0.14100  0.12300  0.33300  1.0000
  Er  Er9       1.0  0.14100  0.37700  0.33300  1.0000
  Er  Er10      1.0  0.19800  0.75000  0.48900  1.0000
  Er  Er11      1.0  0.80200  0.25000  0.51100  1.0000
  Er  Er12      1.0  0.85900  0.62300  0.66700  1.0000
  Er  Er13      1.0  0.85900  0.87700  0.66700  1.0000
  Er  Er14      1.0  0.48600  0.09340  0.67700  1.0000
  Er  Er15      1.0  0.48600  0.40700  0.67700  1.0000
  Er  Er16      1.0  0.98600  0.09340  0.82300  1.0000
  Er  Er17      1.0  0.98600  0.40700  0.82300  1.0000
  Er  Er18      1.0  0.35900  0.62300  0.83300  1.0000
  Er  Er19      1.0  0.35900  0.87700  0.83300  1.0000
  Er  Er20      1.0  0.30200  0.25000  0.98900  1.0000
  Pt  Pt1       1.0  0.30700  0.04110  0.03110  1.0000
  Pt  Pt2       1.0  0.30700  0.45900  0.03110  1.0000
  Pt  Pt3       1.0  0.93600  0.25000  0.11200  1.0000
  Pt  Pt4       1.0  0.33800  0.75000  0.14400  1.0000
  Pt  Pt5       1.0  0.83800  0.75000  0.35600  1.0000
  Pt  Pt6       1.0  0.43600  0.25000  0.38800  1.0000
  Pt  Pt7       1.0  0.80700  0.04110  0.46900  1.0000
  Pt  Pt8       1.0  0.80700  0.45900  0.46900  1.0000
  Pt  Pt9       1.0  0.19300  0.54100  0.53100  1.0000
  Pt  Pt10      1.0  0.19300  0.95900  0.53100  1.0000
  Pt  Pt11      1.0  0.56400  0.75000  0.61200  1.0000
  Pt  Pt12      1.0  0.16200  0.25000  0.64400  1.0000
  Pt  Pt13      1.0  0.66200  0.25000  0.85600  1.0000
  Pt  Pt14      1.0  0.06360  0.75000  0.88800  1.0000
  Pt  Pt15      1.0  0.69300  0.54100  0.96900  1.0000
  Pt  Pt16      1.0  0.69300  0.95900  0.96900  1.0000
