data_image0
_chemical_formula_structural       Er4Ge12Ni20
_chemical_formula_sum              "Er4 Ge12 Ni20"
_cell_length_a       19.0916
_cell_length_b       3.85706
_cell_length_c       6.81183
_cell_angle_alpha    90
_cell_angle_beta     90
_cell_angle_gamma    90

_space_group_name_H-M_alt    "P 1"
_space_group_IT_number       1

loop_
  _space_group_symop_operation_xyz
  'x, y, z'

loop_
  _atom_site_type_symbol
  _atom_site_label
  _atom_site_symmetry_multiplicity
  _atom_site_fract_x
  _atom_site_fract_y
  _atom_site_fract_z
  _atom_site_occupancy
  Er  Er1       1.0  0.85400  0.75000  0.12100  1.0000
  Er  Er2       1.0  0.35400  0.75000  0.37900  1.0000
  Er  Er3       1.0  0.64600  0.25000  0.62100  1.0000
  Er  Er4       1.0  0.14600  0.25000  0.87900  1.0000
  Ge  Ge1       1.0  0.41400  0.25000  0.09590  1.0000
  Ge  Ge2       1.0  0.73700  0.25000  0.11700  1.0000
  Ge  Ge3       1.0  0.07710  0.75000  0.14800  1.0000
  Ge  Ge4       1.0  0.57700  0.75000  0.35200  1.0000
  Ge  Ge5       1.0  0.23700  0.25000  0.38300  1.0000
  Ge  Ge6       1.0  0.91400  0.25000  0.40400  1.0000
  Ge  Ge7       1.0  0.08560  0.75000  0.59600  1.0000
  Ge  Ge8       1.0  0.76300  0.75000  0.61700  1.0000
  Ge  Ge9       1.0  0.42300  0.25000  0.64800  1.0000
  Ge  Ge10      1.0  0.92300  0.25000  0.85200  1.0000
  Ge  Ge11      1.0  0.26300  0.75000  0.88300  1.0000
  Ge  Ge12      1.0  0.58600  0.75000  0.90400  1.0000
  Ni  Ni1       1.0  0.29300  0.25000  0.07450  1.0000
  Ni  Ni2       1.0  0.48700  0.75000  0.12000  1.0000
  Ni  Ni3       1.0  0.99700  0.25000  0.13100  1.0000
  Ni  Ni4       1.0  0.61200  0.25000  0.13900  1.0000
  Ni  Ni5       1.0  0.20100  0.75000  0.18900  1.0000
  Ni  Ni6       1.0  0.70100  0.75000  0.31100  1.0000
  Ni  Ni7       1.0  0.11200  0.25000  0.36100  1.0000
  Ni  Ni8       1.0  0.49700  0.25000  0.36900  1.0000
  Ni  Ni9       1.0  0.98700  0.75000  0.38000  1.0000
  Ni  Ni10      1.0  0.79300  0.25000  0.42500  1.0000
  Ni  Ni11      1.0  0.20700  0.75000  0.57500  1.0000
  Ni  Ni12      1.0  0.01260  0.25000  0.62000  1.0000
  Ni  Ni13      1.0  0.50300  0.75000  0.63100  1.0000
  Ni  Ni14      1.0  0.88800  0.75000  0.63900  1.0000
  Ni  Ni15      1.0  0.29900  0.25000  0.68900  1.0000
  Ni  Ni16      1.0  0.79900  0.25000  0.81100  1.0000
  Ni  Ni17      1.0  0.38800  0.75000  0.86100  1.0000
  Ni  Ni18      1.0  0.00322  0.75000  0.86900  1.0000
  Ni  Ni19      1.0  0.51300  0.25000  0.88000  1.0000
  Ni  Ni20      1.0  0.70700  0.75000  0.92500  1.0000
