data_image0
_chemical_formula_structural       B24Os4Pu8
_chemical_formula_sum              "B24 Os4 Pu8"
_cell_length_a       9.37521
_cell_length_b       11.4418
_cell_length_c       3.57031
_cell_angle_alpha    90
_cell_angle_beta     90
_cell_angle_gamma    90

_space_group_name_H-M_alt    "P 1"
_space_group_IT_number       1

loop_
  _space_group_symop_operation_xyz
  'x, y, z'

loop_
  _atom_site_type_symbol
  _atom_site_label
  _atom_site_symmetry_multiplicity
  _atom_site_fract_x
  _atom_site_fract_y
  _atom_site_fract_z
  _atom_site_occupancy
  B   B1        1.0  0.64500  0.04090  0.50000  1.0000
  B   B2        1.0  0.05200  0.06860  0.50000  1.0000
  B   B3        1.0  0.24300  0.07590  0.50000  1.0000
  B   B4        1.0  0.64600  0.18900  0.50000  1.0000
  B   B5        1.0  0.98900  0.21900  0.50000  1.0000
  B   B6        1.0  0.30300  0.22500  0.50000  1.0000
  B   B7        1.0  0.80300  0.27500  0.50000  1.0000
  B   B8        1.0  0.48900  0.28100  0.50000  1.0000
  B   B9        1.0  0.14600  0.31100  0.50000  1.0000
  B   B10       1.0  0.74300  0.42400  0.50000  1.0000
  B   B11       1.0  0.55200  0.43100  0.50000  1.0000
  B   B12       1.0  0.14500  0.45900  0.50000  1.0000
  B   B13       1.0  0.85500  0.54100  0.50000  1.0000
  B   B14       1.0  0.44800  0.56900  0.50000  1.0000
  B   B15       1.0  0.25700  0.57600  0.50000  1.0000
  B   B16       1.0  0.85400  0.68900  0.50000  1.0000
  B   B17       1.0  0.51100  0.71900  0.50000  1.0000
  B   B18       1.0  0.19700  0.72500  0.50000  1.0000
  B   B19       1.0  0.69700  0.77500  0.50000  1.0000
  B   B20       1.0  0.01060  0.78100  0.50000  1.0000
  B   B21       1.0  0.35400  0.81100  0.50000  1.0000
  B   B22       1.0  0.75700  0.92400  0.50000  1.0000
  B   B23       1.0  0.94800  0.93100  0.50000  1.0000
  B   B24       1.0  0.35500  0.95900  0.50000  1.0000
  Os  Os1       1.0  0.14500  0.17900  0.00000  1.0000
  Os  Os2       1.0  0.64500  0.32100  0.00000  1.0000
  Os  Os3       1.0  0.35500  0.67900  0.00000  1.0000
  Os  Os4       1.0  0.85500  0.82100  0.00000  1.0000
  Pu  Pu1       1.0  0.83600  0.09320  0.00000  1.0000
  Pu  Pu2       1.0  0.45600  0.10700  0.00000  1.0000
  Pu  Pu3       1.0  0.95600  0.39300  0.00000  1.0000
  Pu  Pu4       1.0  0.33600  0.40700  0.00000  1.0000
  Pu  Pu5       1.0  0.66400  0.59300  0.00000  1.0000
  Pu  Pu6       1.0  0.04430  0.60700  0.00000  1.0000
  Pu  Pu7       1.0  0.54400  0.89300  0.00000  1.0000
  Pu  Pu8       1.0  0.16400  0.90700  0.00000  1.0000
