data_image0
_chemical_formula_structural       Ca2H12O18P4
_chemical_formula_sum              "Ca2 H12 O18 P4"
_cell_length_a       5.53703
_cell_length_b       11.685
_cell_length_c       6.32182
_cell_angle_alpha    98.9327
_cell_angle_beta     118.629
_cell_angle_gamma    83.3785

_space_group_name_H-M_alt    "P 1"
_space_group_IT_number       1

loop_
  _space_group_symop_operation_xyz
  'x, y, z'

loop_
  _atom_site_type_symbol
  _atom_site_label
  _atom_site_symmetry_multiplicity
  _atom_site_fract_x
  _atom_site_fract_y
  _atom_site_fract_z
  _atom_site_occupancy
  Ca  Ca1       1.0  0.26300  0.89700  0.22400  1.0000
  Ca  Ca2       1.0  0.73700  0.10300  0.77600  1.0000
  H   H1        1.0  0.36400  0.21100  0.05940  1.0000
  H   H2        1.0  0.96600  0.69200  0.11900  1.0000
  H   H3        1.0  0.09380  0.30900  0.14800  1.0000
  H   H4        1.0  0.94200  0.51400  0.28500  1.0000
  H   H5        1.0  0.31700  0.50800  0.29400  1.0000
  H   H6        1.0  0.88700  0.80100  0.45100  1.0000
  H   H7        1.0  0.11300  0.19900  0.54900  1.0000
  H   H8        1.0  0.68300  0.49200  0.70600  1.0000
  H   H9        1.0  0.05820  0.48600  0.71500  1.0000
  H   H10       1.0  0.90600  0.69100  0.85200  1.0000
  H   H11       1.0  0.03380  0.30800  0.88100  1.0000
  H   H12       1.0  0.63600  0.78900  0.94100  1.0000
  O   O1        1.0  0.07020  0.25400  0.00122  1.0000
  O   O2        1.0  0.55900  0.18700  0.08100  1.0000
  O   O3        1.0  0.92000  0.03570  0.17200  1.0000
  O   O4        1.0  0.81500  0.58600  0.23500  1.0000
  O   O5        1.0  0.35800  0.57700  0.23600  1.0000
  O   O6        1.0  0.57500  0.03390  0.34100  1.0000
  O   O7        1.0  0.19000  0.42100  0.36800  1.0000
  O   O8        1.0  0.62300  0.75700  0.40500  1.0000
  O   O9        1.0  0.07590  0.82300  0.47500  1.0000
  O   O10       1.0  0.92400  0.17700  0.52500  1.0000
  O   O11       1.0  0.37700  0.24300  0.59500  1.0000
  O   O12       1.0  0.81000  0.57900  0.63200  1.0000
  O   O13       1.0  0.42500  0.96600  0.65900  1.0000
  O   O14       1.0  0.64200  0.42300  0.76400  1.0000
  O   O15       1.0  0.18500  0.41400  0.76500  1.0000
  O   O16       1.0  0.07970  0.96400  0.82800  1.0000
  O   O17       1.0  0.44100  0.81300  0.91900  1.0000
  O   O18       1.0  0.93000  0.74600  0.99900  1.0000
  P   P1        1.0  0.74300  0.10100  0.27700  1.0000
  P   P2        1.0  0.65200  0.62600  0.38400  1.0000
  P   P3        1.0  0.34800  0.37400  0.61600  1.0000
  P   P4        1.0  0.25700  0.89900  0.72300  1.0000
