data_image0
_chemical_formula_structural       CsLuS2
_chemical_formula_sum              "Cs1 Lu1 S2"
_cell_length_a       4.01399
_cell_length_b       4.01399
_cell_length_c       8.34169
_cell_angle_alpha    103.922
_cell_angle_beta     76.0782
_cell_angle_gamma    120

_space_group_name_H-M_alt    "P 1"
_space_group_IT_number       1

loop_
  _space_group_symop_operation_xyz
  'x, y, z'

loop_
  _atom_site_type_symbol
  _atom_site_label
  _atom_site_symmetry_multiplicity
  _atom_site_fract_x
  _atom_site_fract_y
  _atom_site_fract_z
  _atom_site_occupancy
  Cs  Cs1       1.0  0.00000  0.00000  0.00000  1.0000
  Lu  Lu1       1.0  0.50000  0.50000  0.50000  1.0000
  S   S1        1.0  0.22600  0.77400  0.32100  1.0000
  S   S2        1.0  0.77400  0.22600  0.67900  1.0000
