data_image0
_chemical_formula_structural       Co18P12Yb6
_chemical_formula_sum              "Co18 P12 Yb6"
_cell_length_a       10.4586
_cell_length_b       3.66651
_cell_length_c       12.0361
_cell_angle_alpha    90
_cell_angle_beta     90
_cell_angle_gamma    90

_space_group_name_H-M_alt    "P 1"
_space_group_IT_number       1

loop_
  _space_group_symop_operation_xyz
  'x, y, z'

loop_
  _atom_site_type_symbol
  _atom_site_label
  _atom_site_symmetry_multiplicity
  _atom_site_fract_x
  _atom_site_fract_y
  _atom_site_fract_z
  _atom_site_occupancy
  Co  Co1       1.0  0.08280  0.25000  0.00547  1.0000
  Co  Co2       1.0  0.41700  0.25000  0.00547  1.0000
  Co  Co3       1.0  0.25000  0.75000  0.01390  1.0000
  Co  Co4       1.0  0.75000  0.75000  0.15800  1.0000
  Co  Co5       1.0  0.63000  0.25000  0.29100  1.0000
  Co  Co6       1.0  0.87000  0.25000  0.29100  1.0000
  Co  Co7       1.0  0.25000  0.25000  0.29900  1.0000
  Co  Co8       1.0  0.54800  0.75000  0.43100  1.0000
  Co  Co9       1.0  0.95200  0.75000  0.43100  1.0000
  Co  Co10      1.0  0.04810  0.25000  0.56900  1.0000
  Co  Co11      1.0  0.45200  0.25000  0.56900  1.0000
  Co  Co12      1.0  0.75000  0.75000  0.70100  1.0000
  Co  Co13      1.0  0.13000  0.75000  0.70900  1.0000
  Co  Co14      1.0  0.37000  0.75000  0.70900  1.0000
  Co  Co15      1.0  0.25000  0.25000  0.84200  1.0000
  Co  Co16      1.0  0.75000  0.25000  0.98600  1.0000
  Co  Co17      1.0  0.58300  0.75000  0.99500  1.0000
  Co  Co18      1.0  0.91700  0.75000  0.99500  1.0000
  P   P1        1.0  0.59800  0.25000  0.10700  1.0000
  P   P2        1.0  0.90200  0.25000  0.10700  1.0000
  P   P3        1.0  0.25000  0.25000  0.11800  1.0000
  P   P4        1.0  0.75000  0.75000  0.34300  1.0000
  P   P5        1.0  0.05850  0.25000  0.38300  1.0000
  P   P6        1.0  0.44200  0.25000  0.38300  1.0000
  P   P7        1.0  0.55800  0.75000  0.61700  1.0000
  P   P8        1.0  0.94200  0.75000  0.61700  1.0000
  P   P9        1.0  0.25000  0.25000  0.65700  1.0000
  P   P10       1.0  0.75000  0.75000  0.88200  1.0000
  P   P11       1.0  0.09750  0.75000  0.89300  1.0000
  P   P12       1.0  0.40200  0.75000  0.89300  1.0000
  Yb  Yb1       1.0  0.06920  0.75000  0.20600  1.0000
  Yb  Yb2       1.0  0.43100  0.75000  0.20600  1.0000
  Yb  Yb3       1.0  0.25000  0.75000  0.47400  1.0000
  Yb  Yb4       1.0  0.75000  0.25000  0.52600  1.0000
  Yb  Yb5       1.0  0.56900  0.25000  0.79400  1.0000
  Yb  Yb6       1.0  0.93100  0.25000  0.79400  1.0000
