data_image0
_chemical_formula_structural       Co20P12Pr4
_chemical_formula_sum              "Co20 P12 Pr4"
_cell_length_a       11.8341
_cell_length_b       3.69311
_cell_length_c       10.401
_cell_angle_alpha    90
_cell_angle_beta     90
_cell_angle_gamma    90

_space_group_name_H-M_alt    "P 1"
_space_group_IT_number       1

loop_
  _space_group_symop_operation_xyz
  'x, y, z'

loop_
  _atom_site_type_symbol
  _atom_site_label
  _atom_site_symmetry_multiplicity
  _atom_site_fract_x
  _atom_site_fract_y
  _atom_site_fract_z
  _atom_site_occupancy
  Co  Co1       1.0  0.43300  0.25000  0.03090  1.0000
  Co  Co2       1.0  0.99000  0.25000  0.09490  1.0000
  Co  Co3       1.0  0.30300  0.75000  0.11800  1.0000
  Co  Co4       1.0  0.51000  0.75000  0.21300  1.0000
  Co  Co5       1.0  0.17600  0.25000  0.22100  1.0000
  Co  Co6       1.0  0.67600  0.25000  0.27900  1.0000
  Co  Co7       1.0  0.00978  0.75000  0.28700  1.0000
  Co  Co8       1.0  0.80300  0.75000  0.38200  1.0000
  Co  Co9       1.0  0.49000  0.25000  0.40500  1.0000
  Co  Co10      1.0  0.93300  0.25000  0.46900  1.0000
  Co  Co11      1.0  0.06720  0.75000  0.53100  1.0000
  Co  Co12      1.0  0.51000  0.75000  0.59500  1.0000
  Co  Co13      1.0  0.19700  0.25000  0.61800  1.0000
  Co  Co14      1.0  0.99000  0.25000  0.71300  1.0000
  Co  Co15      1.0  0.32400  0.75000  0.72100  1.0000
  Co  Co16      1.0  0.82400  0.75000  0.77900  1.0000
  Co  Co17      1.0  0.49000  0.25000  0.78700  1.0000
  Co  Co18      1.0  0.69700  0.25000  0.88200  1.0000
  Co  Co19      1.0  0.00967  0.75000  0.90500  1.0000
  Co  Co20      1.0  0.56700  0.75000  0.96900  1.0000
  P   P1        1.0  0.60900  0.25000  0.08220  1.0000
  P   P2        1.0  0.10700  0.75000  0.10700  1.0000
  P   P3        1.0  0.37000  0.25000  0.22400  1.0000
  P   P4        1.0  0.87000  0.25000  0.27600  1.0000
  P   P5        1.0  0.60700  0.75000  0.39300  1.0000
  P   P6        1.0  0.10900  0.25000  0.41800  1.0000
  P   P7        1.0  0.89100  0.75000  0.58200  1.0000
  P   P8        1.0  0.39300  0.25000  0.60700  1.0000
  P   P9        1.0  0.13000  0.75000  0.72400  1.0000
  P   P10       1.0  0.63000  0.75000  0.77600  1.0000
  P   P11       1.0  0.89300  0.25000  0.89300  1.0000
  P   P12       1.0  0.39100  0.75000  0.91800  1.0000
  Pr  Pr1       1.0  0.79800  0.75000  0.08340  1.0000
  Pr  Pr2       1.0  0.29800  0.75000  0.41700  1.0000
  Pr  Pr3       1.0  0.70200  0.25000  0.58300  1.0000
  Pr  Pr4       1.0  0.20200  0.25000  0.91700  1.0000
