data_image0
_chemical_formula_structural       In2K2Mg2Mo6O24
_chemical_formula_sum              "In2 K2 Mg2 Mo6 O24"
_cell_length_a       9.45312
_cell_length_b       9.45312
_cell_length_c       9.79226
_cell_angle_alpha    118.912
_cell_angle_beta     118.912
_cell_angle_gamma    60.0073

_space_group_name_H-M_alt    "P 1"
_space_group_IT_number       1

loop_
  _space_group_symop_operation_xyz
  'x, y, z'

loop_
  _atom_site_type_symbol
  _atom_site_label
  _atom_site_symmetry_multiplicity
  _atom_site_fract_x
  _atom_site_fract_y
  _atom_site_fract_z
  _atom_site_occupancy
  In  In1       1.0  0.74600  0.47000  0.32400  1.0000
  In  In2       1.0  0.53000  0.25400  0.67600  1.0000
  K   K1        1.0  0.38600  0.11000  0.24000  1.0000
  K   K2        1.0  0.89000  0.61400  0.76000  1.0000
  Mg  Mg1       1.0  0.03160  0.75600  0.18200  1.0000
  Mg  Mg2       1.0  0.24400  0.96800  0.81800  1.0000
  Mo  Mo1       1.0  0.92900  0.07140  0.00000  1.0000
  Mo  Mo2       1.0  0.34800  0.36300  0.00067  1.0000
  Mo  Mo3       1.0  0.13700  0.58100  0.49900  1.0000
  Mo  Mo4       1.0  0.85700  0.14300  0.50000  1.0000
  Mo  Mo5       1.0  0.41900  0.86300  0.50100  1.0000
  Mo  Mo6       1.0  0.63700  0.65200  0.99900  1.0000
  O   O1        1.0  0.81800  0.68600  0.02640  1.0000
  O   O2        1.0  0.16100  0.54400  0.02680  1.0000
  O   O3        1.0  0.96200  0.88400  0.02730  1.0000
  O   O4        1.0  0.65900  0.62500  0.17800  1.0000
  O   O5        1.0  0.90300  0.25600  0.18000  1.0000
  O   O6        1.0  0.53200  0.38300  0.18100  1.0000
  O   O7        1.0  0.09020  0.61500  0.31700  1.0000
  O   O8        1.0  0.89400  0.97300  0.32100  1.0000
  O   O9        1.0  0.24800  0.81600  0.32400  1.0000
  O   O10       1.0  0.83500  0.34100  0.49500  1.0000
  O   O11       1.0  0.61700  0.68200  0.49500  1.0000
  O   O12       1.0  0.95600  0.56100  0.49500  1.0000
  O   O13       1.0  0.43900  0.04410  0.50500  1.0000
  O   O14       1.0  0.31800  0.38300  0.50500  1.0000
  O   O15       1.0  0.65900  0.16500  0.50500  1.0000
  O   O16       1.0  0.18400  0.75200  0.67600  1.0000
  O   O17       1.0  0.02700  0.10600  0.67900  1.0000
  O   O18       1.0  0.38500  0.91000  0.68300  1.0000
  O   O19       1.0  0.61700  0.46800  0.81900  1.0000
  O   O20       1.0  0.74400  0.09700  0.82000  1.0000
  O   O21       1.0  0.37500  0.34100  0.82200  1.0000
  O   O22       1.0  0.11600  0.03830  0.97300  1.0000
  O   O23       1.0  0.45600  0.83900  0.97300  1.0000
  O   O24       1.0  0.31400  0.18200  0.97400  1.0000
