data_image0
_chemical_formula_structural       B4Ni8O20V4
_chemical_formula_sum              "B4 Ni8 O20 V4"
_cell_length_a       9.20789
_cell_length_b       12.251
_cell_length_c       2.98707
_cell_angle_alpha    90
_cell_angle_beta     90
_cell_angle_gamma    90.0001

_space_group_name_H-M_alt    "P 1"
_space_group_IT_number       1

loop_
  _space_group_symop_operation_xyz
  'x, y, z'

loop_
  _atom_site_type_symbol
  _atom_site_label
  _atom_site_symmetry_multiplicity
  _atom_site_fract_x
  _atom_site_fract_y
  _atom_site_fract_z
  _atom_site_occupancy
  B   B1        1.0  0.77500  0.13900  0.00000  1.0000
  B   B2        1.0  0.27500  0.36100  0.00000  1.0000
  B   B3        1.0  0.72500  0.63900  0.00000  1.0000
  B   B4        1.0  0.22500  0.86100  0.00000  1.0000
  Ni  Ni1       1.0  0.50000  0.00000  0.00000  1.0000
  Ni  Ni2       1.0  0.00000  0.50000  0.00000  1.0000
  Ni  Ni3       1.0  0.00000  0.00000  0.50000  1.0000
  Ni  Ni4       1.0  0.50100  0.21800  0.50000  1.0000
  Ni  Ni5       1.0  0.00082  0.28200  0.50000  1.0000
  Ni  Ni6       1.0  0.50000  0.50000  0.50000  1.0000
  Ni  Ni7       1.0  0.99900  0.71800  0.50000  1.0000
  Ni  Ni8       1.0  0.49900  0.78200  0.50000  1.0000
  O   O1        1.0  0.85100  0.04220  0.00000  1.0000
  O   O2        1.0  0.62500  0.14100  0.00000  1.0000
  O   O3        1.0  0.85100  0.23700  0.00000  1.0000
  O   O4        1.0  0.35100  0.26300  0.00000  1.0000
  O   O5        1.0  0.12500  0.35900  0.00000  1.0000
  O   O6        1.0  0.35100  0.45800  0.00000  1.0000
  O   O7        1.0  0.64900  0.54200  0.00000  1.0000
  O   O8        1.0  0.87500  0.64100  0.00000  1.0000
  O   O9        1.0  0.64900  0.73700  0.00000  1.0000
  O   O10       1.0  0.14900  0.76300  0.00000  1.0000
  O   O11       1.0  0.37500  0.85900  0.00000  1.0000
  O   O12       1.0  0.14900  0.95800  0.00000  1.0000
  O   O13       1.0  0.38500  0.07690  0.50000  1.0000
  O   O14       1.0  0.10400  0.14300  0.50000  1.0000
  O   O15       1.0  0.60400  0.35700  0.50000  1.0000
  O   O16       1.0  0.88500  0.42300  0.50000  1.0000
  O   O17       1.0  0.11500  0.57700  0.50000  1.0000
  O   O18       1.0  0.39600  0.64300  0.50000  1.0000
  O   O19       1.0  0.89600  0.85700  0.50000  1.0000
  O   O20       1.0  0.61500  0.92300  0.50000  1.0000
  V   V1        1.0  0.24000  0.11400  0.00000  1.0000
  V   V2        1.0  0.74000  0.38600  0.00000  1.0000
  V   V3        1.0  0.26000  0.61400  0.00000  1.0000
  V   V4        1.0  0.76000  0.88600  0.00000  1.0000
