data_image0
_chemical_formula_structural       Na2O24P6Th4
_chemical_formula_sum              "Na2 O24 P6 Th4"
_cell_length_a       6.81335
_cell_length_b       8.11773
_cell_length_c       9.26379
_cell_angle_alpha    100.158
_cell_angle_beta     111.576
_cell_angle_gamma    90

_space_group_name_H-M_alt    "P 1"
_space_group_IT_number       1

loop_
  _space_group_symop_operation_xyz
  'x, y, z'

loop_
  _atom_site_type_symbol
  _atom_site_label
  _atom_site_symmetry_multiplicity
  _atom_site_fract_x
  _atom_site_fract_y
  _atom_site_fract_z
  _atom_site_occupancy
  Na  Na1       1.0  0.62800  0.86900  0.05010  1.0000
  Na  Na2       1.0  0.42200  0.36900  0.05010  1.0000
  O   O1        1.0  0.77700  0.39500  0.04920  1.0000
  O   O2        1.0  0.27200  0.89500  0.04920  1.0000
  O   O3        1.0  0.11200  0.26400  0.13800  1.0000
  O   O4        1.0  0.02610  0.76400  0.13800  1.0000
  O   O5        1.0  0.53000  0.17300  0.25600  1.0000
  O   O6        1.0  0.72600  0.67300  0.25600  1.0000
  O   O7        1.0  0.89300  0.07610  0.29100  1.0000
  O   O8        1.0  0.39800  0.57600  0.29100  1.0000
  O   O9        1.0  0.84300  0.38300  0.39200  1.0000
  O   O10       1.0  0.54800  0.88300  0.39200  1.0000
  O   O11       1.0  0.18900  0.83500  0.45100  1.0000
  O   O12       1.0  0.26100  0.33500  0.45100  1.0000
  O   O13       1.0  0.72900  0.67600  0.53600  1.0000
  O   O14       1.0  0.80700  0.17600  0.53600  1.0000
  O   O15       1.0  0.44800  0.13100  0.59700  1.0000
  O   O16       1.0  0.15000  0.63100  0.59700  1.0000
  O   O17       1.0  0.59200  0.43900  0.69300  1.0000
  O   O18       1.0  0.10100  0.93900  0.69300  1.0000
  O   O19       1.0  0.26400  0.34100  0.73000  1.0000
  O   O20       1.0  0.46700  0.84100  0.73000  1.0000
  O   O21       1.0  0.93400  0.25300  0.84500  1.0000
  O   O22       1.0  0.91100  0.75300  0.84500  1.0000
  O   O23       1.0  0.77500  0.07330  0.96100  1.0000
  O   O24       1.0  0.18500  0.57300  0.96100  1.0000
  P   P1        1.0  0.76500  0.19400  0.36300  1.0000
  P   P2        1.0  0.59800  0.69400  0.36300  1.0000
  P   P3        1.0  0.39400  0.31900  0.62600  1.0000
  P   P4        1.0  0.23200  0.81900  0.62600  1.0000
  P   P5        1.0  0.89300  0.24700  0.99800  1.0000
  P   P6        1.0  0.10600  0.74700  0.99800  1.0000
  Th  Th1       1.0  0.05730  0.54400  0.30100  1.0000
  Th  Th2       1.0  0.24400  0.04390  0.30100  1.0000
  Th  Th3       1.0  0.93200  0.46700  0.68800  1.0000
  Th  Th4       1.0  0.75600  0.96700  0.68800  1.0000
