data_image0
_chemical_formula_structural       Gd8Pd8Si8
_chemical_formula_sum              "Gd8 Pd8 Si8"
_cell_length_a       4.35002
_cell_length_b       14.1061
_cell_length_c       7.48136
_cell_angle_alpha    90
_cell_angle_beta     90
_cell_angle_gamma    90

_space_group_name_H-M_alt    "P 1"
_space_group_IT_number       1

loop_
  _space_group_symop_operation_xyz
  'x, y, z'

loop_
  _atom_site_type_symbol
  _atom_site_label
  _atom_site_symmetry_multiplicity
  _atom_site_fract_x
  _atom_site_fract_y
  _atom_site_fract_z
  _atom_site_occupancy
  Gd  Gd1       1.0  0.75000  0.50200  0.20800  1.0000
  Gd  Gd2       1.0  0.75000  0.99800  0.20800  1.0000
  Gd  Gd3       1.0  0.75000  0.25000  0.29300  1.0000
  Gd  Gd4       1.0  0.75000  0.75000  0.30100  1.0000
  Gd  Gd5       1.0  0.25000  0.25000  0.69900  1.0000
  Gd  Gd6       1.0  0.25000  0.75000  0.70700  1.0000
  Gd  Gd7       1.0  0.25000  0.00207  0.79200  1.0000
  Gd  Gd8       1.0  0.25000  0.49800  0.79200  1.0000
  Pd  Pd1       1.0  0.25000  0.14200  0.07720  1.0000
  Pd  Pd2       1.0  0.25000  0.35800  0.07720  1.0000
  Pd  Pd3       1.0  0.25000  0.59400  0.41800  1.0000
  Pd  Pd4       1.0  0.25000  0.90600  0.41800  1.0000
  Pd  Pd5       1.0  0.75000  0.09380  0.58200  1.0000
  Pd  Pd6       1.0  0.75000  0.40600  0.58200  1.0000
  Pd  Pd7       1.0  0.75000  0.64200  0.92300  1.0000
  Pd  Pd8       1.0  0.75000  0.85800  0.92300  1.0000
  Si  Si1       1.0  0.25000  0.65800  0.09040  1.0000
  Si  Si2       1.0  0.25000  0.84200  0.09040  1.0000
  Si  Si3       1.0  0.25000  0.10300  0.40800  1.0000
  Si  Si4       1.0  0.25000  0.39700  0.40800  1.0000
  Si  Si5       1.0  0.75000  0.60300  0.59200  1.0000
  Si  Si6       1.0  0.75000  0.89700  0.59200  1.0000
  Si  Si7       1.0  0.75000  0.15800  0.91000  1.0000
  Si  Si8       1.0  0.75000  0.34200  0.91000  1.0000
