data_image0
_chemical_formula_structural       Co4Y12
_chemical_formula_sum              "Co4 Y12"
_cell_length_a       6.97545
_cell_length_b       9.43359
_cell_length_c       6.27329
_cell_angle_alpha    90
_cell_angle_beta     90
_cell_angle_gamma    90

_space_group_name_H-M_alt    "P 1"
_space_group_IT_number       1

loop_
  _space_group_symop_operation_xyz
  'x, y, z'

loop_
  _atom_site_type_symbol
  _atom_site_label
  _atom_site_symmetry_multiplicity
  _atom_site_fract_x
  _atom_site_fract_y
  _atom_site_fract_z
  _atom_site_occupancy
  Co  Co1       1.0  0.88800  0.25000  0.04500  1.0000
  Co  Co2       1.0  0.38800  0.25000  0.45500  1.0000
  Co  Co3       1.0  0.61200  0.75000  0.54500  1.0000
  Co  Co4       1.0  0.11200  0.75000  0.95500  1.0000
  Y   Y1        1.0  0.45700  0.75000  0.14000  1.0000
  Y   Y2        1.0  0.17500  0.06740  0.17700  1.0000
  Y   Y3        1.0  0.17500  0.43300  0.17700  1.0000
  Y   Y4        1.0  0.67500  0.06740  0.32300  1.0000
  Y   Y5        1.0  0.67500  0.43300  0.32300  1.0000
  Y   Y6        1.0  0.95700  0.75000  0.36000  1.0000
  Y   Y7        1.0  0.04340  0.25000  0.64000  1.0000
  Y   Y8        1.0  0.32500  0.56700  0.67700  1.0000
  Y   Y9        1.0  0.32500  0.93300  0.67700  1.0000
  Y   Y10       1.0  0.82500  0.56700  0.82300  1.0000
  Y   Y11       1.0  0.82500  0.93300  0.82300  1.0000
  Y   Y12       1.0  0.54300  0.25000  0.86000  1.0000
