data_image0
_chemical_formula_structural       Al4B4Ni8O20
_chemical_formula_sum              "Al4 B4 Ni8 O20"
_cell_length_a       11.9789
_cell_length_b       9.16235
_cell_length_c       2.88923
_cell_angle_alpha    90
_cell_angle_beta     90
_cell_angle_gamma    90

_space_group_name_H-M_alt    "P 1"
_space_group_IT_number       1

loop_
  _space_group_symop_operation_xyz
  'x, y, z'

loop_
  _atom_site_type_symbol
  _atom_site_label
  _atom_site_symmetry_multiplicity
  _atom_site_fract_x
  _atom_site_fract_y
  _atom_site_fract_z
  _atom_site_occupancy
  Al  Al1       1.0  0.11400  0.23800  0.00000  1.0000
  Al  Al2       1.0  0.61400  0.26200  0.00000  1.0000
  Al  Al3       1.0  0.38600  0.73800  0.00000  1.0000
  Al  Al4       1.0  0.88600  0.76200  0.00000  1.0000
  B   B1        1.0  0.86100  0.23200  0.00000  1.0000
  B   B2        1.0  0.36100  0.26800  0.00000  1.0000
  B   B3        1.0  0.63900  0.73200  0.00000  1.0000
  B   B4        1.0  0.13900  0.76800  0.00000  1.0000
  Ni  Ni1       1.0  0.50000  0.00000  0.00000  1.0000
  Ni  Ni2       1.0  0.00000  0.50000  0.00000  1.0000
  Ni  Ni3       1.0  0.00000  0.00000  0.50000  1.0000
  Ni  Ni4       1.0  0.71900  0.00380  0.50000  1.0000
  Ni  Ni5       1.0  0.21900  0.49600  0.50000  1.0000
  Ni  Ni6       1.0  0.50000  0.50000  0.50000  1.0000
  Ni  Ni7       1.0  0.78100  0.50400  0.50000  1.0000
  Ni  Ni8       1.0  0.28100  0.99600  0.50000  1.0000
  O   O1        1.0  0.36000  0.11900  0.00000  1.0000
  O   O2        1.0  0.96100  0.15600  0.00000  1.0000
  O   O3        1.0  0.76000  0.15900  0.00000  1.0000
  O   O4        1.0  0.26000  0.34100  0.00000  1.0000
  O   O5        1.0  0.46100  0.34400  0.00000  1.0000
  O   O6        1.0  0.86000  0.38100  0.00000  1.0000
  O   O7        1.0  0.14000  0.61900  0.00000  1.0000
  O   O8        1.0  0.53900  0.65600  0.00000  1.0000
  O   O9        1.0  0.74000  0.65900  0.00000  1.0000
  O   O10       1.0  0.24000  0.84100  0.00000  1.0000
  O   O11       1.0  0.03910  0.84400  0.00000  1.0000
  O   O12       1.0  0.64000  0.88100  0.00000  1.0000
  O   O13       1.0  0.14400  0.11300  0.50000  1.0000
  O   O14       1.0  0.57700  0.12700  0.50000  1.0000
  O   O15       1.0  0.07750  0.37300  0.50000  1.0000
  O   O16       1.0  0.64400  0.38700  0.50000  1.0000
  O   O17       1.0  0.35600  0.61300  0.50000  1.0000
  O   O18       1.0  0.92300  0.62700  0.50000  1.0000
  O   O19       1.0  0.42300  0.87300  0.50000  1.0000
  O   O20       1.0  0.85600  0.88700  0.50000  1.0000
