data_image0
_chemical_formula_structural       Co4Pr12
_chemical_formula_sum              "Co4 Pr12"
_cell_length_a       7.14031
_cell_length_b       9.96245
_cell_length_c       6.48926
_cell_angle_alpha    90
_cell_angle_beta     90
_cell_angle_gamma    90

_space_group_name_H-M_alt    "P 1"
_space_group_IT_number       1

loop_
  _space_group_symop_operation_xyz
  'x, y, z'

loop_
  _atom_site_type_symbol
  _atom_site_label
  _atom_site_symmetry_multiplicity
  _atom_site_fract_x
  _atom_site_fract_y
  _atom_site_fract_z
  _atom_site_occupancy
  Co  Co1       1.0  0.88600  0.25000  0.06180  1.0000
  Co  Co2       1.0  0.38600  0.25000  0.43800  1.0000
  Co  Co3       1.0  0.61400  0.75000  0.56200  1.0000
  Co  Co4       1.0  0.11400  0.75000  0.93800  1.0000
  Pr  Pr1       1.0  0.45300  0.75000  0.14600  1.0000
  Pr  Pr2       1.0  0.17000  0.07000  0.17400  1.0000
  Pr  Pr3       1.0  0.17000  0.43000  0.17400  1.0000
  Pr  Pr4       1.0  0.67000  0.07000  0.32600  1.0000
  Pr  Pr5       1.0  0.67000  0.43000  0.32600  1.0000
  Pr  Pr6       1.0  0.95300  0.75000  0.35400  1.0000
  Pr  Pr7       1.0  0.04720  0.25000  0.64600  1.0000
  Pr  Pr8       1.0  0.33000  0.57000  0.67400  1.0000
  Pr  Pr9       1.0  0.33000  0.93000  0.67400  1.0000
  Pr  Pr10      1.0  0.83000  0.57000  0.82600  1.0000
  Pr  Pr11      1.0  0.83000  0.93000  0.82600  1.0000
  Pr  Pr12      1.0  0.54700  0.25000  0.85400  1.0000
