data_image0
_chemical_formula_structural       Co9Gd3
_chemical_formula_sum              "Co9 Gd3"
_cell_length_a       4.97967
_cell_length_b       4.97967
_cell_length_c       8.62305
_cell_angle_alpha    106.783
_cell_angle_beta     73.2174
_cell_angle_gamma    120

_space_group_name_H-M_alt    "P 1"
_space_group_IT_number       1

loop_
  _space_group_symop_operation_xyz
  'x, y, z'

loop_
  _atom_site_type_symbol
  _atom_site_label
  _atom_site_symmetry_multiplicity
  _atom_site_fract_x
  _atom_site_fract_y
  _atom_site_fract_z
  _atom_site_occupancy
  Co  Co1       1.0  0.66600  0.33400  0.00247  1.0000
  Co  Co2       1.0  0.41900  0.08020  0.24300  1.0000
  Co  Co3       1.0  0.41900  0.58100  0.24300  1.0000
  Co  Co4       1.0  0.92000  0.58100  0.24300  1.0000
  Co  Co5       1.0  0.50000  0.50000  0.50000  1.0000
  Co  Co6       1.0  0.08020  0.41900  0.75700  1.0000
  Co  Co7       1.0  0.58100  0.41900  0.75700  1.0000
  Co  Co8       1.0  0.58100  0.92000  0.75700  1.0000
  Co  Co9       1.0  0.33400  0.66600  0.99800  1.0000
  Gd  Gd1       1.0  0.00000  0.00000  0.00000  1.0000
  Gd  Gd2       1.0  0.86000  0.14000  0.42000  1.0000
  Gd  Gd3       1.0  0.14000  0.86000  0.58000  1.0000
