data_image0
_chemical_formula_structural       Fe2O22Sr2V10
_chemical_formula_sum              "Fe2 O22 Sr2 V10"
_cell_length_a       5.82923
_cell_length_b       5.82927
_cell_length_c       13.1578
_cell_angle_alpha    90
_cell_angle_beta     90
_cell_angle_gamma    120

_space_group_name_H-M_alt    "P 1"
_space_group_IT_number       1

loop_
  _space_group_symop_operation_xyz
  'x, y, z'

loop_
  _atom_site_type_symbol
  _atom_site_label
  _atom_site_symmetry_multiplicity
  _atom_site_fract_x
  _atom_site_fract_y
  _atom_site_fract_z
  _atom_site_occupancy
  Fe  Fe1       1.0  0.66700  0.33300  0.25000  1.0000
  Fe  Fe2       1.0  0.33300  0.66700  0.75000  1.0000
  O   O1        1.0  0.17100  0.34200  0.08630  1.0000
  O   O2        1.0  0.17100  0.82900  0.08630  1.0000
  O   O3        1.0  0.65800  0.82900  0.08630  1.0000
  O   O4        1.0  0.66700  0.33300  0.08690  1.0000
  O   O5        1.0  0.29700  0.14800  0.25000  1.0000
  O   O6        1.0  0.85200  0.14800  0.25000  1.0000
  O   O7        1.0  0.85200  0.70300  0.25000  1.0000
  O   O8        1.0  0.66700  0.33300  0.41300  1.0000
  O   O9        1.0  0.17100  0.82900  0.41400  1.0000
  O   O10       1.0  0.65800  0.82900  0.41400  1.0000
  O   O11       1.0  0.17100  0.34200  0.41400  1.0000
  O   O12       1.0  0.82900  0.65800  0.58600  1.0000
  O   O13       1.0  0.34200  0.17100  0.58600  1.0000
  O   O14       1.0  0.82900  0.17100  0.58600  1.0000
  O   O15       1.0  0.33300  0.66700  0.58700  1.0000
  O   O16       1.0  0.14800  0.29700  0.75000  1.0000
  O   O17       1.0  0.14800  0.85200  0.75000  1.0000
  O   O18       1.0  0.70300  0.85200  0.75000  1.0000
  O   O19       1.0  0.33300  0.66700  0.91300  1.0000
  O   O20       1.0  0.34200  0.17100  0.91400  1.0000
  O   O21       1.0  0.82900  0.17100  0.91400  1.0000
  O   O22       1.0  0.82900  0.65800  0.91400  1.0000
  Sr  Sr1       1.0  0.33300  0.66700  0.25000  1.0000
  Sr  Sr2       1.0  0.66700  0.33300  0.75000  1.0000
  V   V1        1.0  0.50000  0.00000  0.00000  1.0000
  V   V2        1.0  0.00000  0.50000  0.00000  1.0000
  V   V3        1.0  0.50000  0.50000  0.00000  1.0000
  V   V4        1.0  0.00000  0.00000  0.14500  1.0000
  V   V5        1.0  0.00000  0.00000  0.35500  1.0000
  V   V6        1.0  0.50000  0.00000  0.50000  1.0000
  V   V7        1.0  0.00000  0.50000  0.50000  1.0000
  V   V8        1.0  0.50000  0.50000  0.50000  1.0000
  V   V9        1.0  0.00000  0.00000  0.64500  1.0000
  V   V10       1.0  0.00000  0.00000  0.85500  1.0000
