data_image0
_chemical_formula_structural       Eu20Pt16
_chemical_formula_sum              "Eu20 Pt16"
_cell_length_a       7.58543
_cell_length_b       14.8553
_cell_length_c       7.78285
_cell_angle_alpha    90
_cell_angle_beta     90
_cell_angle_gamma    90

_space_group_name_H-M_alt    "P 1"
_space_group_IT_number       1

loop_
  _space_group_symop_operation_xyz
  'x, y, z'

loop_
  _atom_site_type_symbol
  _atom_site_label
  _atom_site_symmetry_multiplicity
  _atom_site_fract_x
  _atom_site_fract_y
  _atom_site_fract_z
  _atom_site_occupancy
  Eu  Eu1       1.0  0.68100  0.75000  0.00642  1.0000
  Eu  Eu2       1.0  0.65700  0.12200  0.16800  1.0000
  Eu  Eu3       1.0  0.65700  0.37800  0.16800  1.0000
  Eu  Eu4       1.0  0.00247  0.59500  0.18000  1.0000
  Eu  Eu5       1.0  0.00247  0.90500  0.18000  1.0000
  Eu  Eu6       1.0  0.50200  0.59500  0.32000  1.0000
  Eu  Eu7       1.0  0.50200  0.90500  0.32000  1.0000
  Eu  Eu8       1.0  0.15700  0.12200  0.33200  1.0000
  Eu  Eu9       1.0  0.15700  0.37800  0.33200  1.0000
  Eu  Eu10      1.0  0.18100  0.75000  0.49400  1.0000
  Eu  Eu11      1.0  0.81900  0.25000  0.50600  1.0000
  Eu  Eu12      1.0  0.84300  0.62200  0.66800  1.0000
  Eu  Eu13      1.0  0.84300  0.87800  0.66800  1.0000
  Eu  Eu14      1.0  0.49800  0.09500  0.68000  1.0000
  Eu  Eu15      1.0  0.49800  0.40500  0.68000  1.0000
  Eu  Eu16      1.0  0.99800  0.09500  0.82000  1.0000
  Eu  Eu17      1.0  0.99800  0.40500  0.82000  1.0000
  Eu  Eu18      1.0  0.34300  0.62200  0.83200  1.0000
  Eu  Eu19      1.0  0.34300  0.87800  0.83200  1.0000
  Eu  Eu20      1.0  0.31900  0.25000  0.99400  1.0000
  Pt  Pt1       1.0  0.32300  0.04050  0.03310  1.0000
  Pt  Pt2       1.0  0.32300  0.46000  0.03310  1.0000
  Pt  Pt3       1.0  0.95200  0.25000  0.10800  1.0000
  Pt  Pt4       1.0  0.30500  0.75000  0.14100  1.0000
  Pt  Pt5       1.0  0.80500  0.75000  0.35900  1.0000
  Pt  Pt6       1.0  0.45200  0.25000  0.39200  1.0000
  Pt  Pt7       1.0  0.82300  0.04050  0.46700  1.0000
  Pt  Pt8       1.0  0.82300  0.46000  0.46700  1.0000
  Pt  Pt9       1.0  0.17700  0.54000  0.53300  1.0000
  Pt  Pt10      1.0  0.17700  0.96000  0.53300  1.0000
  Pt  Pt11      1.0  0.54800  0.75000  0.60800  1.0000
  Pt  Pt12      1.0  0.19500  0.25000  0.64100  1.0000
  Pt  Pt13      1.0  0.69500  0.25000  0.85900  1.0000
  Pt  Pt14      1.0  0.04770  0.75000  0.89200  1.0000
  Pt  Pt15      1.0  0.67700  0.54000  0.96700  1.0000
  Pt  Pt16      1.0  0.67700  0.96000  0.96700  1.0000
