data_image0
_chemical_formula_structural       B4Cr4Ni8O20
_chemical_formula_sum              "B4 Cr4 Ni8 O20"
_cell_length_a       9.2013
_cell_length_b       12.11
_cell_length_c       2.98683
_cell_angle_alpha    90
_cell_angle_beta     90
_cell_angle_gamma    90

_space_group_name_H-M_alt    "P 1"
_space_group_IT_number       1

loop_
  _space_group_symop_operation_xyz
  'x, y, z'

loop_
  _atom_site_type_symbol
  _atom_site_label
  _atom_site_symmetry_multiplicity
  _atom_site_fract_x
  _atom_site_fract_y
  _atom_site_fract_z
  _atom_site_occupancy
  B   B1        1.0  0.77100  0.14000  0.00000  1.0000
  B   B2        1.0  0.27100  0.36000  0.00000  1.0000
  B   B3        1.0  0.72900  0.64000  0.00000  1.0000
  B   B4        1.0  0.22900  0.86000  0.00000  1.0000
  Cr  Cr1       1.0  0.24100  0.11300  0.00000  1.0000
  Cr  Cr2       1.0  0.74100  0.38700  0.00000  1.0000
  Cr  Cr3       1.0  0.25900  0.61300  0.00000  1.0000
  Cr  Cr4       1.0  0.75900  0.88700  0.00000  1.0000
  Ni  Ni1       1.0  0.50000  0.00000  0.00000  1.0000
  Ni  Ni2       1.0  0.00000  0.50000  0.00000  1.0000
  Ni  Ni3       1.0  0.00000  0.00000  0.50000  1.0000
  Ni  Ni4       1.0  0.49900  0.21800  0.50000  1.0000
  Ni  Ni5       1.0  0.99900  0.28200  0.50000  1.0000
  Ni  Ni6       1.0  0.50000  0.50000  0.50000  1.0000
  Ni  Ni7       1.0  0.00078  0.71800  0.50000  1.0000
  Ni  Ni8       1.0  0.50100  0.78200  0.50000  1.0000
  O   O1        1.0  0.84900  0.04120  0.00000  1.0000
  O   O2        1.0  0.62200  0.14100  0.00000  1.0000
  O   O3        1.0  0.84700  0.23800  0.00000  1.0000
  O   O4        1.0  0.34700  0.26200  0.00000  1.0000
  O   O5        1.0  0.12200  0.35900  0.00000  1.0000
  O   O6        1.0  0.34900  0.45900  0.00000  1.0000
  O   O7        1.0  0.65100  0.54100  0.00000  1.0000
  O   O8        1.0  0.87800  0.64100  0.00000  1.0000
  O   O9        1.0  0.65300  0.73800  0.00000  1.0000
  O   O10       1.0  0.15300  0.76200  0.00000  1.0000
  O   O11       1.0  0.37800  0.85900  0.00000  1.0000
  O   O12       1.0  0.15100  0.95900  0.00000  1.0000
  O   O13       1.0  0.38300  0.07630  0.50000  1.0000
  O   O14       1.0  0.10600  0.14400  0.50000  1.0000
  O   O15       1.0  0.60600  0.35600  0.50000  1.0000
  O   O16       1.0  0.88300  0.42400  0.50000  1.0000
  O   O17       1.0  0.11700  0.57600  0.50000  1.0000
  O   O18       1.0  0.39400  0.64400  0.50000  1.0000
  O   O19       1.0  0.89400  0.85600  0.50000  1.0000
  O   O20       1.0  0.61700  0.92400  0.50000  1.0000
