data_image0
_chemical_formula_structural       K4Mo4O24V4
_chemical_formula_sum              "K4 Mo4 O24 V4"
_cell_length_a       10.2539
_cell_length_b       3.69947
_cell_length_c       13.1513
_cell_angle_alpha    90
_cell_angle_beta     90
_cell_angle_gamma    90

_space_group_name_H-M_alt    "P 1"
_space_group_IT_number       1

loop_
  _space_group_symop_operation_xyz
  'x, y, z'

loop_
  _atom_site_type_symbol
  _atom_site_label
  _atom_site_symmetry_multiplicity
  _atom_site_fract_x
  _atom_site_fract_y
  _atom_site_fract_z
  _atom_site_occupancy
  K   K1        1.0  0.61300  0.75000  0.13800  1.0000
  K   K2        1.0  0.11300  0.75000  0.36200  1.0000
  K   K3        1.0  0.88700  0.25000  0.63800  1.0000
  K   K4        1.0  0.38700  0.25000  0.86200  1.0000
  Mo  Mo1       1.0  0.24200  0.75000  0.07910  1.0000
  Mo  Mo2       1.0  0.74200  0.75000  0.42100  1.0000
  Mo  Mo3       1.0  0.25800  0.25000  0.57900  1.0000
  Mo  Mo4       1.0  0.75800  0.25000  0.92100  1.0000
  O   O1        1.0  0.39600  0.75000  0.02360  1.0000
  O   O2        1.0  0.18800  0.25000  0.06480  1.0000
  O   O3        1.0  0.02530  0.75000  0.07560  1.0000
  O   O4        1.0  0.81900  0.25000  0.09270  1.0000
  O   O5        1.0  0.27400  0.75000  0.20800  1.0000
  O   O6        1.0  0.00612  0.25000  0.23300  1.0000
  O   O7        1.0  0.50600  0.25000  0.26700  1.0000
  O   O8        1.0  0.77400  0.75000  0.29200  1.0000
  O   O9        1.0  0.31900  0.25000  0.40700  1.0000
  O   O10       1.0  0.52500  0.75000  0.42400  1.0000
  O   O11       1.0  0.68800  0.25000  0.43500  1.0000
  O   O12       1.0  0.89600  0.75000  0.47600  1.0000
  O   O13       1.0  0.10400  0.25000  0.52400  1.0000
  O   O14       1.0  0.31200  0.75000  0.56500  1.0000
  O   O15       1.0  0.47500  0.25000  0.57600  1.0000
  O   O16       1.0  0.68100  0.75000  0.59300  1.0000
  O   O17       1.0  0.22600  0.25000  0.70800  1.0000
  O   O18       1.0  0.49400  0.75000  0.73300  1.0000
  O   O19       1.0  0.99400  0.75000  0.76700  1.0000
  O   O20       1.0  0.72600  0.25000  0.79200  1.0000
  O   O21       1.0  0.18100  0.75000  0.90700  1.0000
  O   O22       1.0  0.97500  0.25000  0.92400  1.0000
  O   O23       1.0  0.81200  0.75000  0.93500  1.0000
  O   O24       1.0  0.60400  0.25000  0.97600  1.0000
  V   V1        1.0  0.98200  0.25000  0.11000  1.0000
  V   V2        1.0  0.48200  0.25000  0.39000  1.0000
  V   V3        1.0  0.51800  0.75000  0.61000  1.0000
  V   V4        1.0  0.01810  0.75000  0.89000  1.0000
