data_image0
_chemical_formula_structural       F4O24S4Tc4
_chemical_formula_sum              "F4 O24 S4 Tc4"
_cell_length_a       6.64892
_cell_length_b       7.82817
_cell_length_c       8.65772
_cell_angle_alpha    90
_cell_angle_beta     97.5846
_cell_angle_gamma    90

_space_group_name_H-M_alt    "P 1"
_space_group_IT_number       1

loop_
  _space_group_symop_operation_xyz
  'x, y, z'

loop_
  _atom_site_type_symbol
  _atom_site_label
  _atom_site_symmetry_multiplicity
  _atom_site_fract_x
  _atom_site_fract_y
  _atom_site_fract_z
  _atom_site_occupancy
  F   F1        1.0  0.29500  0.16000  0.00507  1.0000
  F   F2        1.0  0.70500  0.66000  0.49500  1.0000
  F   F3        1.0  0.29500  0.34000  0.50500  1.0000
  F   F4        1.0  0.70500  0.84000  0.99500  1.0000
  O   O1        1.0  0.36800  0.61900  0.02890  1.0000
  O   O2        1.0  0.04490  0.34700  0.07740  1.0000
  O   O3        1.0  0.03860  0.86500  0.12900  1.0000
  O   O4        1.0  0.75000  0.12700  0.17200  1.0000
  O   O5        1.0  0.82800  0.62000  0.17400  1.0000
  O   O6        1.0  0.45600  0.89500  0.23200  1.0000
  O   O7        1.0  0.54400  0.39500  0.26800  1.0000
  O   O8        1.0  0.17200  0.12000  0.32600  1.0000
  O   O9        1.0  0.25000  0.62700  0.32800  1.0000
  O   O10       1.0  0.96100  0.36500  0.37100  1.0000
  O   O11       1.0  0.95500  0.84700  0.42300  1.0000
  O   O12       1.0  0.63200  0.11900  0.47100  1.0000
  O   O13       1.0  0.36800  0.88100  0.52900  1.0000
  O   O14       1.0  0.04490  0.15300  0.57700  1.0000
  O   O15       1.0  0.03860  0.63500  0.62900  1.0000
  O   O16       1.0  0.75000  0.37300  0.67200  1.0000
  O   O17       1.0  0.82800  0.88000  0.67400  1.0000
  O   O18       1.0  0.45600  0.60500  0.73200  1.0000
  O   O19       1.0  0.54400  0.10500  0.76800  1.0000
  O   O20       1.0  0.17200  0.38000  0.82600  1.0000
  O   O21       1.0  0.25000  0.87300  0.82800  1.0000
  O   O22       1.0  0.96100  0.13500  0.87100  1.0000
  O   O23       1.0  0.95500  0.65300  0.92300  1.0000
  O   O24       1.0  0.63200  0.38100  0.97100  1.0000
  S   S1        1.0  0.89700  0.73500  0.06060  1.0000
  S   S2        1.0  0.10300  0.23500  0.43900  1.0000
  S   S3        1.0  0.89700  0.76500  0.56100  1.0000
  S   S4        1.0  0.10300  0.26500  0.93900  1.0000
  Tc  Tc1       1.0  0.73100  0.34300  0.16000  1.0000
  Tc  Tc2       1.0  0.26900  0.84300  0.34000  1.0000
  Tc  Tc3       1.0  0.73100  0.15700  0.66000  1.0000
  Tc  Tc4       1.0  0.26900  0.65700  0.84000  1.0000
