data_image0
_chemical_formula_structural       Co4In12
_chemical_formula_sum              "Co4 In12"
_cell_length_a       6.8511
_cell_length_b       6.8511
_cell_length_c       7.07243
_cell_angle_alpha    90
_cell_angle_beta     90
_cell_angle_gamma    90

_space_group_name_H-M_alt    "P 1"
_space_group_IT_number       1

loop_
  _space_group_symop_operation_xyz
  'x, y, z'

loop_
  _atom_site_type_symbol
  _atom_site_label
  _atom_site_symmetry_multiplicity
  _atom_site_fract_x
  _atom_site_fract_y
  _atom_site_fract_z
  _atom_site_occupancy
  Co  Co1       1.0  0.35000  0.15000  0.25000  1.0000
  Co  Co2       1.0  0.65000  0.85000  0.25000  1.0000
  Co  Co3       1.0  0.15000  0.65000  0.75000  1.0000
  Co  Co4       1.0  0.85000  0.35000  0.75000  1.0000
  In  In1       1.0  0.00000  0.00000  0.25000  1.0000
  In  In2       1.0  0.50000  0.50000  0.25000  1.0000
  In  In3       1.0  0.50000  0.50000  0.75000  1.0000
  In  In4       1.0  0.00000  0.00000  0.75000  1.0000
  In  In5       1.0  0.15400  0.34600  0.99500  1.0000
  In  In6       1.0  0.84600  0.65400  0.99500  1.0000
  In  In7       1.0  0.15400  0.34600  0.50500  1.0000
  In  In8       1.0  0.84600  0.65400  0.50500  1.0000
  In  In9       1.0  0.34600  0.84600  0.49500  1.0000
  In  In10      1.0  0.65400  0.15400  0.49500  1.0000
  In  In11      1.0  0.65400  0.15400  0.00462  1.0000
  In  In12      1.0  0.34600  0.84600  0.00462  1.0000
