data_image0
_chemical_formula_structural       Co18P12Pr6
_chemical_formula_sum              "Co18 P12 Pr6"
_cell_length_a       10.6637
_cell_length_b       3.77532
_cell_length_c       12.3825
_cell_angle_alpha    90
_cell_angle_beta     90
_cell_angle_gamma    90

_space_group_name_H-M_alt    "P 1"
_space_group_IT_number       1

loop_
  _space_group_symop_operation_xyz
  'x, y, z'

loop_
  _atom_site_type_symbol
  _atom_site_label
  _atom_site_symmetry_multiplicity
  _atom_site_fract_x
  _atom_site_fract_y
  _atom_site_fract_z
  _atom_site_occupancy
  Co  Co1       1.0  0.08370  0.25000  0.00363  1.0000
  Co  Co2       1.0  0.41600  0.25000  0.00363  1.0000
  Co  Co3       1.0  0.25000  0.75000  0.01260  1.0000
  Co  Co4       1.0  0.75000  0.75000  0.15700  1.0000
  Co  Co5       1.0  0.63200  0.25000  0.28800  1.0000
  Co  Co6       1.0  0.86800  0.25000  0.28800  1.0000
  Co  Co7       1.0  0.25000  0.25000  0.29500  1.0000
  Co  Co8       1.0  0.54800  0.75000  0.43000  1.0000
  Co  Co9       1.0  0.95200  0.75000  0.43000  1.0000
  Co  Co10      1.0  0.04760  0.25000  0.57000  1.0000
  Co  Co11      1.0  0.45200  0.25000  0.57000  1.0000
  Co  Co12      1.0  0.75000  0.75000  0.70500  1.0000
  Co  Co13      1.0  0.13200  0.75000  0.71200  1.0000
  Co  Co14      1.0  0.36800  0.75000  0.71200  1.0000
  Co  Co15      1.0  0.25000  0.25000  0.84300  1.0000
  Co  Co16      1.0  0.75000  0.25000  0.98700  1.0000
  Co  Co17      1.0  0.58400  0.75000  0.99600  1.0000
  Co  Co18      1.0  0.91600  0.75000  0.99600  1.0000
  P   P1        1.0  0.59900  0.25000  0.10400  1.0000
  P   P2        1.0  0.90100  0.25000  0.10400  1.0000
  P   P3        1.0  0.25000  0.25000  0.11300  1.0000
  P   P4        1.0  0.75000  0.75000  0.33800  1.0000
  P   P5        1.0  0.05480  0.25000  0.38600  1.0000
  P   P6        1.0  0.44500  0.25000  0.38600  1.0000
  P   P7        1.0  0.55500  0.75000  0.61400  1.0000
  P   P8        1.0  0.94500  0.75000  0.61400  1.0000
  P   P9        1.0  0.25000  0.25000  0.66200  1.0000
  P   P10       1.0  0.75000  0.75000  0.88700  1.0000
  P   P11       1.0  0.09870  0.75000  0.89600  1.0000
  P   P12       1.0  0.40100  0.75000  0.89600  1.0000
  Pr  Pr1       1.0  0.06700  0.75000  0.20600  1.0000
  Pr  Pr2       1.0  0.43300  0.75000  0.20600  1.0000
  Pr  Pr3       1.0  0.25000  0.75000  0.47900  1.0000
  Pr  Pr4       1.0  0.75000  0.25000  0.52100  1.0000
  Pr  Pr5       1.0  0.56700  0.25000  0.79400  1.0000
  Pr  Pr6       1.0  0.93300  0.25000  0.79400  1.0000
