data_image0
_chemical_formula_structural       Co9Th3
_chemical_formula_sum              "Co9 Th3"
_cell_length_a       4.96451
_cell_length_b       4.96451
_cell_length_c       8.81102
_cell_angle_alpha    90
_cell_angle_beta     73.637
_cell_angle_gamma    120

_space_group_name_H-M_alt    "P 1"
_space_group_IT_number       1

loop_
  _space_group_symop_operation_xyz
  'x, y, z'

loop_
  _atom_site_type_symbol
  _atom_site_label
  _atom_site_symmetry_multiplicity
  _atom_site_fract_x
  _atom_site_fract_y
  _atom_site_fract_z
  _atom_site_occupancy
  Co  Co1       1.0  0.66600  0.33300  0.00113  1.0000
  Co  Co2       1.0  0.33900  0.91900  0.24100  1.0000
  Co  Co3       1.0  0.33900  0.42000  0.24100  1.0000
  Co  Co4       1.0  0.84000  0.42000  0.24100  1.0000
  Co  Co5       1.0  0.00000  0.50000  0.50000  1.0000
  Co  Co6       1.0  0.16000  0.58000  0.75900  1.0000
  Co  Co7       1.0  0.66100  0.58000  0.75900  1.0000
  Co  Co8       1.0  0.66100  0.08140  0.75900  1.0000
  Co  Co9       1.0  0.33400  0.66700  0.99900  1.0000
  Th  Th1       1.0  0.00000  0.00000  0.00000  1.0000
  Th  Th2       1.0  0.72500  0.86200  0.41300  1.0000
  Th  Th3       1.0  0.27500  0.13800  0.58700  1.0000
