data_image0
_chemical_formula_structural       Co20P12Sm4
_chemical_formula_sum              "Co20 P12 Sm4"
_cell_length_a       11.7721
_cell_length_b       3.66857
_cell_length_c       10.3302
_cell_angle_alpha    90
_cell_angle_beta     90
_cell_angle_gamma    90

_space_group_name_H-M_alt    "P 1"
_space_group_IT_number       1

loop_
  _space_group_symop_operation_xyz
  'x, y, z'

loop_
  _atom_site_type_symbol
  _atom_site_label
  _atom_site_symmetry_multiplicity
  _atom_site_fract_x
  _atom_site_fract_y
  _atom_site_fract_z
  _atom_site_occupancy
  Co  Co1       1.0  0.43200  0.25000  0.03150  1.0000
  Co  Co2       1.0  0.98900  0.25000  0.09400  1.0000
  Co  Co3       1.0  0.30200  0.75000  0.11800  1.0000
  Co  Co4       1.0  0.50900  0.75000  0.21400  1.0000
  Co  Co5       1.0  0.17600  0.25000  0.22100  1.0000
  Co  Co6       1.0  0.67600  0.25000  0.27900  1.0000
  Co  Co7       1.0  0.00943  0.75000  0.28600  1.0000
  Co  Co8       1.0  0.80200  0.75000  0.38200  1.0000
  Co  Co9       1.0  0.48900  0.25000  0.40600  1.0000
  Co  Co10      1.0  0.93200  0.25000  0.46800  1.0000
  Co  Co11      1.0  0.06760  0.75000  0.53200  1.0000
  Co  Co12      1.0  0.51100  0.75000  0.59400  1.0000
  Co  Co13      1.0  0.19800  0.25000  0.61800  1.0000
  Co  Co14      1.0  0.99100  0.25000  0.71400  1.0000
  Co  Co15      1.0  0.32400  0.75000  0.72100  1.0000
  Co  Co16      1.0  0.82400  0.75000  0.77900  1.0000
  Co  Co17      1.0  0.49100  0.25000  0.78600  1.0000
  Co  Co18      1.0  0.69800  0.25000  0.88200  1.0000
  Co  Co19      1.0  0.01080  0.75000  0.90600  1.0000
  Co  Co20      1.0  0.56800  0.75000  0.96800  1.0000
  P   P1        1.0  0.61100  0.25000  0.08180  1.0000
  P   P2        1.0  0.10800  0.75000  0.10400  1.0000
  P   P3        1.0  0.37000  0.25000  0.22700  1.0000
  P   P4        1.0  0.87000  0.25000  0.27300  1.0000
  P   P5        1.0  0.60800  0.75000  0.39600  1.0000
  P   P6        1.0  0.11100  0.25000  0.41800  1.0000
  P   P7        1.0  0.88900  0.75000  0.58200  1.0000
  P   P8        1.0  0.39200  0.25000  0.60400  1.0000
  P   P9        1.0  0.13000  0.75000  0.72700  1.0000
  P   P10       1.0  0.63000  0.75000  0.77300  1.0000
  P   P11       1.0  0.89200  0.25000  0.89600  1.0000
  P   P12       1.0  0.38900  0.75000  0.91800  1.0000
  Sm  Sm1       1.0  0.79800  0.75000  0.08320  1.0000
  Sm  Sm2       1.0  0.29800  0.75000  0.41700  1.0000
  Sm  Sm3       1.0  0.70200  0.25000  0.58300  1.0000
  Sm  Sm4       1.0  0.20200  0.25000  0.91700  1.0000
