data_image0
_chemical_formula_structural       Co18Gd6P12
_chemical_formula_sum              "Co18 Gd6 P12"
_cell_length_a       10.5211
_cell_length_b       3.70424
_cell_length_c       12.1952
_cell_angle_alpha    90
_cell_angle_beta     90
_cell_angle_gamma    90

_space_group_name_H-M_alt    "P 1"
_space_group_IT_number       1

loop_
  _space_group_symop_operation_xyz
  'x, y, z'

loop_
  _atom_site_type_symbol
  _atom_site_label
  _atom_site_symmetry_multiplicity
  _atom_site_fract_x
  _atom_site_fract_y
  _atom_site_fract_z
  _atom_site_occupancy
  Co  Co1       1.0  0.08340  0.25000  0.00495  1.0000
  Co  Co2       1.0  0.41700  0.25000  0.00495  1.0000
  Co  Co3       1.0  0.25000  0.75000  0.01400  1.0000
  Co  Co4       1.0  0.75000  0.75000  0.15900  1.0000
  Co  Co5       1.0  0.63000  0.25000  0.29000  1.0000
  Co  Co6       1.0  0.87000  0.25000  0.29000  1.0000
  Co  Co7       1.0  0.25000  0.25000  0.29600  1.0000
  Co  Co8       1.0  0.54700  0.75000  0.43000  1.0000
  Co  Co9       1.0  0.95300  0.75000  0.43000  1.0000
  Co  Co10      1.0  0.04730  0.25000  0.57000  1.0000
  Co  Co11      1.0  0.45300  0.25000  0.57000  1.0000
  Co  Co12      1.0  0.75000  0.75000  0.70400  1.0000
  Co  Co13      1.0  0.13000  0.75000  0.71000  1.0000
  Co  Co14      1.0  0.37000  0.75000  0.71000  1.0000
  Co  Co15      1.0  0.25000  0.25000  0.84100  1.0000
  Co  Co16      1.0  0.75000  0.25000  0.98600  1.0000
  Co  Co17      1.0  0.58300  0.75000  0.99500  1.0000
  Co  Co18      1.0  0.91700  0.75000  0.99500  1.0000
  Gd  Gd1       1.0  0.06660  0.75000  0.20600  1.0000
  Gd  Gd2       1.0  0.43300  0.75000  0.20600  1.0000
  Gd  Gd3       1.0  0.25000  0.75000  0.47800  1.0000
  Gd  Gd4       1.0  0.75000  0.25000  0.52200  1.0000
  Gd  Gd5       1.0  0.56700  0.25000  0.79400  1.0000
  Gd  Gd6       1.0  0.93300  0.25000  0.79400  1.0000
  P   P1        1.0  0.59800  0.25000  0.10600  1.0000
  P   P2        1.0  0.90200  0.25000  0.10600  1.0000
  P   P3        1.0  0.25000  0.25000  0.11700  1.0000
  P   P4        1.0  0.75000  0.75000  0.34300  1.0000
  P   P5        1.0  0.05940  0.25000  0.38400  1.0000
  P   P6        1.0  0.44100  0.25000  0.38400  1.0000
  P   P7        1.0  0.55900  0.75000  0.61600  1.0000
  P   P8        1.0  0.94100  0.75000  0.61600  1.0000
  P   P9        1.0  0.25000  0.25000  0.65700  1.0000
  P   P10       1.0  0.75000  0.75000  0.88300  1.0000
  P   P11       1.0  0.09810  0.75000  0.89400  1.0000
  P   P12       1.0  0.40200  0.75000  0.89400  1.0000
