data_image0
_chemical_formula_structural       Co4Lu12
_chemical_formula_sum              "Co4 Lu12"
_cell_length_a       6.76272
_cell_length_b       9.23778
_cell_length_c       6.00115
_cell_angle_alpha    90
_cell_angle_beta     90
_cell_angle_gamma    90

_space_group_name_H-M_alt    "P 1"
_space_group_IT_number       1

loop_
  _space_group_symop_operation_xyz
  'x, y, z'

loop_
  _atom_site_type_symbol
  _atom_site_label
  _atom_site_symmetry_multiplicity
  _atom_site_fract_x
  _atom_site_fract_y
  _atom_site_fract_z
  _atom_site_occupancy
  Co  Co1       1.0  0.88800  0.25000  0.04870  1.0000
  Co  Co2       1.0  0.38800  0.25000  0.45100  1.0000
  Co  Co3       1.0  0.61200  0.75000  0.54900  1.0000
  Co  Co4       1.0  0.11200  0.75000  0.95100  1.0000
  Lu  Lu1       1.0  0.46000  0.75000  0.13300  1.0000
  Lu  Lu2       1.0  0.17700  0.06480  0.17700  1.0000
  Lu  Lu3       1.0  0.17700  0.43500  0.17700  1.0000
  Lu  Lu4       1.0  0.67700  0.06480  0.32300  1.0000
  Lu  Lu5       1.0  0.67700  0.43500  0.32300  1.0000
  Lu  Lu6       1.0  0.96000  0.75000  0.36700  1.0000
  Lu  Lu7       1.0  0.04000  0.25000  0.63300  1.0000
  Lu  Lu8       1.0  0.32300  0.56500  0.67700  1.0000
  Lu  Lu9       1.0  0.32300  0.93500  0.67700  1.0000
  Lu  Lu10      1.0  0.82300  0.56500  0.82300  1.0000
  Lu  Lu11      1.0  0.82300  0.93500  0.82300  1.0000
  Lu  Lu12      1.0  0.54000  0.25000  0.86700  1.0000
