data_image0
_chemical_formula_structural       Ag4Bi4Cu8Pb4S16
_chemical_formula_sum              "Ag4 Bi4 Cu8 Pb4 S16"
_cell_length_a       12.774
_cell_length_b       4.02779
_cell_length_c       14.7851
_cell_angle_alpha    90
_cell_angle_beta     90
_cell_angle_gamma    90

_space_group_name_H-M_alt    "P 1"
_space_group_IT_number       1

loop_
  _space_group_symop_operation_xyz
  'x, y, z'

loop_
  _atom_site_type_symbol
  _atom_site_label
  _atom_site_symmetry_multiplicity
  _atom_site_fract_x
  _atom_site_fract_y
  _atom_site_fract_z
  _atom_site_occupancy
  Ag  Ag1       1.0  0.82500  0.75000  0.07550  1.0000
  Ag  Ag2       1.0  0.32500  0.75000  0.42400  1.0000
  Ag  Ag3       1.0  0.67500  0.25000  0.57600  1.0000
  Ag  Ag4       1.0  0.17500  0.25000  0.92400  1.0000
  Bi  Bi1       1.0  0.56500  0.25000  0.10700  1.0000
  Bi  Bi2       1.0  0.06490  0.25000  0.39300  1.0000
  Bi  Bi3       1.0  0.93500  0.75000  0.60700  1.0000
  Bi  Bi4       1.0  0.43500  0.75000  0.89300  1.0000
  Cu  Cu1       1.0  0.05140  0.75000  0.03100  1.0000
  Cu  Cu2       1.0  0.94800  0.25000  0.15500  1.0000
  Cu  Cu3       1.0  0.44800  0.25000  0.34500  1.0000
  Cu  Cu4       1.0  0.55100  0.75000  0.46900  1.0000
  Cu  Cu5       1.0  0.44900  0.25000  0.53100  1.0000
  Cu  Cu6       1.0  0.55200  0.75000  0.65500  1.0000
  Cu  Cu7       1.0  0.05220  0.75000  0.84500  1.0000
  Cu  Cu8       1.0  0.94900  0.25000  0.96900  1.0000
  Pb  Pb1       1.0  0.28600  0.75000  0.16500  1.0000
  Pb  Pb2       1.0  0.78600  0.75000  0.33500  1.0000
  Pb  Pb3       1.0  0.21400  0.25000  0.66500  1.0000
  Pb  Pb4       1.0  0.71400  0.25000  0.83500  1.0000
  S   S1        1.0  0.37100  0.25000  0.02970  1.0000
  S   S2        1.0  0.10400  0.25000  0.08940  1.0000
  S   S3        1.0  0.77800  0.25000  0.18800  1.0000
  S   S4        1.0  0.50100  0.75000  0.22100  1.0000
  S   S5        1.0  0.00124  0.75000  0.27900  1.0000
  S   S6        1.0  0.27800  0.25000  0.31200  1.0000
  S   S7        1.0  0.60400  0.25000  0.41100  1.0000
  S   S8        1.0  0.87100  0.25000  0.47000  1.0000
  S   S9        1.0  0.12900  0.75000  0.53000  1.0000
  S   S10       1.0  0.39600  0.75000  0.58900  1.0000
  S   S11       1.0  0.72200  0.75000  0.68800  1.0000
  S   S12       1.0  0.99900  0.25000  0.72100  1.0000
  S   S13       1.0  0.49900  0.25000  0.77900  1.0000
  S   S14       1.0  0.22200  0.75000  0.81200  1.0000
  S   S15       1.0  0.89600  0.75000  0.91100  1.0000
  S   S16       1.0  0.62900  0.75000  0.97000  1.0000
