data_image0
_chemical_formula_structural       Ge16Ta4Zr16
_chemical_formula_sum              "Ge16 Ta4 Zr16"
_cell_length_a       7.17769
_cell_length_b       7.17769
_cell_length_c       13.1309
_cell_angle_alpha    90
_cell_angle_beta     90
_cell_angle_gamma    90

_space_group_name_H-M_alt    "P 1"
_space_group_IT_number       1

loop_
  _space_group_symop_operation_xyz
  'x, y, z'

loop_
  _atom_site_type_symbol
  _atom_site_label
  _atom_site_symmetry_multiplicity
  _atom_site_fract_x
  _atom_site_fract_y
  _atom_site_fract_z
  _atom_site_occupancy
  Ge  Ge1       1.0  0.30300  0.96300  0.06760  1.0000
  Ge  Ge2       1.0  0.69900  0.35800  0.07680  1.0000
  Ge  Ge3       1.0  0.80100  0.85800  0.17300  1.0000
  Ge  Ge4       1.0  0.19700  0.46300  0.18200  1.0000
  Ge  Ge5       1.0  0.53700  0.80300  0.31800  1.0000
  Ge  Ge6       1.0  0.14200  0.19900  0.32700  1.0000
  Ge  Ge7       1.0  0.64200  0.30100  0.42300  1.0000
  Ge  Ge8       1.0  0.03720  0.69700  0.43200  1.0000
  Ge  Ge9       1.0  0.69700  0.03720  0.56800  1.0000
  Ge  Ge10      1.0  0.30100  0.64200  0.57700  1.0000
  Ge  Ge11      1.0  0.19900  0.14200  0.67300  1.0000
  Ge  Ge12      1.0  0.80300  0.53700  0.68200  1.0000
  Ge  Ge13      1.0  0.46300  0.19700  0.81800  1.0000
  Ge  Ge14      1.0  0.85800  0.80100  0.82700  1.0000
  Ge  Ge15      1.0  0.35800  0.69900  0.92300  1.0000
  Ge  Ge16      1.0  0.96300  0.30300  0.93200  1.0000
  Ta  Ta1       1.0  0.32800  0.32800  0.00000  1.0000
  Ta  Ta2       1.0  0.17200  0.82800  0.25000  1.0000
  Ta  Ta3       1.0  0.67200  0.67200  0.50000  1.0000
  Ta  Ta4       1.0  0.82800  0.17200  0.75000  1.0000
  Zr  Zr1       1.0  0.00273  0.65700  0.02910  1.0000
  Zr  Zr2       1.0  0.49600  0.65300  0.12300  1.0000
  Zr  Zr3       1.0  0.00381  0.15300  0.12700  1.0000
  Zr  Zr4       1.0  0.49700  0.15700  0.22100  1.0000
  Zr  Zr5       1.0  0.84300  0.50300  0.27900  1.0000
  Zr  Zr6       1.0  0.84700  0.99600  0.37300  1.0000
  Zr  Zr7       1.0  0.34700  0.50400  0.37700  1.0000
  Zr  Zr8       1.0  0.34300  0.99700  0.47100  1.0000
  Zr  Zr9       1.0  0.99700  0.34300  0.52900  1.0000
  Zr  Zr10      1.0  0.50400  0.34700  0.62300  1.0000
  Zr  Zr11      1.0  0.99600  0.84700  0.62700  1.0000
  Zr  Zr12      1.0  0.50300  0.84300  0.72100  1.0000
  Zr  Zr13      1.0  0.15700  0.49700  0.77900  1.0000
  Zr  Zr14      1.0  0.15300  0.00381  0.87300  1.0000
  Zr  Zr15      1.0  0.65300  0.49600  0.87700  1.0000
  Zr  Zr16      1.0  0.65700  0.00273  0.97100  1.0000
