data_image0
_chemical_formula_structural       Co9Lu3
_chemical_formula_sum              "Co9 Lu3"
_cell_length_a       4.90028
_cell_length_b       4.90028
_cell_length_c       8.47899
_cell_angle_alpha    106.796
_cell_angle_beta     73.2039
_cell_angle_gamma    120

_space_group_name_H-M_alt    "P 1"
_space_group_IT_number       1

loop_
  _space_group_symop_operation_xyz
  'x, y, z'

loop_
  _atom_site_type_symbol
  _atom_site_label
  _atom_site_symmetry_multiplicity
  _atom_site_fract_x
  _atom_site_fract_y
  _atom_site_fract_z
  _atom_site_occupancy
  Co  Co1       1.0  0.33500  0.66500  0.99600  1.0000
  Co  Co2       1.0  0.66500  0.33500  0.00390  1.0000
  Co  Co3       1.0  0.41600  0.07850  0.24600  1.0000
  Co  Co4       1.0  0.41600  0.58400  0.24600  1.0000
  Co  Co5       1.0  0.92100  0.58400  0.24600  1.0000
  Co  Co6       1.0  0.50000  0.50000  0.50000  1.0000
  Co  Co7       1.0  0.07850  0.41600  0.75400  1.0000
  Co  Co8       1.0  0.58400  0.41600  0.75400  1.0000
  Co  Co9       1.0  0.58400  0.92100  0.75400  1.0000
  Lu  Lu1       1.0  0.00000  0.00000  0.00000  1.0000
  Lu  Lu2       1.0  0.86000  0.14000  0.42000  1.0000
  Lu  Lu3       1.0  0.14000  0.86000  0.58000  1.0000
