data_image0
_chemical_formula_structural       Co2F6
_chemical_formula_sum              "Co2 F6"
_cell_length_a       4.94326
_cell_length_b       4.94326
_cell_length_c       4.94326
_cell_angle_alpha    54.4713
_cell_angle_beta     54.4713
_cell_angle_gamma    54.4713

_space_group_name_H-M_alt    "P 1"
_space_group_IT_number       1

loop_
  _space_group_symop_operation_xyz
  'x, y, z'

loop_
  _atom_site_type_symbol
  _atom_site_label
  _atom_site_symmetry_multiplicity
  _atom_site_fract_x
  _atom_site_fract_y
  _atom_site_fract_z
  _atom_site_occupancy
  Co  Co1       1.0  0.00000  0.00000  0.00000  1.0000
  Co  Co2       1.0  0.50000  0.50000  0.50000  1.0000
  F   F1        1.0  0.41700  0.75000  0.08260  1.0000
  F   F2        1.0  0.91700  0.58300  0.25000  1.0000
  F   F3        1.0  0.75000  0.08260  0.41700  1.0000
  F   F4        1.0  0.25000  0.91700  0.58300  1.0000
  F   F5        1.0  0.08260  0.41700  0.75000  1.0000
  F   F6        1.0  0.58300  0.25000  0.91700  1.0000
