data_image0
_chemical_formula_structural       Al12Dy4Zn20
_chemical_formula_sum              "Al12 Dy4 Zn20"
_cell_length_a       8.53864
_cell_length_b       8.53864
_cell_length_c       10.2706
_cell_angle_alpha    114.562
_cell_angle_beta     114.562
_cell_angle_gamma    90

_space_group_name_H-M_alt    "P 1"
_space_group_IT_number       1

loop_
  _space_group_symop_operation_xyz
  'x, y, z'

loop_
  _atom_site_type_symbol
  _atom_site_label
  _atom_site_symmetry_multiplicity
  _atom_site_fract_x
  _atom_site_fract_y
  _atom_site_fract_z
  _atom_site_occupancy
  Al  Al1       1.0  0.37000  0.13800  0.27600  1.0000
  Al  Al2       1.0  0.90600  0.13800  0.27600  1.0000
  Al  Al3       1.0  0.13800  0.37000  0.27600  1.0000
  Al  Al4       1.0  0.13800  0.90600  0.27600  1.0000
  Al  Al5       1.0  0.00000  0.00000  0.50000  1.0000
  Al  Al6       1.0  0.50000  0.00000  0.50000  1.0000
  Al  Al7       1.0  0.00000  0.50000  0.50000  1.0000
  Al  Al8       1.0  0.50000  0.50000  0.50000  1.0000
  Al  Al9       1.0  0.86200  0.09370  0.72400  1.0000
  Al  Al10      1.0  0.86200  0.63000  0.72400  1.0000
  Al  Al11      1.0  0.09370  0.86200  0.72400  1.0000
  Al  Al12      1.0  0.63000  0.86200  0.72400  1.0000
  Dy  Dy1       1.0  0.50000  0.00000  0.00000  1.0000
  Dy  Dy2       1.0  0.00000  0.50000  0.00000  1.0000
  Dy  Dy3       1.0  0.72100  0.72100  0.44200  1.0000
  Dy  Dy4       1.0  0.27900  0.27900  0.55800  1.0000
  Zn  Zn1       1.0  0.15300  0.15300  0.00000  1.0000
  Zn  Zn2       1.0  0.84700  0.15300  0.00000  1.0000
  Zn  Zn3       1.0  0.15300  0.84700  0.00000  1.0000
  Zn  Zn4       1.0  0.84700  0.84700  0.00000  1.0000
  Zn  Zn5       1.0  0.41700  0.41700  0.15700  1.0000
  Zn  Zn6       1.0  0.74000  0.41700  0.15700  1.0000
  Zn  Zn7       1.0  0.41700  0.74000  0.15700  1.0000
  Zn  Zn8       1.0  0.74000  0.74000  0.15700  1.0000
  Zn  Zn9       1.0  0.67300  0.02240  0.34700  1.0000
  Zn  Zn10      1.0  0.67300  0.32400  0.34700  1.0000
  Zn  Zn11      1.0  0.02240  0.67300  0.34700  1.0000
  Zn  Zn12      1.0  0.32400  0.67300  0.34700  1.0000
  Zn  Zn13      1.0  0.67600  0.32700  0.65300  1.0000
  Zn  Zn14      1.0  0.97800  0.32700  0.65300  1.0000
  Zn  Zn15      1.0  0.32700  0.67600  0.65300  1.0000
  Zn  Zn16      1.0  0.32700  0.97800  0.65300  1.0000
  Zn  Zn17      1.0  0.26000  0.26000  0.84300  1.0000
  Zn  Zn18      1.0  0.58300  0.26000  0.84300  1.0000
  Zn  Zn19      1.0  0.26000  0.58300  0.84300  1.0000
  Zn  Zn20      1.0  0.58300  0.58300  0.84300  1.0000
