data_image0
_chemical_formula_structural       Fe6O22Ru6Sr2
_chemical_formula_sum              "Fe6 O22 Ru6 Sr2"
_cell_length_a       5.86213
_cell_length_b       5.86201
_cell_length_c       13.5103
_cell_angle_alpha    90
_cell_angle_beta     90
_cell_angle_gamma    120.001

_space_group_name_H-M_alt    "P 1"
_space_group_IT_number       1

loop_
  _space_group_symop_operation_xyz
  'x, y, z'

loop_
  _atom_site_type_symbol
  _atom_site_label
  _atom_site_symmetry_multiplicity
  _atom_site_fract_x
  _atom_site_fract_y
  _atom_site_fract_z
  _atom_site_occupancy
  Fe  Fe1       1.0  0.00000  0.00000  0.15000  1.0000
  Fe  Fe2       1.0  0.66700  0.33300  0.25000  1.0000
  Fe  Fe3       1.0  0.00000  0.00000  0.35000  1.0000
  Fe  Fe4       1.0  0.00000  0.00000  0.65000  1.0000
  Fe  Fe5       1.0  0.33300  0.66700  0.75000  1.0000
  Fe  Fe6       1.0  0.00000  0.00000  0.85000  1.0000
  O   O1        1.0  0.17400  0.82600  0.08420  1.0000
  O   O2        1.0  0.65300  0.82600  0.08420  1.0000
  O   O3        1.0  0.17400  0.34700  0.08420  1.0000
  O   O4        1.0  0.66700  0.33300  0.08870  1.0000
  O   O5        1.0  0.30100  0.15000  0.25000  1.0000
  O   O6        1.0  0.85000  0.15000  0.25000  1.0000
  O   O7        1.0  0.85000  0.69900  0.25000  1.0000
  O   O8        1.0  0.66700  0.33300  0.41100  1.0000
  O   O9        1.0  0.17400  0.34700  0.41600  1.0000
  O   O10       1.0  0.17400  0.82600  0.41600  1.0000
  O   O11       1.0  0.65300  0.82600  0.41600  1.0000
  O   O12       1.0  0.34700  0.17400  0.58400  1.0000
  O   O13       1.0  0.82600  0.17400  0.58400  1.0000
  O   O14       1.0  0.82600  0.65300  0.58400  1.0000
  O   O15       1.0  0.33300  0.66700  0.58900  1.0000
  O   O16       1.0  0.15000  0.30100  0.75000  1.0000
  O   O17       1.0  0.15000  0.85000  0.75000  1.0000
  O   O18       1.0  0.69900  0.85000  0.75000  1.0000
  O   O19       1.0  0.33300  0.66700  0.91100  1.0000
  O   O20       1.0  0.82600  0.65300  0.91600  1.0000
  O   O21       1.0  0.34700  0.17400  0.91600  1.0000
  O   O22       1.0  0.82600  0.17400  0.91600  1.0000
  Ru  Ru1       1.0  0.50000  0.00000  0.00000  1.0000
  Ru  Ru2       1.0  0.00000  0.50000  0.00000  1.0000
  Ru  Ru3       1.0  0.50000  0.50000  0.00000  1.0000
  Ru  Ru4       1.0  0.50000  0.00000  0.50000  1.0000
  Ru  Ru5       1.0  0.00000  0.50000  0.50000  1.0000
  Ru  Ru6       1.0  0.50000  0.50000  0.50000  1.0000
  Sr  Sr1       1.0  0.33300  0.66700  0.25000  1.0000
  Sr  Sr2       1.0  0.66700  0.33300  0.75000  1.0000
