data_image0
_chemical_formula_structural       Co4Er12
_chemical_formula_sum              "Co4 Er12"
_cell_length_a       6.87548
_cell_length_b       9.25763
_cell_length_c       6.15782
_cell_angle_alpha    90
_cell_angle_beta     90
_cell_angle_gamma    90

_space_group_name_H-M_alt    "P 1"
_space_group_IT_number       1

loop_
  _space_group_symop_operation_xyz
  'x, y, z'

loop_
  _atom_site_type_symbol
  _atom_site_label
  _atom_site_symmetry_multiplicity
  _atom_site_fract_x
  _atom_site_fract_y
  _atom_site_fract_z
  _atom_site_occupancy
  Co  Co1       1.0  0.88800  0.25000  0.04910  1.0000
  Co  Co2       1.0  0.38800  0.25000  0.45100  1.0000
  Co  Co3       1.0  0.61200  0.75000  0.54900  1.0000
  Co  Co4       1.0  0.11200  0.75000  0.95100  1.0000
  Er  Er1       1.0  0.45900  0.75000  0.13800  1.0000
  Er  Er2       1.0  0.17600  0.06650  0.17700  1.0000
  Er  Er3       1.0  0.17600  0.43300  0.17700  1.0000
  Er  Er4       1.0  0.67600  0.06650  0.32300  1.0000
  Er  Er5       1.0  0.67600  0.43300  0.32300  1.0000
  Er  Er6       1.0  0.95900  0.75000  0.36200  1.0000
  Er  Er7       1.0  0.04100  0.25000  0.63800  1.0000
  Er  Er8       1.0  0.32400  0.56700  0.67700  1.0000
  Er  Er9       1.0  0.32400  0.93300  0.67700  1.0000
  Er  Er10      1.0  0.82400  0.56700  0.82300  1.0000
  Er  Er11      1.0  0.82400  0.93300  0.82300  1.0000
  Er  Er12      1.0  0.54100  0.25000  0.86200  1.0000
