data_image0
_chemical_formula_structural       Cs2Ga4H6O20P4
_chemical_formula_sum              "Cs2 Ga4 H6 O20 P4"
_cell_length_a       15.8526
_cell_length_b       5.9731
_cell_length_c       4.48632
_cell_angle_alpha    90
_cell_angle_beta     93.3837
_cell_angle_gamma    90

_space_group_name_H-M_alt    "P 1"
_space_group_IT_number       1

loop_
  _space_group_symop_operation_xyz
  'x, y, z'

loop_
  _atom_site_type_symbol
  _atom_site_label
  _atom_site_symmetry_multiplicity
  _atom_site_fract_x
  _atom_site_fract_y
  _atom_site_fract_z
  _atom_site_occupancy
  Cs  Cs1       1.0  0.00000  0.00000  0.00000  1.0000
  Cs  Cs2       1.0  0.50000  0.50000  0.00000  1.0000
  Ga  Ga1       1.0  0.24600  0.63200  0.00591  1.0000
  Ga  Ga2       1.0  0.74600  0.86800  0.00591  1.0000
  Ga  Ga3       1.0  0.25400  0.13200  0.99400  1.0000
  Ga  Ga4       1.0  0.75400  0.36800  0.99400  1.0000
  H   H1        1.0  0.32100  0.37600  0.39700  1.0000
  H   H2        1.0  0.82100  0.12400  0.39700  1.0000
  H   H3        1.0  0.00000  0.50000  0.50000  1.0000
  H   H4        1.0  0.50000  0.00000  0.50000  1.0000
  H   H5        1.0  0.17900  0.87600  0.60300  1.0000
  H   H6        1.0  0.67900  0.62400  0.60300  1.0000
  O   O1        1.0  0.31600  0.38500  0.17800  1.0000
  O   O2        1.0  0.81600  0.11500  0.17800  1.0000
  O   O3        1.0  0.80100  0.62000  0.24600  1.0000
  O   O4        1.0  0.30100  0.88000  0.24600  1.0000
  O   O5        1.0  0.16500  0.16400  0.28500  1.0000
  O   O6        1.0  0.66500  0.33600  0.28500  1.0000
  O   O7        1.0  0.15500  0.59700  0.28900  1.0000
  O   O8        1.0  0.65500  0.90300  0.28900  1.0000
  O   O9        1.0  0.45200  0.84800  0.46600  1.0000
  O   O10       1.0  0.95200  0.65200  0.46600  1.0000
  O   O11       1.0  0.04830  0.34800  0.53400  1.0000
  O   O12       1.0  0.54800  0.15200  0.53400  1.0000
  O   O13       1.0  0.34500  0.09710  0.71100  1.0000
  O   O14       1.0  0.84500  0.40300  0.71100  1.0000
  O   O15       1.0  0.33500  0.66400  0.71500  1.0000
  O   O16       1.0  0.83500  0.83600  0.71500  1.0000
  O   O17       1.0  0.19900  0.38000  0.75400  1.0000
  O   O18       1.0  0.69900  0.12000  0.75400  1.0000
  O   O19       1.0  0.18400  0.88500  0.82200  1.0000
  O   O20       1.0  0.68400  0.61500  0.82200  1.0000
  P   P1        1.0  0.14100  0.37500  0.45500  1.0000
  P   P2        1.0  0.64100  0.12500  0.45500  1.0000
  P   P3        1.0  0.35900  0.87500  0.54500  1.0000
  P   P4        1.0  0.85900  0.62500  0.54500  1.0000
