data_image0
_chemical_formula_structural       Eu8Ge12Mg16
_chemical_formula_sum              "Eu8 Ge12 Mg16"
_cell_length_a       14.793
_cell_length_b       14.793
_cell_length_c       4.42171
_cell_angle_alpha    90
_cell_angle_beta     90
_cell_angle_gamma    120.001

_space_group_name_H-M_alt    "P 1"
_space_group_IT_number       1

loop_
  _space_group_symop_operation_xyz
  'x, y, z'

loop_
  _atom_site_type_symbol
  _atom_site_label
  _atom_site_symmetry_multiplicity
  _atom_site_fract_x
  _atom_site_fract_y
  _atom_site_fract_z
  _atom_site_occupancy
  Eu  Eu1       1.0  0.43800  0.00000  0.00000  1.0000
  Eu  Eu2       1.0  0.66700  0.33300  0.00000  1.0000
  Eu  Eu3       1.0  0.00000  0.43800  0.00000  1.0000
  Eu  Eu4       1.0  0.56200  0.56200  0.00000  1.0000
  Eu  Eu5       1.0  0.33300  0.66700  0.00000  1.0000
  Eu  Eu6       1.0  0.81800  0.00000  0.50000  1.0000
  Eu  Eu7       1.0  0.18200  0.18200  0.50000  1.0000
  Eu  Eu8       1.0  1.00000  0.81800  0.50000  1.0000
  Ge  Ge1       1.0  0.17500  0.00000  0.00000  1.0000
  Ge  Ge2       1.0  0.64200  0.00000  0.00000  1.0000
  Ge  Ge3       1.0  0.00000  0.17500  0.00000  1.0000
  Ge  Ge4       1.0  0.35800  0.35800  0.00000  1.0000
  Ge  Ge5       1.0  0.00000  0.64200  0.00000  1.0000
  Ge  Ge6       1.0  0.82500  0.82500  0.00000  1.0000
  Ge  Ge7       1.0  0.48300  0.17200  0.50000  1.0000
  Ge  Ge8       1.0  0.82800  0.31100  0.50000  1.0000
  Ge  Ge9       1.0  0.17200  0.48300  0.50000  1.0000
  Ge  Ge10      1.0  0.68900  0.51700  0.50000  1.0000
  Ge  Ge11      1.0  0.51700  0.68900  0.50000  1.0000
  Ge  Ge12      1.0  0.31100  0.82800  0.50000  1.0000
  Mg  Mg1       1.0  0.00000  0.00000  0.00000  1.0000
  Mg  Mg2       1.0  0.37300  0.18100  0.00000  1.0000
  Mg  Mg3       1.0  0.81900  0.19200  0.00000  1.0000
  Mg  Mg4       1.0  0.18100  0.37300  0.00000  1.0000
  Mg  Mg5       1.0  0.80800  0.62700  0.00000  1.0000
  Mg  Mg6       1.0  0.62700  0.80800  0.00000  1.0000
  Mg  Mg7       1.0  0.19200  0.81900  0.00000  1.0000
  Mg  Mg8       1.0  0.27600  0.00000  0.50000  1.0000
  Mg  Mg9       1.0  0.64500  0.12600  0.50000  1.0000
  Mg  Mg10      1.0  0.00000  0.27600  0.50000  1.0000
  Mg  Mg11      1.0  0.48000  0.35500  0.50000  1.0000
  Mg  Mg12      1.0  0.35500  0.48000  0.50000  1.0000
  Mg  Mg13      1.0  0.87400  0.52000  0.50000  1.0000
  Mg  Mg14      1.0  0.12600  0.64500  0.50000  1.0000
  Mg  Mg15      1.0  0.72400  0.72400  0.50000  1.0000
  Mg  Mg16      1.0  0.52000  0.87400  0.50000  1.0000
