data_image0
_chemical_formula_structural       In14K3Mg20
_chemical_formula_sum              "In14 K3 Mg20"
_cell_length_a       9.81709
_cell_length_b       9.81709
_cell_length_c       9.81709
_cell_angle_alpha    90
_cell_angle_beta     90
_cell_angle_gamma    90

_space_group_name_H-M_alt    "P 1"
_space_group_IT_number       1

loop_
  _space_group_symop_operation_xyz
  'x, y, z'

loop_
  _atom_site_type_symbol
  _atom_site_label
  _atom_site_symmetry_multiplicity
  _atom_site_fract_x
  _atom_site_fract_y
  _atom_site_fract_z
  _atom_site_occupancy
  In  In1       1.0  0.00000  0.00000  0.00000  1.0000
  In  In2       1.0  0.34800  0.34800  0.00000  1.0000
  In  In3       1.0  0.65200  0.34800  0.00000  1.0000
  In  In4       1.0  0.34800  0.65200  0.00000  1.0000
  In  In5       1.0  0.65200  0.65200  0.00000  1.0000
  In  In6       1.0  0.34800  0.00000  0.34800  1.0000
  In  In7       1.0  0.65200  0.00000  0.34800  1.0000
  In  In8       1.0  0.00000  0.34800  0.34800  1.0000
  In  In9       1.0  0.00000  0.65200  0.34800  1.0000
  In  In10      1.0  0.50000  0.50000  0.50000  1.0000
  In  In11      1.0  0.34800  0.00000  0.65200  1.0000
  In  In12      1.0  0.65200  0.00000  0.65200  1.0000
  In  In13      1.0  0.00000  0.34800  0.65200  1.0000
  In  In14      1.0  0.00000  0.65200  0.65200  1.0000
  K   K1        1.0  0.50000  0.00000  0.00000  1.0000
  K   K2        1.0  0.00000  0.50000  0.00000  1.0000
  K   K3        1.0  0.00000  0.00000  0.50000  1.0000
  Mg  Mg1       1.0  0.17400  0.17400  0.17400  1.0000
  Mg  Mg2       1.0  0.82600  0.17400  0.17400  1.0000
  Mg  Mg3       1.0  0.17400  0.82600  0.17400  1.0000
  Mg  Mg4       1.0  0.82600  0.82600  0.17400  1.0000
  Mg  Mg5       1.0  0.50000  0.26500  0.26500  1.0000
  Mg  Mg6       1.0  0.26500  0.50000  0.26500  1.0000
  Mg  Mg7       1.0  0.73500  0.50000  0.26500  1.0000
  Mg  Mg8       1.0  0.50000  0.73500  0.26500  1.0000
  Mg  Mg9       1.0  0.26500  0.26500  0.50000  1.0000
  Mg  Mg10      1.0  0.73500  0.26500  0.50000  1.0000
  Mg  Mg11      1.0  0.26500  0.73500  0.50000  1.0000
  Mg  Mg12      1.0  0.73500  0.73500  0.50000  1.0000
  Mg  Mg13      1.0  0.50000  0.26500  0.73500  1.0000
  Mg  Mg14      1.0  0.26500  0.50000  0.73500  1.0000
  Mg  Mg15      1.0  0.73500  0.50000  0.73500  1.0000
  Mg  Mg16      1.0  0.50000  0.73500  0.73500  1.0000
  Mg  Mg17      1.0  0.17400  0.17400  0.82600  1.0000
  Mg  Mg18      1.0  0.82600  0.17400  0.82600  1.0000
  Mg  Mg19      1.0  0.17400  0.82600  0.82600  1.0000
  Mg  Mg20      1.0  0.82600  0.82600  0.82600  1.0000
