data_image0
_chemical_formula_structural       Fe7O24P6
_chemical_formula_sum              "Fe7 O24 P6"
_cell_length_a       6.35271
_cell_length_b       7.94397
_cell_length_c       9.47951
_cell_angle_alpha    66.8093
_cell_angle_beta     68.7398
_cell_angle_gamma    78.4688

_space_group_name_H-M_alt    "P 1"
_space_group_IT_number       1

loop_
  _space_group_symop_operation_xyz
  'x, y, z'

loop_
  _atom_site_type_symbol
  _atom_site_label
  _atom_site_symmetry_multiplicity
  _atom_site_fract_x
  _atom_site_fract_y
  _atom_site_fract_z
  _atom_site_occupancy
  Fe  Fe1       1.0  0.00000  0.00000  0.00000  1.0000
  Fe  Fe2       1.0  0.27000  0.54600  0.11500  1.0000
  Fe  Fe3       1.0  0.99300  0.18900  0.28500  1.0000
  Fe  Fe4       1.0  0.48200  0.72100  0.47400  1.0000
  Fe  Fe5       1.0  0.51800  0.27900  0.52600  1.0000
  Fe  Fe6       1.0  0.00750  0.81100  0.71500  1.0000
  Fe  Fe7       1.0  0.73000  0.45400  0.88500  1.0000
  O   O1        1.0  0.71500  0.19900  0.05570  1.0000
  O   O2        1.0  0.79700  0.79400  0.07640  1.0000
  O   O3        1.0  0.60500  0.53800  0.08370  1.0000
  O   O4        1.0  0.96200  0.46900  0.16000  1.0000
  O   O5        1.0  0.31500  0.26700  0.22600  1.0000
  O   O6        1.0  0.03580  0.95900  0.24000  1.0000
  O   O7        1.0  0.16200  0.62900  0.29000  1.0000
  O   O8        1.0  0.49400  0.94800  0.29400  1.0000
  O   O9        1.0  0.63900  0.18900  0.34000  1.0000
  O   O10       1.0  0.58800  0.55200  0.34500  1.0000
  O   O11       1.0  0.78400  0.71700  0.46800  1.0000
  O   O12       1.0  0.14000  0.76000  0.49600  1.0000
  O   O13       1.0  0.86000  0.24000  0.50400  1.0000
  O   O14       1.0  0.21600  0.28300  0.53200  1.0000
  O   O15       1.0  0.41200  0.44800  0.65500  1.0000
  O   O16       1.0  0.36100  0.81100  0.66000  1.0000
  O   O17       1.0  0.50600  0.05240  0.70600  1.0000
  O   O18       1.0  0.83800  0.37100  0.71000  1.0000
  O   O19       1.0  0.96400  0.04110  0.76000  1.0000
  O   O20       1.0  0.68500  0.73300  0.77400  1.0000
  O   O21       1.0  0.03840  0.53100  0.84000  1.0000
  O   O22       1.0  0.39500  0.46200  0.91600  1.0000
  O   O23       1.0  0.20300  0.20600  0.92400  1.0000
  O   O24       1.0  0.28500  0.80100  0.94400  1.0000
  P   P1        1.0  0.73900  0.59700  0.16500  1.0000
  P   P2        1.0  0.53900  0.14800  0.23000  1.0000
  P   P3        1.0  0.02830  0.76600  0.37300  1.0000
  P   P4        1.0  0.97200  0.23400  0.62700  1.0000
  P   P5        1.0  0.46100  0.85200  0.77000  1.0000
  P   P6        1.0  0.26100  0.40300  0.83500  1.0000
