data_image0
_chemical_formula_structural       CuH18N6O10V2
_chemical_formula_sum              "Cu1 H18 N6 O10 V2"
_cell_length_a       6.93342
_cell_length_b       7.19839
_cell_length_c       7.20744
_cell_angle_alpha    62.3326
_cell_angle_beta     74.0054
_cell_angle_gamma    72.1989

_space_group_name_H-M_alt    "P 1"
_space_group_IT_number       1

loop_
  _space_group_symop_operation_xyz
  'x, y, z'

loop_
  _atom_site_type_symbol
  _atom_site_label
  _atom_site_symmetry_multiplicity
  _atom_site_fract_x
  _atom_site_fract_y
  _atom_site_fract_z
  _atom_site_occupancy
  Cu  Cu1       1.0  0.50000  1.00000  0.50000  1.0000
  H   H1        1.0  0.85000  0.83600  0.03970  1.0000
  H   H2        1.0  0.83500  0.58500  0.09800  1.0000
  H   H3        1.0  0.63100  0.09350  0.10200  1.0000
  H   H4        1.0  0.39900  0.23200  0.13800  1.0000
  H   H5        1.0  0.43400  0.97200  0.18500  1.0000
  H   H6        1.0  0.75000  0.25200  0.25300  1.0000
  H   H7        1.0  0.76400  0.67500  0.29200  1.0000
  H   H8        1.0  0.87400  0.01130  0.40800  1.0000
  H   H9        1.0  0.24700  0.80500  0.49400  1.0000
  H   H10       1.0  0.75300  0.19500  0.50600  1.0000
  H   H11       1.0  0.12600  0.98900  0.59200  1.0000
  H   H12       1.0  0.23600  0.32500  0.70800  1.0000
  H   H13       1.0  0.25000  0.74800  0.74700  1.0000
  H   H14       1.0  0.56600  0.02760  0.81500  1.0000
  H   H15       1.0  0.60100  0.76800  0.86200  1.0000
  H   H16       1.0  0.36900  0.90700  0.89800  1.0000
  H   H17       1.0  0.16500  0.41500  0.90200  1.0000
  H   H18       1.0  0.15000  0.16400  0.96000  1.0000
  N   N1        1.0  0.86500  0.68000  0.15400  1.0000
  N   N2        1.0  0.49100  0.08180  0.19700  1.0000
  N   N3        1.0  0.74800  0.13300  0.40500  1.0000
  N   N4        1.0  0.25200  0.86700  0.59500  1.0000
  N   N5        1.0  0.50900  0.91800  0.80300  1.0000
  N   N6        1.0  0.13500  0.32000  0.84600  1.0000
  O   O1        1.0  0.26300  0.53300  0.02750  1.0000
  O   O2        1.0  0.14500  0.88200  0.14200  1.0000
  O   O3        1.0  0.31600  0.74100  0.25800  1.0000
  O   O4        1.0  0.27300  0.33400  0.45700  1.0000
  O   O5        1.0  0.06520  0.32700  0.45700  1.0000
  O   O6        1.0  0.93500  0.67300  0.54300  1.0000
  O   O7        1.0  0.72700  0.66600  0.54300  1.0000
  O   O8        1.0  0.68400  0.25900  0.74200  1.0000
  O   O9        1.0  0.85500  0.11800  0.85800  1.0000
  O   O10       1.0  0.73700  0.46700  0.97300  1.0000
  V   V1        1.0  0.15300  0.58400  0.23900  1.0000
  V   V2        1.0  0.84700  0.41600  0.76100  1.0000
