data_image0
_chemical_formula_structural       C2F6H18N8O2Si
_chemical_formula_sum              "C2 F6 H18 N8 O2 Si1"
_cell_length_a       6.25917
_cell_length_b       6.22604
_cell_length_c       7.66703
_cell_angle_alpha    72.5744
_cell_angle_beta     83.1945
_cell_angle_gamma    89.5556

_space_group_name_H-M_alt    "P 1"
_space_group_IT_number       1

loop_
  _space_group_symop_operation_xyz
  'x, y, z'

loop_
  _atom_site_type_symbol
  _atom_site_label
  _atom_site_symmetry_multiplicity
  _atom_site_fract_x
  _atom_site_fract_y
  _atom_site_fract_z
  _atom_site_occupancy
  C   C1        1.0  0.52500  0.75900  0.47400  1.0000
  C   C2        1.0  0.47500  0.24100  0.52600  1.0000
  F   F1        1.0  0.75500  0.11700  0.03560  1.0000
  F   F2        1.0  0.88200  0.73900  0.09380  1.0000
  F   F3        1.0  0.05360  0.00000  0.21300  1.0000
  F   F4        1.0  0.94600  0.00039  0.78700  1.0000
  F   F5        1.0  0.11800  0.26100  0.90600  1.0000
  F   F6        1.0  0.24500  0.88300  0.96400  1.0000
  H   H1        1.0  0.23300  0.36900  0.05300  1.0000
  H   H2        1.0  0.27900  0.60400  0.07930  1.0000
  H   H3        1.0  0.55200  0.91600  0.19800  1.0000
  H   H4        1.0  0.54700  0.37000  0.24900  1.0000
  H   H5        1.0  0.90300  0.20800  0.31000  1.0000
  H   H6        1.0  0.28900  0.86000  0.31400  1.0000
  H   H7        1.0  0.89400  0.47000  0.32000  1.0000
  H   H8        1.0  0.22500  0.31700  0.37800  1.0000
  H   H9        1.0  0.85000  0.81900  0.38400  1.0000
  H   H10       1.0  0.15000  0.18100  0.61600  1.0000
  H   H11       1.0  0.77500  0.68300  0.62200  1.0000
  H   H12       1.0  0.10600  0.53000  0.68000  1.0000
  H   H13       1.0  0.71100  0.14000  0.68600  1.0000
  H   H14       1.0  0.09680  0.79200  0.69000  1.0000
  H   H15       1.0  0.45300  0.63000  0.75100  1.0000
  H   H16       1.0  0.44800  0.08420  0.80200  1.0000
  H   H17       1.0  0.72100  0.39600  0.92100  1.0000
  H   H18       1.0  0.76700  0.63100  0.94700  1.0000
  N   N1        1.0  0.45000  0.83100  0.31100  1.0000
  N   N2        1.0  0.61200  0.31100  0.37100  1.0000
  N   N3        1.0  0.83300  0.31000  0.38200  1.0000
  N   N4        1.0  0.73500  0.74900  0.49100  1.0000
  N   N5        1.0  0.26500  0.25100  0.50900  1.0000
  N   N6        1.0  0.16700  0.69000  0.61800  1.0000
  N   N7        1.0  0.38800  0.68900  0.62900  1.0000
  N   N8        1.0  0.55000  0.16900  0.68900  1.0000
  O   O1        1.0  0.29200  0.44100  0.13600  1.0000
  O   O2        1.0  0.70800  0.55900  0.86400  1.0000
  Si  Si1       1.0  0.00000  0.00000  0.00000  1.0000
