data_image0
_chemical_formula_structural       In10Pb6S21
_chemical_formula_sum              "In10 Pb6 S21"
_cell_length_a       3.9007
_cell_length_b       14.0749
_cell_length_c       15.8991
_cell_angle_alpha    95.2363
_cell_angle_beta     90
_cell_angle_gamma    97.9651

_space_group_name_H-M_alt    "P 1"
_space_group_IT_number       1

loop_
  _space_group_symop_operation_xyz
  'x, y, z'

loop_
  _atom_site_type_symbol
  _atom_site_label
  _atom_site_symmetry_multiplicity
  _atom_site_fract_x
  _atom_site_fract_y
  _atom_site_fract_z
  _atom_site_occupancy
  In  In1       1.0  0.90000  0.80100  0.01880  1.0000
  In  In2       1.0  0.26500  0.52900  0.10800  1.0000
  In  In3       1.0  0.51300  0.02690  0.12900  1.0000
  In  In4       1.0  0.78500  0.57000  0.30800  1.0000
  In  In5       1.0  0.68800  0.37600  0.48500  1.0000
  In  In6       1.0  0.31200  0.62400  0.51500  1.0000
  In  In7       1.0  0.21500  0.43000  0.69200  1.0000
  In  In8       1.0  0.48700  0.97300  0.87100  1.0000
  In  In9       1.0  0.73500  0.47100  0.89200  1.0000
  In  In10      1.0  0.09960  0.19900  0.98100  1.0000
  Pb  Pb1       1.0  0.13700  0.27400  0.24200  1.0000
  Pb  Pb2       1.0  0.92600  0.85100  0.29400  1.0000
  Pb  Pb3       1.0  0.04970  0.09940  0.43100  1.0000
  Pb  Pb4       1.0  0.95000  0.90100  0.56900  1.0000
  Pb  Pb5       1.0  0.07430  0.14900  0.70600  1.0000
  Pb  Pb6       1.0  0.86300  0.72600  0.75800  1.0000
  S   S1        1.0  0.00000  0.00000  0.00000  1.0000
  S   S2        1.0  0.80400  0.60900  0.02390  1.0000
  S   S3        1.0  0.60200  0.20500  0.09580  1.0000
  S   S4        1.0  0.42100  0.84200  0.12700  1.0000
  S   S5        1.0  0.71900  0.43700  0.18800  1.0000
  S   S6        1.0  0.02610  0.05220  0.23600  1.0000
  S   S7        1.0  0.32800  0.65600  0.23900  1.0000
  S   S8        1.0  0.61800  0.23600  0.36700  1.0000
  S   S9        1.0  0.23600  0.47200  0.40200  1.0000
  S   S10       1.0  0.46500  0.93100  0.40700  1.0000
  S   S11       1.0  0.84900  0.69900  0.43500  1.0000
  S   S12       1.0  0.15100  0.30100  0.56500  1.0000
  S   S13       1.0  0.53500  0.06940  0.59300  1.0000
  S   S14       1.0  0.76400  0.52800  0.59800  1.0000
  S   S15       1.0  0.38200  0.76400  0.63300  1.0000
  S   S16       1.0  0.67200  0.34400  0.76100  1.0000
  S   S17       1.0  0.97400  0.94800  0.76400  1.0000
  S   S18       1.0  0.28100  0.56300  0.81200  1.0000
  S   S19       1.0  0.57900  0.15800  0.87300  1.0000
  S   S20       1.0  0.39800  0.79500  0.90400  1.0000
  S   S21       1.0  0.19600  0.39100  0.97600  1.0000
