data_image0
_chemical_formula_structural       Fe4Mn3O24V6
_chemical_formula_sum              "Fe4 Mn3 O24 V6"
_cell_length_a       6.69489
_cell_length_b       8.12902
_cell_length_c       9.7843
_cell_angle_alpha    105.718
_cell_angle_beta     105.898
_cell_angle_gamma    102.731

_space_group_name_H-M_alt    "P 1"
_space_group_IT_number       1

loop_
  _space_group_symop_operation_xyz
  'x, y, z'

loop_
  _atom_site_type_symbol
  _atom_site_label
  _atom_site_symmetry_multiplicity
  _atom_site_fract_x
  _atom_site_fract_y
  _atom_site_fract_z
  _atom_site_occupancy
  Fe  Fe1       1.0  0.88000  0.45800  0.10900  1.0000
  Fe  Fe2       1.0  0.45400  0.29100  0.48300  1.0000
  Fe  Fe3       1.0  0.54600  0.70900  0.51700  1.0000
  Fe  Fe4       1.0  0.12000  0.54200  0.89100  1.0000
  Mn  Mn1       1.0  0.50000  0.00000  0.00000  1.0000
  Mn  Mn2       1.0  0.78400  0.80600  0.29300  1.0000
  Mn  Mn3       1.0  0.21600  0.19400  0.70700  1.0000
  O   O1        1.0  0.28000  0.79600  0.04070  1.0000
  O   O2        1.0  0.16500  0.46600  0.07640  1.0000
  O   O3        1.0  0.35600  0.18900  0.07890  1.0000
  O   O4        1.0  0.62900  0.52900  0.14900  1.0000
  O   O5        1.0  0.75300  0.02490  0.23000  1.0000
  O   O6        1.0  0.02910  0.73000  0.23000  1.0000
  O   O7        1.0  0.94700  0.38400  0.27800  1.0000
  O   O8        1.0  0.31500  0.06570  0.30800  1.0000
  O   O9        1.0  0.49000  0.79100  0.34100  1.0000
  O   O10       1.0  0.42700  0.44800  0.35800  1.0000
  O   O11       1.0  0.73600  0.29000  0.47100  1.0000
  O   O12       1.0  0.14500  0.23700  0.49700  1.0000
  O   O13       1.0  0.85500  0.76300  0.50300  1.0000
  O   O14       1.0  0.26400  0.71000  0.52900  1.0000
  O   O15       1.0  0.57300  0.55200  0.64200  1.0000
  O   O16       1.0  0.51000  0.20900  0.65900  1.0000
  O   O17       1.0  0.68500  0.93400  0.69200  1.0000
  O   O18       1.0  0.05270  0.61600  0.72200  1.0000
  O   O19       1.0  0.97100  0.27000  0.77000  1.0000
  O   O20       1.0  0.24700  0.97500  0.77000  1.0000
  O   O21       1.0  0.37100  0.47100  0.85100  1.0000
  O   O22       1.0  0.64400  0.81100  0.92100  1.0000
  O   O23       1.0  0.83500  0.53400  0.92400  1.0000
  O   O24       1.0  0.72000  0.20400  0.95900  1.0000
  V   V1        1.0  0.39300  0.40500  0.16500  1.0000
  V   V2        1.0  0.27900  0.84500  0.22800  1.0000
  V   V3        1.0  0.89800  0.23600  0.37000  1.0000
  V   V4        1.0  0.10200  0.76400  0.63000  1.0000
  V   V5        1.0  0.72100  0.15500  0.77200  1.0000
  V   V6        1.0  0.60700  0.59500  0.83500  1.0000
