data_image0
_chemical_formula_structural       B10O21Pb6
_chemical_formula_sum              "B10 O21 Pb6"
_cell_length_a       6.81124
_cell_length_b       6.9653
_cell_length_c       10.9579
_cell_angle_alpha    87.0844
_cell_angle_beta     100.975
_cell_angle_gamma    119.184

_space_group_name_H-M_alt    "P 1"
_space_group_IT_number       1

loop_
  _space_group_symop_operation_xyz
  'x, y, z'

loop_
  _atom_site_type_symbol
  _atom_site_label
  _atom_site_symmetry_multiplicity
  _atom_site_fract_x
  _atom_site_fract_y
  _atom_site_fract_z
  _atom_site_occupancy
  B   B1        1.0  0.08470  0.86700  0.05400  1.0000
  B   B2        1.0  0.00379  0.55900  0.19900  1.0000
  B   B3        1.0  0.89200  0.16600  0.24000  1.0000
  B   B4        1.0  0.29500  0.46000  0.29400  1.0000
  B   B5        1.0  0.19600  0.67700  0.42600  1.0000
  B   B6        1.0  0.80400  0.32300  0.57400  1.0000
  B   B7        1.0  0.70500  0.54000  0.70600  1.0000
  B   B8        1.0  0.10800  0.83400  0.76000  1.0000
  B   B9        1.0  0.99600  0.44100  0.80100  1.0000
  B   B10       1.0  0.91500  0.13300  0.94600  1.0000
  O   O1        1.0  0.00000  0.00000  0.00000  1.0000
  O   O2        1.0  0.31300  0.94000  0.06060  1.0000
  O   O3        1.0  0.93500  0.67300  0.10100  1.0000
  O   O4        1.0  0.21900  0.56800  0.19400  1.0000
  O   O5        1.0  0.82400  0.32100  0.19400  1.0000
  O   O6        1.0  0.72300  0.95200  0.23800  1.0000
  O   O7        1.0  0.50900  0.47400  0.28200  1.0000
  O   O8        1.0  0.11500  0.22500  0.29300  1.0000
  O   O9        1.0  0.02990  0.66300  0.32300  1.0000
  O   O10       1.0  0.32600  0.57600  0.41700  1.0000
  O   O11       1.0  0.77500  0.20500  0.47200  1.0000
  O   O12       1.0  0.22500  0.79500  0.52800  1.0000
  O   O13       1.0  0.67400  0.42400  0.58300  1.0000
  O   O14       1.0  0.97000  0.33700  0.67700  1.0000
  O   O15       1.0  0.88500  0.77500  0.70700  1.0000
  O   O16       1.0  0.49100  0.52600  0.71800  1.0000
  O   O17       1.0  0.27700  0.04810  0.76200  1.0000
  O   O18       1.0  0.17600  0.67900  0.80600  1.0000
  O   O19       1.0  0.78100  0.43200  0.80600  1.0000
  O   O20       1.0  0.06540  0.32700  0.89900  1.0000
  O   O21       1.0  0.68700  0.06020  0.93900  1.0000
  Pb  Pb1       1.0  0.49000  0.72500  0.05730  1.0000
  Pb  Pb2       1.0  0.47300  0.12500  0.30100  1.0000
  Pb  Pb3       1.0  0.78800  0.75900  0.41500  1.0000
  Pb  Pb4       1.0  0.21200  0.24100  0.58500  1.0000
  Pb  Pb5       1.0  0.52700  0.87500  0.69900  1.0000
  Pb  Pb6       1.0  0.51000  0.27500  0.94300  1.0000
