data_image0
_chemical_formula_structural       Cu4La8S20Yb4
_chemical_formula_sum              "Cu4 La8 S20 Yb4"
_cell_length_a       11.6453
_cell_length_b       4.01216
_cell_length_c       16.9255
_cell_angle_alpha    90
_cell_angle_beta     90
_cell_angle_gamma    90

_space_group_name_H-M_alt    "P 1"
_space_group_IT_number       1

loop_
  _space_group_symop_operation_xyz
  'x, y, z'

loop_
  _atom_site_type_symbol
  _atom_site_label
  _atom_site_symmetry_multiplicity
  _atom_site_fract_x
  _atom_site_fract_y
  _atom_site_fract_z
  _atom_site_occupancy
  Cu  Cu1       1.0  0.83100  0.25000  0.01800  1.0000
  Cu  Cu2       1.0  0.33100  0.25000  0.48200  1.0000
  Cu  Cu3       1.0  0.66900  0.75000  0.51800  1.0000
  Cu  Cu4       1.0  0.16900  0.75000  0.98200  1.0000
  La  La1       1.0  0.36600  0.25000  0.10400  1.0000
  La  La2       1.0  0.01510  0.25000  0.17600  1.0000
  La  La3       1.0  0.51500  0.25000  0.32400  1.0000
  La  La4       1.0  0.86600  0.25000  0.39600  1.0000
  La  La5       1.0  0.13400  0.75000  0.60400  1.0000
  La  La6       1.0  0.48500  0.75000  0.67600  1.0000
  La  La7       1.0  0.98500  0.75000  0.82400  1.0000
  La  La8       1.0  0.63400  0.75000  0.89600  1.0000
  S   S1        1.0  0.62600  0.25000  0.02820  1.0000
  S   S2        1.0  0.90600  0.75000  0.06870  1.0000
  S   S3        1.0  0.18200  0.75000  0.11700  1.0000
  S   S4        1.0  0.48400  0.75000  0.20000  1.0000
  S   S5        1.0  0.76400  0.25000  0.23700  1.0000
  S   S6        1.0  0.26400  0.25000  0.26300  1.0000
  S   S7        1.0  0.98400  0.75000  0.30000  1.0000
  S   S8        1.0  0.68200  0.75000  0.38300  1.0000
  S   S9        1.0  0.40600  0.75000  0.43100  1.0000
  S   S10       1.0  0.12600  0.25000  0.47200  1.0000
  S   S11       1.0  0.87400  0.75000  0.52800  1.0000
  S   S12       1.0  0.59400  0.25000  0.56900  1.0000
  S   S13       1.0  0.31800  0.25000  0.61700  1.0000
  S   S14       1.0  0.01560  0.25000  0.70000  1.0000
  S   S15       1.0  0.73600  0.75000  0.73700  1.0000
  S   S16       1.0  0.23600  0.75000  0.76300  1.0000
  S   S17       1.0  0.51600  0.25000  0.80000  1.0000
  S   S18       1.0  0.81800  0.25000  0.88300  1.0000
  S   S19       1.0  0.09420  0.25000  0.93100  1.0000
  S   S20       1.0  0.37400  0.75000  0.97200  1.0000
  Yb  Yb1       1.0  0.69700  0.75000  0.13900  1.0000
  Yb  Yb2       1.0  0.19700  0.75000  0.36100  1.0000
  Yb  Yb3       1.0  0.80300  0.25000  0.63900  1.0000
  Yb  Yb4       1.0  0.30300  0.25000  0.86100  1.0000
