data_image0
_chemical_formula_structural       Cd4Na8O20Si6
_chemical_formula_sum              "Cd4 Na8 O20 Si6"
_cell_length_a       5.73471
_cell_length_b       5.73471
_cell_length_c       17.5928
_cell_angle_alpha    98.6402
_cell_angle_beta     98.6402
_cell_angle_gamma    61.2917

_space_group_name_H-M_alt    "P 1"
_space_group_IT_number       1

loop_
  _space_group_symop_operation_xyz
  'x, y, z'

loop_
  _atom_site_type_symbol
  _atom_site_label
  _atom_site_symmetry_multiplicity
  _atom_site_fract_x
  _atom_site_fract_y
  _atom_site_fract_z
  _atom_site_occupancy
  Cd  Cd1       1.0  0.00012  0.19900  0.08500  1.0000
  Cd  Cd2       1.0  0.80100  0.00000  0.41500  1.0000
  Cd  Cd3       1.0  0.19900  0.00012  0.58500  1.0000
  Cd  Cd4       1.0  0.00000  0.80100  0.91500  1.0000
  Na  Na1       1.0  0.68800  0.82500  0.06090  1.0000
  Na  Na2       1.0  0.78100  0.56900  0.24500  1.0000
  Na  Na3       1.0  0.43100  0.21900  0.25500  1.0000
  Na  Na4       1.0  0.17500  0.31200  0.43900  1.0000
  Na  Na5       1.0  0.82500  0.68800  0.56100  1.0000
  Na  Na6       1.0  0.56900  0.78100  0.74500  1.0000
  Na  Na7       1.0  0.21900  0.43100  0.75500  1.0000
  Na  Na8       1.0  0.31200  0.17500  0.93900  1.0000
  O   O1        1.0  0.10800  0.76800  0.04640  1.0000
  O   O2        1.0  0.36400  0.24300  0.07250  1.0000
  O   O3        1.0  0.61400  0.55000  0.11700  1.0000
  O   O4        1.0  0.20000  0.61300  0.18700  1.0000
  O   O5        1.0  0.08020  0.13900  0.21200  1.0000
  O   O6        1.0  0.86100  0.92000  0.28800  1.0000
  O   O7        1.0  0.38700  0.80000  0.31300  1.0000
  O   O8        1.0  0.45000  0.38600  0.38300  1.0000
  O   O9        1.0  0.75700  0.63600  0.42700  1.0000
  O   O10       1.0  0.23200  0.89200  0.45400  1.0000
  O   O11       1.0  0.76800  0.10800  0.54600  1.0000
  O   O12       1.0  0.24300  0.36400  0.57300  1.0000
  O   O13       1.0  0.55000  0.61400  0.61700  1.0000
  O   O14       1.0  0.61300  0.20000  0.68700  1.0000
  O   O15       1.0  0.13900  0.08020  0.71200  1.0000
  O   O16       1.0  0.92000  0.86100  0.78800  1.0000
  O   O17       1.0  0.80000  0.38700  0.81300  1.0000
  O   O18       1.0  0.38600  0.45000  0.88300  1.0000
  O   O19       1.0  0.63600  0.75700  0.92700  1.0000
  O   O20       1.0  0.89200  0.23200  0.95400  1.0000
  Si  Si1       1.0  0.33200  0.53900  0.10200  1.0000
  Si  Si2       1.0  0.11700  0.88300  0.25000  1.0000
  Si  Si3       1.0  0.46100  0.66800  0.39800  1.0000
  Si  Si4       1.0  0.53900  0.33200  0.60200  1.0000
  Si  Si5       1.0  0.88300  0.11700  0.75000  1.0000
  Si  Si6       1.0  0.66800  0.46100  0.89800  1.0000
