data_image0
_chemical_formula_structural       Bi8O24Si6
_chemical_formula_sum              "Bi8 O24 Si6"
_cell_length_a       8.87613
_cell_length_b       8.87613
_cell_length_c       8.87613
_cell_angle_alpha    109.471
_cell_angle_beta     109.471
_cell_angle_gamma    109.471

_space_group_name_H-M_alt    "P 1"
_space_group_IT_number       1

loop_
  _space_group_symop_operation_xyz
  'x, y, z'

loop_
  _atom_site_type_symbol
  _atom_site_label
  _atom_site_symmetry_multiplicity
  _atom_site_fract_x
  _atom_site_fract_y
  _atom_site_fract_z
  _atom_site_occupancy
  Bi  Bi1       1.0  0.15900  0.00000  0.00000  1.0000
  Bi  Bi2       1.0  0.65900  0.00000  0.00000  1.0000
  Bi  Bi3       1.0  0.50000  0.50000  0.15900  1.0000
  Bi  Bi4       1.0  0.34100  0.84100  0.34100  1.0000
  Bi  Bi5       1.0  0.00000  0.65900  0.50000  1.0000
  Bi  Bi6       1.0  0.00000  0.15900  0.50000  1.0000
  Bi  Bi7       1.0  0.50000  0.50000  0.65900  1.0000
  Bi  Bi8       1.0  0.84100  0.34100  0.84100  1.0000
  O   O1        1.0  0.91900  0.22700  0.06880  1.0000
  O   O2        1.0  0.30800  0.65000  0.08130  1.0000
  O   O3        1.0  0.08130  0.80800  0.15000  1.0000
  O   O4        1.0  0.85000  0.93100  0.15800  1.0000
  O   O5        1.0  0.27300  0.34200  0.19200  1.0000
  O   O6        1.0  0.41900  0.06880  0.22700  1.0000
  O   O7        1.0  0.84200  0.69200  0.27300  1.0000
  O   O8        1.0  0.15000  0.58100  0.30800  1.0000
  O   O9        1.0  0.77300  0.19200  0.34200  1.0000
  O   O10       1.0  0.65800  0.43100  0.35000  1.0000
  O   O11       1.0  0.56900  0.72700  0.41900  1.0000
  O   O12       1.0  0.15800  0.35000  0.43100  1.0000
  O   O13       1.0  0.22700  0.91900  0.56900  1.0000
  O   O14       1.0  0.65000  0.30800  0.58100  1.0000
  O   O15       1.0  0.80800  0.08130  0.65000  1.0000
  O   O16       1.0  0.93100  0.85000  0.65800  1.0000
  O   O17       1.0  0.34200  0.27300  0.69200  1.0000
  O   O18       1.0  0.06880  0.41900  0.72700  1.0000
  O   O19       1.0  0.69200  0.84200  0.77300  1.0000
  O   O20       1.0  0.58100  0.15000  0.80800  1.0000
  O   O21       1.0  0.19200  0.77300  0.84200  1.0000
  O   O22       1.0  0.43100  0.65800  0.85000  1.0000
  O   O23       1.0  0.72700  0.56900  0.91900  1.0000
  O   O24       1.0  0.35000  0.15800  0.93100  1.0000
  Si  Si1       1.0  0.87500  0.75000  0.12500  1.0000
  Si  Si2       1.0  0.12500  0.37500  0.25000  1.0000
  Si  Si3       1.0  0.62500  0.25000  0.37500  1.0000
  Si  Si4       1.0  0.75000  0.87500  0.62500  1.0000
  Si  Si5       1.0  0.37500  0.12500  0.75000  1.0000
  Si  Si6       1.0  0.25000  0.62500  0.87500  1.0000
