data_image0
_chemical_formula_structural       Ba8O22V7
_chemical_formula_sum              "Ba8 O22 V7"
_cell_length_a       5.78422
_cell_length_b       5.78422
_cell_length_c       19.5065
_cell_angle_alpha    98.5264
_cell_angle_beta     81.4736
_cell_angle_gamma    120

_space_group_name_H-M_alt    "P 1"
_space_group_IT_number       1

loop_
  _space_group_symop_operation_xyz
  'x, y, z'

loop_
  _atom_site_type_symbol
  _atom_site_label
  _atom_site_symmetry_multiplicity
  _atom_site_fract_x
  _atom_site_fract_y
  _atom_site_fract_z
  _atom_site_occupancy
  Ba  Ba1       1.0  0.31900  0.68100  0.04430  1.0000
  Ba  Ba2       1.0  0.61200  0.38800  0.16500  1.0000
  Ba  Ba3       1.0  0.89400  0.10600  0.31700  1.0000
  Ba  Ba4       1.0  0.18100  0.81900  0.45800  1.0000
  Ba  Ba5       1.0  0.81900  0.18100  0.54200  1.0000
  Ba  Ba6       1.0  0.10600  0.89400  0.68300  1.0000
  Ba  Ba7       1.0  0.38800  0.61200  0.83500  1.0000
  Ba  Ba8       1.0  0.68100  0.31900  0.95600  1.0000
  O   O1        1.0  0.82400  0.17600  0.06500  1.0000
  O   O2        1.0  0.28700  0.17600  0.06500  1.0000
  O   O3        1.0  0.82400  0.71300  0.06500  1.0000
  O   O4        1.0  0.10300  0.40500  0.20000  1.0000
  O   O5        1.0  0.10300  0.89700  0.20000  1.0000
  O   O6        1.0  0.59500  0.89700  0.20000  1.0000
  O   O7        1.0  0.56400  0.43600  0.30700  1.0000
  O   O8        1.0  0.22600  0.77400  0.32300  1.0000
  O   O9        1.0  0.19800  0.31300  0.42700  1.0000
  O   O10       1.0  0.68700  0.31300  0.42700  1.0000
  O   O11       1.0  0.68700  0.80200  0.42700  1.0000
  O   O12       1.0  0.31300  0.19800  0.57300  1.0000
  O   O13       1.0  0.31300  0.68700  0.57300  1.0000
  O   O14       1.0  0.80200  0.68700  0.57300  1.0000
  O   O15       1.0  0.77400  0.22600  0.67700  1.0000
  O   O16       1.0  0.43600  0.56400  0.69300  1.0000
  O   O17       1.0  0.40500  0.10300  0.80000  1.0000
  O   O18       1.0  0.89700  0.10300  0.80000  1.0000
  O   O19       1.0  0.89700  0.59500  0.80000  1.0000
  O   O20       1.0  0.17600  0.28700  0.93500  1.0000
  O   O21       1.0  0.71300  0.82400  0.93500  1.0000
  O   O22       1.0  0.17600  0.82400  0.93500  1.0000
  V   V1        1.0  0.00000  0.00000  0.00000  1.0000
  V   V2        1.0  0.95500  0.04500  0.13500  1.0000
  V   V3        1.0  0.25500  0.74500  0.23400  1.0000
  V   V4        1.0  0.53500  0.46500  0.39600  1.0000
  V   V5        1.0  0.46500  0.53500  0.60400  1.0000
  V   V6        1.0  0.74500  0.25500  0.76600  1.0000
  V   V7        1.0  0.04500  0.95500  0.86500  1.0000
