data_image0
_chemical_formula_structural       Lu2Zn17
_chemical_formula_sum              "Lu2 Zn17"
_cell_length_a       6.72748
_cell_length_b       6.72748
_cell_length_c       6.72748
_cell_angle_alpha    82.6829
_cell_angle_beta     97.3171
_cell_angle_gamma    97.3171

_space_group_name_H-M_alt    "P 1"
_space_group_IT_number       1

loop_
  _space_group_symop_operation_xyz
  'x, y, z'

loop_
  _atom_site_type_symbol
  _atom_site_label
  _atom_site_symmetry_multiplicity
  _atom_site_fract_x
  _atom_site_fract_y
  _atom_site_fract_z
  _atom_site_occupancy
  Lu  Lu1       1.0  0.66500  0.33500  0.33500  1.0000
  Lu  Lu2       1.0  0.33500  0.66500  0.66500  1.0000
  Zn  Zn1       1.0  0.50000  0.00000  1.00000  1.0000
  Zn  Zn2       1.0  0.70000  0.70000  0.00000  1.0000
  Zn  Zn3       1.0  0.00000  0.50000  0.00000  1.0000
  Zn  Zn4       1.0  0.30000  0.30000  0.00000  1.0000
  Zn  Zn5       1.0  0.89900  0.10100  0.10100  1.0000
  Zn  Zn6       1.0  0.35300  0.64700  0.16200  1.0000
  Zn  Zn7       1.0  0.30000  1.00000  0.30000  1.0000
  Zn  Zn8       1.0  0.00000  0.70000  0.30000  1.0000
  Zn  Zn9       1.0  0.64700  0.83800  0.35300  1.0000
  Zn  Zn10      1.0  0.16200  0.35300  0.35300  1.0000
  Zn  Zn11      1.0  0.00000  0.00000  0.50000  1.0000
  Zn  Zn12      1.0  0.35300  0.16200  0.64700  1.0000
  Zn  Zn13      1.0  0.83800  0.64700  0.64700  1.0000
  Zn  Zn14      1.0  0.70000  1.00000  0.70000  1.0000
  Zn  Zn15      1.0  0.00000  0.30000  0.70000  1.0000
  Zn  Zn16      1.0  0.64700  0.35300  0.83800  1.0000
  Zn  Zn17      1.0  0.10100  0.89900  0.89900  1.0000
