data_image0
_chemical_formula_structural       C12Ni4O18P4
_chemical_formula_sum              "C12 Ni4 O18 P4"
_cell_length_a       8.59262
_cell_length_b       8.59262
_cell_length_c       8.59262
_cell_angle_alpha    90
_cell_angle_beta     90
_cell_angle_gamma    90

_space_group_name_H-M_alt    "P 1"
_space_group_IT_number       1

loop_
  _space_group_symop_operation_xyz
  'x, y, z'

loop_
  _atom_site_type_symbol
  _atom_site_label
  _atom_site_symmetry_multiplicity
  _atom_site_fract_x
  _atom_site_fract_y
  _atom_site_fract_z
  _atom_site_occupancy
  C   C1        1.0  0.45400  0.21500  0.21500  1.0000
  C   C2        1.0  0.21500  0.45400  0.21500  1.0000
  C   C3        1.0  0.78500  0.54600  0.21500  1.0000
  C   C4        1.0  0.54600  0.78500  0.21500  1.0000
  C   C5        1.0  0.21500  0.21500  0.45400  1.0000
  C   C6        1.0  0.78500  0.78500  0.45400  1.0000
  C   C7        1.0  0.78500  0.21500  0.54600  1.0000
  C   C8        1.0  0.21500  0.78500  0.54600  1.0000
  C   C9        1.0  0.54600  0.21500  0.78500  1.0000
  C   C10       1.0  0.78500  0.45400  0.78500  1.0000
  C   C11       1.0  0.21500  0.54600  0.78500  1.0000
  C   C12       1.0  0.45400  0.78500  0.78500  1.0000
  Ni  Ni1       1.0  0.26000  0.26000  0.26000  1.0000
  Ni  Ni2       1.0  0.74000  0.74000  0.26000  1.0000
  Ni  Ni3       1.0  0.74000  0.26000  0.74000  1.0000
  Ni  Ni4       1.0  0.26000  0.74000  0.74000  1.0000
  O   O1        1.0  0.20800  0.00000  0.00000  1.0000
  O   O2        1.0  0.79200  0.00000  0.00000  1.0000
  O   O3        1.0  0.00000  0.20800  0.00000  1.0000
  O   O4        1.0  0.00000  0.79200  0.00000  1.0000
  O   O5        1.0  0.58100  0.18400  0.18400  1.0000
  O   O6        1.0  0.81600  0.41900  0.18400  1.0000
  O   O7        1.0  0.18400  0.58100  0.18400  1.0000
  O   O8        1.0  0.41900  0.81600  0.18400  1.0000
  O   O9        1.0  0.00000  0.00000  0.20800  1.0000
  O   O10       1.0  0.81600  0.18400  0.41900  1.0000
  O   O11       1.0  0.18400  0.81600  0.41900  1.0000
  O   O12       1.0  0.18400  0.18400  0.58100  1.0000
  O   O13       1.0  0.81600  0.81600  0.58100  1.0000
  O   O14       1.0  0.00000  0.00000  0.79200  1.0000
  O   O15       1.0  0.41900  0.18400  0.81600  1.0000
  O   O16       1.0  0.18400  0.41900  0.81600  1.0000
  O   O17       1.0  0.81600  0.58100  0.81600  1.0000
  O   O18       1.0  0.58100  0.81600  0.81600  1.0000
  P   P1        1.0  0.12000  0.12000  0.12000  1.0000
  P   P2        1.0  0.88000  0.88000  0.12000  1.0000
  P   P3        1.0  0.88000  0.12000  0.88000  1.0000
  P   P4        1.0  0.12000  0.88000  0.88000  1.0000
