data_image0
_chemical_formula_structural       Gd8Ge16Sc12
_chemical_formula_sum              "Gd8 Ge16 Sc12"
_cell_length_a       7.26903
_cell_length_b       14.1293
_cell_length_c       7.51124
_cell_angle_alpha    90
_cell_angle_beta     90
_cell_angle_gamma    90

_space_group_name_H-M_alt    "P 1"
_space_group_IT_number       1

loop_
  _space_group_symop_operation_xyz
  'x, y, z'

loop_
  _atom_site_type_symbol
  _atom_site_label
  _atom_site_symmetry_multiplicity
  _atom_site_fract_x
  _atom_site_fract_y
  _atom_site_fract_z
  _atom_site_occupancy
  Gd  Gd1       1.0  0.99900  0.09640  0.17700  1.0000
  Gd  Gd2       1.0  0.99900  0.40400  0.17700  1.0000
  Gd  Gd3       1.0  0.49900  0.09640  0.32300  1.0000
  Gd  Gd4       1.0  0.49900  0.40400  0.32300  1.0000
  Gd  Gd5       1.0  0.50100  0.59600  0.67700  1.0000
  Gd  Gd6       1.0  0.50100  0.90400  0.67700  1.0000
  Gd  Gd7       1.0  0.00139  0.59600  0.82300  1.0000
  Gd  Gd8       1.0  0.00139  0.90400  0.82300  1.0000
  Ge  Ge1       1.0  0.67700  0.54100  0.04090  1.0000
  Ge  Ge2       1.0  0.67700  0.95900  0.04090  1.0000
  Ge  Ge3       1.0  0.03970  0.75000  0.12600  1.0000
  Ge  Ge4       1.0  0.69300  0.25000  0.13700  1.0000
  Ge  Ge5       1.0  0.19300  0.25000  0.36300  1.0000
  Ge  Ge6       1.0  0.54000  0.75000  0.37400  1.0000
  Ge  Ge7       1.0  0.17700  0.54100  0.45900  1.0000
  Ge  Ge8       1.0  0.17700  0.95900  0.45900  1.0000
  Ge  Ge9       1.0  0.82300  0.04140  0.54100  1.0000
  Ge  Ge10      1.0  0.82300  0.45900  0.54100  1.0000
  Ge  Ge11      1.0  0.46000  0.25000  0.62600  1.0000
  Ge  Ge12      1.0  0.80700  0.75000  0.63700  1.0000
  Ge  Ge13      1.0  0.30700  0.75000  0.86300  1.0000
  Ge  Ge14      1.0  0.96000  0.25000  0.87400  1.0000
  Ge  Ge15      1.0  0.32300  0.04140  0.95900  1.0000
  Ge  Ge16      1.0  0.32300  0.45900  0.95900  1.0000
  Sc  Sc1       1.0  0.67600  0.75000  0.00050  1.0000
  Sc  Sc2       1.0  0.34000  0.62500  0.16800  1.0000
  Sc  Sc3       1.0  0.34000  0.87500  0.16800  1.0000
  Sc  Sc4       1.0  0.84000  0.62500  0.33200  1.0000
  Sc  Sc5       1.0  0.84000  0.87500  0.33200  1.0000
  Sc  Sc6       1.0  0.17600  0.75000  0.50000  1.0000
  Sc  Sc7       1.0  0.82400  0.25000  0.50000  1.0000
  Sc  Sc8       1.0  0.16000  0.12500  0.66800  1.0000
  Sc  Sc9       1.0  0.16000  0.37500  0.66800  1.0000
  Sc  Sc10      1.0  0.66000  0.12500  0.83200  1.0000
  Sc  Sc11      1.0  0.66000  0.37500  0.83200  1.0000
  Sc  Sc12      1.0  0.32400  0.25000  0.00000  1.0000
