data_image0
_chemical_formula_structural       Cu30Si8
_chemical_formula_sum              "Cu30 Si8"
_cell_length_a       8.38761
_cell_length_b       8.38761
_cell_length_c       8.38761
_cell_angle_alpha    109.471
_cell_angle_beta     109.471
_cell_angle_gamma    109.471

_space_group_name_H-M_alt    "P 1"
_space_group_IT_number       1

loop_
  _space_group_symop_operation_xyz
  'x, y, z'

loop_
  _atom_site_type_symbol
  _atom_site_label
  _atom_site_symmetry_multiplicity
  _atom_site_fract_x
  _atom_site_fract_y
  _atom_site_fract_z
  _atom_site_occupancy
  Cu  Cu1       1.0  0.42700  0.20200  0.05060  1.0000
  Cu  Cu2       1.0  0.77500  0.62400  0.07320  1.0000
  Cu  Cu3       1.0  0.57300  0.77500  0.12400  1.0000
  Cu  Cu4       1.0  0.25000  0.37500  0.12500  1.0000
  Cu  Cu5       1.0  0.37600  0.94900  0.15100  1.0000
  Cu  Cu6       1.0  0.92700  0.05060  0.20200  1.0000
  Cu  Cu7       1.0  0.79800  0.34900  0.22500  1.0000
  Cu  Cu8       1.0  0.12500  0.87500  0.25000  1.0000
  Cu  Cu9       1.0  0.62400  0.57300  0.27500  1.0000
  Cu  Cu10      1.0  0.34900  0.72500  0.29800  1.0000
  Cu  Cu11      1.0  0.29800  0.22500  0.34900  1.0000
  Cu  Cu12      1.0  0.75000  0.12500  0.37500  1.0000
  Cu  Cu13      1.0  0.15100  0.44900  0.37600  1.0000
  Cu  Cu14      1.0  0.05060  0.70200  0.42700  1.0000
  Cu  Cu15      1.0  0.65100  0.37600  0.44900  1.0000
  Cu  Cu16      1.0  0.70200  0.92700  0.55100  1.0000
  Cu  Cu17      1.0  0.12400  0.27500  0.57300  1.0000
  Cu  Cu18      1.0  0.27500  0.07320  0.62400  1.0000
  Cu  Cu19      1.0  0.87500  0.75000  0.62500  1.0000
  Cu  Cu20      1.0  0.44900  0.87600  0.65100  1.0000
  Cu  Cu21      1.0  0.55100  0.42700  0.70200  1.0000
  Cu  Cu22      1.0  0.84900  0.29800  0.72500  1.0000
  Cu  Cu23      1.0  0.37500  0.62500  0.75000  1.0000
  Cu  Cu24      1.0  0.07320  0.12400  0.77500  1.0000
  Cu  Cu25      1.0  0.22500  0.84900  0.79800  1.0000
  Cu  Cu26      1.0  0.72500  0.79800  0.84900  1.0000
  Cu  Cu27      1.0  0.62500  0.25000  0.87500  1.0000
  Cu  Cu28      1.0  0.94900  0.65100  0.87600  1.0000
  Cu  Cu29      1.0  0.20200  0.55100  0.92700  1.0000
  Cu  Cu30      1.0  0.87600  0.15100  0.94900  1.0000
  Si  Si1       1.0  0.08910  0.00000  0.00000  1.0000
  Si  Si2       1.0  0.58900  0.00000  0.00000  1.0000
  Si  Si3       1.0  0.00000  0.50000  0.08910  1.0000
  Si  Si4       1.0  0.91100  0.91100  0.41100  1.0000
  Si  Si5       1.0  0.50000  0.08910  0.50000  1.0000
  Si  Si6       1.0  0.50000  0.58900  0.50000  1.0000
  Si  Si7       1.0  0.00000  0.50000  0.58900  1.0000
  Si  Si8       1.0  0.41100  0.41100  0.91100  1.0000
