data_image0
_chemical_formula_structural       Cl4F20K4N4W4
_chemical_formula_sum              "Cl4 F20 K4 N4 W4"
_cell_length_a       10.9622
_cell_length_b       7.32933
_cell_length_c       7.37387
_cell_angle_alpha    90
_cell_angle_beta     100.532
_cell_angle_gamma    90

_space_group_name_H-M_alt    "P 1"
_space_group_IT_number       1

loop_
  _space_group_symop_operation_xyz
  'x, y, z'

loop_
  _atom_site_type_symbol
  _atom_site_label
  _atom_site_symmetry_multiplicity
  _atom_site_fract_x
  _atom_site_fract_y
  _atom_site_fract_z
  _atom_site_occupancy
  Cl  Cl1       1.0  0.99300  0.66900  0.20600  1.0000
  Cl  Cl2       1.0  0.00702  0.16900  0.29400  1.0000
  Cl  Cl3       1.0  0.99300  0.83100  0.70600  1.0000
  Cl  Cl4       1.0  0.00702  0.33100  0.79400  1.0000
  F   F1        1.0  0.41100  0.89400  0.07740  1.0000
  F   F2        1.0  0.65200  0.46000  0.11500  1.0000
  F   F3        1.0  0.19800  0.77000  0.11700  1.0000
  F   F4        1.0  0.78600  0.94700  0.11700  1.0000
  F   F5        1.0  0.35900  0.23400  0.15600  1.0000
  F   F6        1.0  0.64100  0.73400  0.34400  1.0000
  F   F7        1.0  0.21400  0.44700  0.38300  1.0000
  F   F8        1.0  0.80200  0.27000  0.38300  1.0000
  F   F9        1.0  0.34800  0.96000  0.38500  1.0000
  F   F10       1.0  0.58900  0.39400  0.42300  1.0000
  F   F11       1.0  0.41100  0.60600  0.57700  1.0000
  F   F12       1.0  0.65200  0.03990  0.61500  1.0000
  F   F13       1.0  0.19800  0.73000  0.61700  1.0000
  F   F14       1.0  0.78600  0.55300  0.61700  1.0000
  F   F15       1.0  0.35900  0.26600  0.65600  1.0000
  F   F16       1.0  0.64100  0.76600  0.84400  1.0000
  F   F17       1.0  0.21400  0.05320  0.88300  1.0000
  F   F18       1.0  0.80200  0.23000  0.88300  1.0000
  F   F19       1.0  0.34800  0.54000  0.88500  1.0000
  F   F20       1.0  0.58900  0.10600  0.92300  1.0000
  K   K1        1.0  0.40500  0.57300  0.23000  1.0000
  K   K2        1.0  0.59500  0.07340  0.27000  1.0000
  K   K3        1.0  0.40500  0.92700  0.73000  1.0000
  K   K4        1.0  0.59500  0.42700  0.77000  1.0000
  N   N1        1.0  0.12600  0.10800  0.21300  1.0000
  N   N2        1.0  0.87400  0.60800  0.28700  1.0000
  N   N3        1.0  0.12600  0.39200  0.71300  1.0000
  N   N4        1.0  0.87400  0.89200  0.78700  1.0000
  W   W1        1.0  0.25800  0.01700  0.14200  1.0000
  W   W2        1.0  0.74200  0.51700  0.35800  1.0000
  W   W3        1.0  0.25800  0.48300  0.64200  1.0000
  W   W4        1.0  0.74200  0.98300  0.85800  1.0000
