data_image0
_chemical_formula_structural       Cr4Cu3O24P6
_chemical_formula_sum              "Cr4 Cu3 O24 P6"
_cell_length_a       7.81675
_cell_length_b       9.28587
_cell_length_c       6.23616
_cell_angle_alpha    107.854
_cell_angle_beta     100.643
_cell_angle_gamma    106.405

_space_group_name_H-M_alt    "P 1"
_space_group_IT_number       1

loop_
  _space_group_symop_operation_xyz
  'x, y, z'

loop_
  _atom_site_type_symbol
  _atom_site_label
  _atom_site_symmetry_multiplicity
  _atom_site_fract_x
  _atom_site_fract_y
  _atom_site_fract_z
  _atom_site_occupancy
  Cr  Cr1       1.0  0.71300  0.52000  0.05070  1.0000
  Cr  Cr2       1.0  0.45900  0.11100  0.38100  1.0000
  Cr  Cr3       1.0  0.54100  0.88900  0.61900  1.0000
  Cr  Cr4       1.0  0.28700  0.48000  0.94900  1.0000
  Cu  Cu1       1.0  0.00000  0.00000  0.00000  1.0000
  Cu  Cu2       1.0  0.82100  0.29700  0.28400  1.0000
  Cu  Cu3       1.0  0.17900  0.70300  0.71600  1.0000
  O   O1        1.0  0.17900  0.65600  0.00778  1.0000
  O   O2        1.0  0.55300  0.65700  0.07640  1.0000
  O   O3        1.0  0.53000  0.15800  0.11600  1.0000
  O   O4        1.0  0.80500  0.92300  0.12500  1.0000
  O   O5        1.0  0.93900  0.70700  0.21500  1.0000
  O   O6        1.0  0.19900  0.94200  0.22600  1.0000
  O   O7        1.0  0.28800  0.46900  0.24900  1.0000
  O   O8        1.0  0.03610  0.23900  0.28000  1.0000
  O   O9        1.0  0.54600  0.92100  0.31700  1.0000
  O   O10       1.0  0.74800  0.49900  0.36300  1.0000
  O   O11       1.0  0.36900  0.28500  0.44800  1.0000
  O   O12       1.0  0.25800  0.76400  0.45700  1.0000
  O   O13       1.0  0.74200  0.23600  0.54300  1.0000
  O   O14       1.0  0.63100  0.71500  0.55200  1.0000
  O   O15       1.0  0.25200  0.50100  0.63700  1.0000
  O   O16       1.0  0.45400  0.07910  0.68300  1.0000
  O   O17       1.0  0.96400  0.76100  0.72000  1.0000
  O   O18       1.0  0.71200  0.53100  0.75100  1.0000
  O   O19       1.0  0.80100  0.05770  0.77400  1.0000
  O   O20       1.0  0.06100  0.29300  0.78500  1.0000
  O   O21       1.0  0.19500  0.07720  0.87500  1.0000
  O   O22       1.0  0.47000  0.84200  0.88400  1.0000
  O   O23       1.0  0.44700  0.34300  0.92400  1.0000
  O   O24       1.0  0.82100  0.34400  0.99200  1.0000
  P   P1        1.0  0.60300  0.83700  0.09590  1.0000
  P   P2        1.0  0.14200  0.76700  0.22800  1.0000
  P   P3        1.0  0.23700  0.37100  0.39700  1.0000
  P   P4        1.0  0.76300  0.62900  0.60300  1.0000
  P   P5        1.0  0.85800  0.23300  0.77200  1.0000
  P   P6        1.0  0.39700  0.16300  0.90400  1.0000
