data_image0
_chemical_formula_structural       As24Ni4Re10
_chemical_formula_sum              "As24 Ni4 Re10"
_cell_length_a       15.7124
_cell_length_b       12.6313
_cell_length_c       3.23456
_cell_angle_alpha    90
_cell_angle_beta     90
_cell_angle_gamma    90

_space_group_name_H-M_alt    "P 1"
_space_group_IT_number       1

loop_
  _space_group_symop_operation_xyz
  'x, y, z'

loop_
  _atom_site_type_symbol
  _atom_site_label
  _atom_site_symmetry_multiplicity
  _atom_site_fract_x
  _atom_site_fract_y
  _atom_site_fract_z
  _atom_site_occupancy
  As  As1       1.0  0.23800  0.06940  0.00000  1.0000
  As  As2       1.0  0.09120  0.15900  0.00000  1.0000
  As  As3       1.0  0.44100  0.20800  0.00000  1.0000
  As  As4       1.0  0.75700  0.22600  0.00000  1.0000
  As  As5       1.0  0.40200  0.40700  0.00000  1.0000
  As  As6       1.0  0.07780  0.46500  0.00000  1.0000
  As  As7       1.0  0.92200  0.53500  0.00000  1.0000
  As  As8       1.0  0.59800  0.59300  0.00000  1.0000
  As  As9       1.0  0.24300  0.77400  0.00000  1.0000
  As  As10      1.0  0.55900  0.79200  0.00000  1.0000
  As  As11      1.0  0.90900  0.84100  0.00000  1.0000
  As  As12      1.0  0.76200  0.93100  0.00000  1.0000
  As  As13      1.0  0.57800  0.03480  0.50000  1.0000
  As  As14      1.0  0.90200  0.09280  0.50000  1.0000
  As  As15      1.0  0.25700  0.27400  0.50000  1.0000
  As  As16      1.0  0.94100  0.29200  0.50000  1.0000
  As  As17      1.0  0.59100  0.34100  0.50000  1.0000
  As  As18      1.0  0.73800  0.43100  0.50000  1.0000
  As  As19      1.0  0.26200  0.56900  0.50000  1.0000
  As  As20      1.0  0.40900  0.65900  0.50000  1.0000
  As  As21      1.0  0.05860  0.70800  0.50000  1.0000
  As  As22      1.0  0.74300  0.72600  0.50000  1.0000
  As  As23      1.0  0.09820  0.90700  0.50000  1.0000
  As  As24      1.0  0.42200  0.96500  0.50000  1.0000
  Ni  Ni1       1.0  0.84700  0.37100  0.00000  1.0000
  Ni  Ni2       1.0  0.15300  0.62900  0.00000  1.0000
  Ni  Ni3       1.0  0.34700  0.12900  0.50000  1.0000
  Ni  Ni4       1.0  0.65300  0.87100  0.50000  1.0000
  Re  Re1       1.0  0.00000  0.00000  0.00000  1.0000
  Re  Re2       1.0  0.60200  0.18400  0.00000  1.0000
  Re  Re3       1.0  0.23800  0.42100  0.00000  1.0000
  Re  Re4       1.0  0.76200  0.57900  0.00000  1.0000
  Re  Re5       1.0  0.39800  0.81600  0.00000  1.0000
  Re  Re6       1.0  0.73800  0.07900  0.50000  1.0000
  Re  Re7       1.0  0.10200  0.31600  0.50000  1.0000
  Re  Re8       1.0  0.50000  0.50000  0.50000  1.0000
  Re  Re9       1.0  0.89800  0.68400  0.50000  1.0000
  Re  Re10      1.0  0.26200  0.92100  0.50000  1.0000
