data_image0
_chemical_formula_structural       O24P6V4Zn3
_chemical_formula_sum              "O24 P6 V4 Zn3"
_cell_length_a       6.36645
_cell_length_b       7.87932
_cell_length_c       9.35085
_cell_angle_alpha    105.402
_cell_angle_beta     109.009
_cell_angle_gamma    101.204

_space_group_name_H-M_alt    "P 1"
_space_group_IT_number       1

loop_
  _space_group_symop_operation_xyz
  'x, y, z'

loop_
  _atom_site_type_symbol
  _atom_site_label
  _atom_site_symmetry_multiplicity
  _atom_site_fract_x
  _atom_site_fract_y
  _atom_site_fract_z
  _atom_site_occupancy
  O   O1        1.0  0.76900  0.80200  0.05550  1.0000
  O   O2        1.0  0.69000  0.46000  0.08040  1.0000
  O   O3        1.0  0.88900  0.21200  0.08180  1.0000
  O   O4        1.0  0.12200  0.54200  0.16200  1.0000
  O   O5        1.0  0.54300  0.73900  0.23000  1.0000
  O   O6        1.0  0.27400  0.03810  0.23300  1.0000
  O   O7        1.0  0.77600  0.05960  0.28400  1.0000
  O   O8        1.0  0.45800  0.37200  0.29300  1.0000
  O   O9        1.0  0.98600  0.82800  0.34300  1.0000
  O   O10       1.0  0.93600  0.45700  0.34500  1.0000
  O   O11       1.0  0.24600  0.27700  0.46300  1.0000
  O   O12       1.0  0.63100  0.23200  0.49600  1.0000
  O   O13       1.0  0.36900  0.76800  0.50400  1.0000
  O   O14       1.0  0.75400  0.72300  0.53700  1.0000
  O   O15       1.0  0.06360  0.54300  0.65500  1.0000
  O   O16       1.0  0.01410  0.17200  0.65700  1.0000
  O   O17       1.0  0.54200  0.62800  0.70700  1.0000
  O   O18       1.0  0.22400  0.94000  0.71600  1.0000
  O   O19       1.0  0.72600  0.96200  0.76700  1.0000
  O   O20       1.0  0.45700  0.26100  0.77000  1.0000
  O   O21       1.0  0.87800  0.45800  0.83800  1.0000
  O   O22       1.0  0.11100  0.78800  0.91800  1.0000
  O   O23       1.0  0.31000  0.54000  0.92000  1.0000
  O   O24       1.0  0.23100  0.19800  0.94500  1.0000
  P   P1        1.0  0.91100  0.40800  0.16500  1.0000
  P   P2        1.0  0.77000  0.86000  0.22900  1.0000
  P   P3        1.0  0.39600  0.23100  0.36900  1.0000
  P   P4        1.0  0.60400  0.76900  0.63100  1.0000
  P   P5        1.0  0.23000  0.14000  0.77100  1.0000
  P   P6        1.0  0.08940  0.59200  0.83500  1.0000
  V   V1        1.0  0.38700  0.46100  0.11600  1.0000
  V   V2        1.0  0.95200  0.28400  0.47800  1.0000
  V   V3        1.0  0.04790  0.71600  0.52200  1.0000
  V   V4        1.0  0.61300  0.53900  0.88400  1.0000
  Zn  Zn1       1.0  0.00000  0.00000  0.00000  1.0000
  Zn  Zn2       1.0  0.28300  0.81700  0.29000  1.0000
  Zn  Zn3       1.0  0.71700  0.18300  0.71000  1.0000
