data_image0
_chemical_formula_structural       Cl4O22Te12
_chemical_formula_sum              "Cl4 O22 Te12"
_cell_length_a       6.81574
_cell_length_b       6.72404
_cell_length_c       15.1719
_cell_angle_alpha    90
_cell_angle_beta     90
_cell_angle_gamma    120.371

_space_group_name_H-M_alt    "P 1"
_space_group_IT_number       1

loop_
  _space_group_symop_operation_xyz
  'x, y, z'

loop_
  _atom_site_type_symbol
  _atom_site_label
  _atom_site_symmetry_multiplicity
  _atom_site_fract_x
  _atom_site_fract_y
  _atom_site_fract_z
  _atom_site_occupancy
  Cl  Cl1       1.0  0.52400  0.16600  0.25000  1.0000
  Cl  Cl2       1.0  0.85900  0.83600  0.25000  1.0000
  Cl  Cl3       1.0  0.14100  0.16400  0.75000  1.0000
  Cl  Cl4       1.0  0.47600  0.83400  0.75000  1.0000
  O   O1        1.0  0.51600  0.19800  0.03790  1.0000
  O   O2        1.0  0.81800  0.80300  0.03800  1.0000
  O   O3        1.0  0.94500  0.25400  0.09270  1.0000
  O   O4        1.0  0.19300  0.75000  0.09430  1.0000
  O   O5        1.0  0.41700  0.50100  0.12000  1.0000
  O   O6        1.0  0.05830  0.49800  0.25000  1.0000
  O   O7        1.0  0.41700  0.50100  0.38000  1.0000
  O   O8        1.0  0.19300  0.75000  0.40600  1.0000
  O   O9        1.0  0.94500  0.25400  0.40700  1.0000
  O   O10       1.0  0.81800  0.80300  0.46200  1.0000
  O   O11       1.0  0.51600  0.19800  0.46200  1.0000
  O   O12       1.0  0.48400  0.80200  0.53800  1.0000
  O   O13       1.0  0.18200  0.19700  0.53800  1.0000
  O   O14       1.0  0.05450  0.74600  0.59300  1.0000
  O   O15       1.0  0.80700  0.25000  0.59400  1.0000
  O   O16       1.0  0.58300  0.49900  0.62000  1.0000
  O   O17       1.0  0.94200  0.50200  0.75000  1.0000
  O   O18       1.0  0.58300  0.49900  0.88000  1.0000
  O   O19       1.0  0.80700  0.25000  0.90600  1.0000
  O   O20       1.0  0.05450  0.74600  0.90700  1.0000
  O   O21       1.0  0.18200  0.19700  0.96200  1.0000
  O   O22       1.0  0.48400  0.80200  0.96200  1.0000
  Te  Te1       1.0  0.20400  0.18100  0.08920  1.0000
  Te  Te2       1.0  0.52500  0.82200  0.08920  1.0000
  Te  Te3       1.0  0.91000  0.50100  0.13900  1.0000
  Te  Te4       1.0  0.91000  0.50100  0.36100  1.0000
  Te  Te5       1.0  0.52500  0.82200  0.41100  1.0000
  Te  Te6       1.0  0.20400  0.18100  0.41100  1.0000
  Te  Te7       1.0  0.79600  0.81900  0.58900  1.0000
  Te  Te8       1.0  0.47500  0.17800  0.58900  1.0000
  Te  Te9       1.0  0.08970  0.49900  0.63900  1.0000
  Te  Te10      1.0  0.08970  0.49900  0.86100  1.0000
  Te  Te11      1.0  0.47500  0.17800  0.91100  1.0000
  Te  Te12      1.0  0.79600  0.81900  0.91100  1.0000
