data_image0
_chemical_formula_structural       Y2Zn17
_chemical_formula_sum              "Y2 Zn17"
_cell_length_a       6.76035
_cell_length_b       6.76035
_cell_length_c       6.76035
_cell_angle_alpha    82.7957
_cell_angle_beta     97.2043
_cell_angle_gamma    97.2043

_space_group_name_H-M_alt    "P 1"
_space_group_IT_number       1

loop_
  _space_group_symop_operation_xyz
  'x, y, z'

loop_
  _atom_site_type_symbol
  _atom_site_label
  _atom_site_symmetry_multiplicity
  _atom_site_fract_x
  _atom_site_fract_y
  _atom_site_fract_z
  _atom_site_occupancy
  Y   Y1        1.0  0.66500  0.33500  0.33500  1.0000
  Y   Y2        1.0  0.33500  0.66500  0.66500  1.0000
  Zn  Zn1       1.0  0.00000  0.50000  0.00000  1.0000
  Zn  Zn2       1.0  0.70300  0.70300  0.00000  1.0000
  Zn  Zn3       1.0  0.50000  0.00000  0.00000  1.0000
  Zn  Zn4       1.0  0.29700  0.29700  0.00000  1.0000
  Zn  Zn5       1.0  0.90000  0.10000  0.10000  1.0000
  Zn  Zn6       1.0  0.35200  0.64800  0.16200  1.0000
  Zn  Zn7       1.0  0.29700  0.00000  0.29700  1.0000
  Zn  Zn8       1.0  0.00000  0.70300  0.29700  1.0000
  Zn  Zn9       1.0  0.16200  0.35200  0.35200  1.0000
  Zn  Zn10      1.0  0.64800  0.83800  0.35200  1.0000
  Zn  Zn11      1.0  0.00000  0.00000  0.50000  1.0000
  Zn  Zn12      1.0  0.35200  0.16200  0.64800  1.0000
  Zn  Zn13      1.0  0.83800  0.64800  0.64800  1.0000
  Zn  Zn14      1.0  0.70300  1.00000  0.70300  1.0000
  Zn  Zn15      1.0  0.00000  0.29700  0.70300  1.0000
  Zn  Zn16      1.0  0.64800  0.35200  0.83800  1.0000
  Zn  Zn17      1.0  0.10000  0.90000  0.90000  1.0000
