data_image0
_chemical_formula_structural       Gd20Ge8Si8
_chemical_formula_sum              "Gd20 Ge8 Si8"
_cell_length_a       7.61153
_cell_length_b       14.8206
_cell_length_c       7.79771
_cell_angle_alpha    90
_cell_angle_beta     90
_cell_angle_gamma    93.216

_space_group_name_H-M_alt    "P 1"
_space_group_IT_number       1

loop_
  _space_group_symop_operation_xyz
  'x, y, z'

loop_
  _atom_site_type_symbol
  _atom_site_label
  _atom_site_symmetry_multiplicity
  _atom_site_fract_x
  _atom_site_fract_y
  _atom_site_fract_z
  _atom_site_occupancy
  Gd  Gd1       1.0  0.32200  0.74500  0.00596  1.0000
  Gd  Gd2       1.0  0.35700  0.38000  0.16400  1.0000
  Gd  Gd3       1.0  0.33200  0.12400  0.17700  1.0000
  Gd  Gd4       1.0  0.99400  0.60200  0.18100  1.0000
  Gd  Gd5       1.0  0.01880  0.89700  0.18500  1.0000
  Gd  Gd6       1.0  0.51900  0.89700  0.31500  1.0000
  Gd  Gd7       1.0  0.49400  0.60200  0.31900  1.0000
  Gd  Gd8       1.0  0.83200  0.12400  0.32300  1.0000
  Gd  Gd9       1.0  0.85700  0.38000  0.33600  1.0000
  Gd  Gd10      1.0  0.82200  0.74500  0.49400  1.0000
  Gd  Gd11      1.0  0.17800  0.25500  0.50600  1.0000
  Gd  Gd12      1.0  0.14300  0.62000  0.66400  1.0000
  Gd  Gd13      1.0  0.16800  0.87600  0.67700  1.0000
  Gd  Gd14      1.0  0.50600  0.39800  0.68100  1.0000
  Gd  Gd15      1.0  0.48100  0.10300  0.68500  1.0000
  Gd  Gd16      1.0  0.98100  0.10300  0.81500  1.0000
  Gd  Gd17      1.0  0.00555  0.39800  0.81900  1.0000
  Gd  Gd18      1.0  0.66800  0.87600  0.82300  1.0000
  Gd  Gd19      1.0  0.64300  0.62000  0.83600  1.0000
  Gd  Gd20      1.0  0.67800  0.25500  0.99400  1.0000
  Ge  Ge1       1.0  0.65800  0.04140  0.03060  1.0000
  Ge  Ge2       1.0  0.70800  0.45800  0.03570  1.0000
  Ge  Ge3       1.0  0.20800  0.45800  0.46400  1.0000
  Ge  Ge4       1.0  0.15800  0.04140  0.46900  1.0000
  Ge  Ge5       1.0  0.84200  0.95900  0.53100  1.0000
  Ge  Ge6       1.0  0.79200  0.54200  0.53600  1.0000
  Ge  Ge7       1.0  0.29200  0.54200  0.96400  1.0000
  Ge  Ge8       1.0  0.34200  0.95900  0.96900  1.0000
  Si  Si1       1.0  0.05000  0.24800  0.10600  1.0000
  Si  Si2       1.0  0.71200  0.75200  0.12800  1.0000
  Si  Si3       1.0  0.21200  0.75200  0.37200  1.0000
  Si  Si4       1.0  0.55000  0.24800  0.39400  1.0000
  Si  Si5       1.0  0.45000  0.75200  0.60600  1.0000
  Si  Si6       1.0  0.78800  0.24800  0.62800  1.0000
  Si  Si7       1.0  0.28800  0.24800  0.87200  1.0000
  Si  Si8       1.0  0.95000  0.75200  0.89400  1.0000
