data_image0
_chemical_formula_structural       Ge6La8S24
_chemical_formula_sum              "Ge6 La8 S24"
_cell_length_a       8.13653
_cell_length_b       11.6347
_cell_length_c       11.6347
_cell_angle_alpha    114.739
_cell_angle_beta     103.48
_cell_angle_gamma    103.48

_space_group_name_H-M_alt    "P 1"
_space_group_IT_number       1

loop_
  _space_group_symop_operation_xyz
  'x, y, z'

loop_
  _atom_site_type_symbol
  _atom_site_label
  _atom_site_symmetry_multiplicity
  _atom_site_fract_x
  _atom_site_fract_y
  _atom_site_fract_z
  _atom_site_occupancy
  Ge  Ge1       1.0  0.53500  0.38800  0.17500  1.0000
  Ge  Ge2       1.0  0.36000  0.82500  0.21300  1.0000
  Ge  Ge3       1.0  0.03480  0.17500  0.38800  1.0000
  Ge  Ge4       1.0  0.14700  0.78700  0.61200  1.0000
  Ge  Ge5       1.0  0.64700  0.61200  0.78700  1.0000
  Ge  Ge6       1.0  0.86000  0.21300  0.82500  1.0000
  La  La1       1.0  0.00040  0.00000  0.00000  1.0000
  La  La2       1.0  0.50000  0.00000  0.00000  1.0000
  La  La3       1.0  0.79300  0.76600  0.22400  1.0000
  La  La4       1.0  0.02750  0.45900  0.23400  1.0000
  La  La5       1.0  0.52700  0.23400  0.45900  1.0000
  La  La6       1.0  0.56900  0.77600  0.54100  1.0000
  La  La7       1.0  0.29300  0.22400  0.76600  1.0000
  La  La8       1.0  0.06890  0.54100  0.77600  1.0000
  S   S1        1.0  0.31300  0.18700  0.00226  1.0000
  S   S2        1.0  0.41700  0.71300  0.02810  1.0000
  S   S3        1.0  0.68600  0.46800  0.07070  1.0000
  S   S4        1.0  0.31100  0.99800  0.18500  1.0000
  S   S5        1.0  0.81300  0.00226  0.18700  1.0000
  S   S6        1.0  0.42000  0.54400  0.26800  1.0000
  S   S7        1.0  0.15200  0.73200  0.27700  1.0000
  S   S8        1.0  0.70500  0.31600  0.28700  1.0000
  S   S9        1.0  0.20500  0.28700  0.31600  1.0000
  S   S10       1.0  0.61500  0.92900  0.39700  1.0000
  S   S11       1.0  0.87500  0.72300  0.45600  1.0000
  S   S12       1.0  0.18600  0.07070  0.46800  1.0000
  S   S13       1.0  0.21800  0.60300  0.53200  1.0000
  S   S14       1.0  0.92000  0.26800  0.54400  1.0000
  S   S15       1.0  0.71800  0.53200  0.60300  1.0000
  S   S16       1.0  0.38900  0.97200  0.68400  1.0000
  S   S17       1.0  0.91700  0.02810  0.71300  1.0000
  S   S18       1.0  0.37500  0.45600  0.72300  1.0000
  S   S19       1.0  0.65200  0.27700  0.73200  1.0000
  S   S20       1.0  0.12600  0.81500  0.81300  1.0000
  S   S21       1.0  0.62600  0.81300  0.81500  1.0000
  S   S22       1.0  0.11500  0.39700  0.92900  1.0000
  S   S23       1.0  0.88900  0.68400  0.97200  1.0000
  S   S24       1.0  0.81100  0.18500  0.99800  1.0000
