data_image0
_chemical_formula_structural       As6Fe7O24
_chemical_formula_sum              "As6 Fe7 O24"
_cell_length_a       6.60236
_cell_length_b       8.08578
_cell_length_c       9.65198
_cell_angle_alpha    104.817
_cell_angle_beta     108.114
_cell_angle_gamma    102.006

_space_group_name_H-M_alt    "P 1"
_space_group_IT_number       1

loop_
  _space_group_symop_operation_xyz
  'x, y, z'

loop_
  _atom_site_type_symbol
  _atom_site_label
  _atom_site_symmetry_multiplicity
  _atom_site_fract_x
  _atom_site_fract_y
  _atom_site_fract_z
  _atom_site_occupancy
  As  As1       1.0  0.60400  0.26600  0.12600  1.0000
  As  As2       1.0  0.22900  0.64700  0.27300  1.0000
  As  As3       1.0  0.10200  0.10100  0.33700  1.0000
  As  As4       1.0  0.89800  0.89900  0.66300  1.0000
  As  As5       1.0  0.77100  0.35300  0.72700  1.0000
  As  As6       1.0  0.39600  0.73400  0.87400  1.0000
  Fe  Fe1       1.0  0.04610  0.21800  0.02190  1.0000
  Fe  Fe2       1.0  0.72200  0.69300  0.21500  1.0000
  Fe  Fe3       1.0  0.61900  0.04430  0.38700  1.0000
  Fe  Fe4       1.0  0.00000  0.50000  0.50000  1.0000
  Fe  Fe5       1.0  0.38100  0.95600  0.61300  1.0000
  Fe  Fe6       1.0  0.27800  0.30700  0.78500  1.0000
  Fe  Fe7       1.0  0.95400  0.78200  0.97800  1.0000
  O   O1        1.0  0.64600  0.73900  0.00501  1.0000
  O   O2        1.0  0.75700  0.21600  0.01970  1.0000
  O   O3        1.0  0.06650  0.04790  0.14400  1.0000
  O   O4        1.0  0.00378  0.68800  0.15400  1.0000
  O   O5        1.0  0.21700  0.42900  0.20500  1.0000
  O   O6        1.0  0.54500  0.11400  0.21200  1.0000
  O   O7        1.0  0.74400  0.47400  0.27000  1.0000
  O   O8        1.0  0.47600  0.77200  0.27700  1.0000
  O   O9        1.0  0.87100  0.96500  0.34700  1.0000
  O   O10       1.0  0.32400  0.02710  0.41600  1.0000
  O   O11       1.0  0.15000  0.31600  0.43600  1.0000
  O   O12       1.0  0.22600  0.70000  0.45800  1.0000
  O   O13       1.0  0.77400  0.30000  0.54200  1.0000
  O   O14       1.0  0.85000  0.68400  0.56400  1.0000
  O   O15       1.0  0.67600  0.97300  0.58400  1.0000
  O   O16       1.0  0.12900  0.03510  0.65300  1.0000
  O   O17       1.0  0.52400  0.22800  0.72300  1.0000
  O   O18       1.0  0.25600  0.52600  0.73000  1.0000
  O   O19       1.0  0.45500  0.88600  0.78800  1.0000
  O   O20       1.0  0.78300  0.57100  0.79500  1.0000
  O   O21       1.0  0.99600  0.31200  0.84600  1.0000
  O   O22       1.0  0.93300  0.95200  0.85600  1.0000
  O   O23       1.0  0.24300  0.78400  0.98000  1.0000
  O   O24       1.0  0.35400  0.26100  0.99500  1.0000
