data_image0
_chemical_formula_structural       H4Na12O18P4
_chemical_formula_sum              "H4 Na12 O18 P4"
_cell_length_a       5.38137
_cell_length_b       5.45643
_cell_length_c       16.6188
_cell_angle_alpha    97.5384
_cell_angle_beta     99.3176
_cell_angle_gamma    60.454

_space_group_name_H-M_alt    "P 1"
_space_group_IT_number       1

loop_
  _space_group_symop_operation_xyz
  'x, y, z'

loop_
  _atom_site_type_symbol
  _atom_site_label
  _atom_site_symmetry_multiplicity
  _atom_site_fract_x
  _atom_site_fract_y
  _atom_site_fract_z
  _atom_site_occupancy
  H   H1        1.0  0.76200  0.39800  0.22700  1.0000
  H   H2        1.0  0.93300  0.10200  0.27300  1.0000
  H   H3        1.0  0.06710  0.89800  0.72700  1.0000
  H   H4        1.0  0.23800  0.60200  0.77300  1.0000
  Na  Na1       1.0  0.29000  0.41400  0.04790  1.0000
  Na  Na2       1.0  0.90500  0.09750  0.09940  1.0000
  Na  Na3       1.0  0.17900  0.51400  0.21600  1.0000
  Na  Na4       1.0  0.47800  0.98600  0.28400  1.0000
  Na  Na5       1.0  0.90300  0.40200  0.40100  1.0000
  Na  Na6       1.0  0.65600  0.08580  0.45200  1.0000
  Na  Na7       1.0  0.34400  0.91400  0.54800  1.0000
  Na  Na8       1.0  0.09660  0.59800  0.59900  1.0000
  Na  Na9       1.0  0.52200  0.01400  0.71600  1.0000
  Na  Na10      1.0  0.82100  0.48600  0.78400  1.0000
  Na  Na11      1.0  0.09480  0.90200  0.90100  1.0000
  Na  Na12      1.0  0.71000  0.58600  0.95200  1.0000
  O   O1        1.0  0.33100  0.83500  0.03470  1.0000
  O   O2        1.0  0.86000  0.60400  0.09300  1.0000
  O   O3        1.0  0.50800  0.08870  0.15000  1.0000
  O   O4        1.0  0.48000  0.65500  0.17600  1.0000
  O   O5        1.0  0.95800  0.25000  0.25000  1.0000
  O   O6        1.0  0.95800  0.84500  0.32400  1.0000
  O   O7        1.0  0.44700  0.41100  0.35000  1.0000
  O   O8        1.0  0.37100  0.89600  0.40700  1.0000
  O   O9        1.0  0.13100  0.66500  0.46500  1.0000
  O   O10       1.0  0.86900  0.33500  0.53500  1.0000
  O   O11       1.0  0.62900  0.10400  0.59300  1.0000
  O   O12       1.0  0.55300  0.58900  0.65000  1.0000
  O   O13       1.0  0.04160  0.15500  0.67600  1.0000
  O   O14       1.0  0.04230  0.75000  0.75000  1.0000
  O   O15       1.0  0.52000  0.34500  0.82400  1.0000
  O   O16       1.0  0.49200  0.91100  0.85000  1.0000
  O   O17       1.0  0.14000  0.39600  0.90700  1.0000
  O   O18       1.0  0.66900  0.16500  0.96500  1.0000
  P   P1        1.0  0.54600  0.79800  0.11300  1.0000
  P   P2        1.0  0.23000  0.70200  0.38700  1.0000
  P   P3        1.0  0.77000  0.29800  0.61300  1.0000
  P   P4        1.0  0.45400  0.20200  0.88700  1.0000
