data_image0
_chemical_formula_structural       Ho4Ni34
_chemical_formula_sum              "Ho4 Ni34"
_cell_length_a       8.25133
_cell_length_b       8.25117
_cell_length_c       7.98324
_cell_angle_alpha    90
_cell_angle_beta     90
_cell_angle_gamma    120.001

_space_group_name_H-M_alt    "P 1"
_space_group_IT_number       1

loop_
  _space_group_symop_operation_xyz
  'x, y, z'

loop_
  _atom_site_type_symbol
  _atom_site_label
  _atom_site_symmetry_multiplicity
  _atom_site_fract_x
  _atom_site_fract_y
  _atom_site_fract_z
  _atom_site_occupancy
  Ho  Ho1       1.0  0.00000  0.00000  0.25000  1.0000
  Ho  Ho2       1.0  0.66700  0.33300  0.25000  1.0000
  Ho  Ho3       1.0  0.00000  0.00000  0.75000  1.0000
  Ho  Ho4       1.0  0.33300  0.66700  0.75000  1.0000
  Ni  Ni1       1.0  0.50000  0.00000  0.00000  1.0000
  Ni  Ni2       1.0  0.00000  0.50000  0.00000  1.0000
  Ni  Ni3       1.0  0.50000  0.50000  0.00000  1.0000
  Ni  Ni4       1.0  0.33100  0.16500  0.02210  1.0000
  Ni  Ni5       1.0  0.83500  0.16500  0.02210  1.0000
  Ni  Ni6       1.0  0.83500  0.66900  0.02210  1.0000
  Ni  Ni7       1.0  0.33300  0.66700  0.10100  1.0000
  Ni  Ni8       1.0  0.04300  0.37000  0.25000  1.0000
  Ni  Ni9       1.0  0.32700  0.37000  0.25000  1.0000
  Ni  Ni10      1.0  0.04300  0.67300  0.25000  1.0000
  Ni  Ni11      1.0  0.63000  0.67300  0.25000  1.0000
  Ni  Ni12      1.0  0.32700  0.95700  0.25000  1.0000
  Ni  Ni13      1.0  0.63000  0.95700  0.25000  1.0000
  Ni  Ni14      1.0  0.33300  0.66700  0.39900  1.0000
  Ni  Ni15      1.0  0.83500  0.66900  0.47800  1.0000
  Ni  Ni16      1.0  0.33100  0.16500  0.47800  1.0000
  Ni  Ni17      1.0  0.83500  0.16500  0.47800  1.0000
  Ni  Ni18      1.0  0.50000  0.00000  0.50000  1.0000
  Ni  Ni19      1.0  0.00000  0.50000  0.50000  1.0000
  Ni  Ni20      1.0  0.50000  0.50000  0.50000  1.0000
  Ni  Ni21      1.0  0.16500  0.83500  0.52200  1.0000
  Ni  Ni22      1.0  0.66900  0.83500  0.52200  1.0000
  Ni  Ni23      1.0  0.16500  0.33100  0.52200  1.0000
  Ni  Ni24      1.0  0.66700  0.33300  0.60100  1.0000
  Ni  Ni25      1.0  0.37000  0.04300  0.75000  1.0000
  Ni  Ni26      1.0  0.67300  0.04300  0.75000  1.0000
  Ni  Ni27      1.0  0.37000  0.32700  0.75000  1.0000
  Ni  Ni28      1.0  0.95700  0.32700  0.75000  1.0000
  Ni  Ni29      1.0  0.67300  0.63000  0.75000  1.0000
  Ni  Ni30      1.0  0.95700  0.63000  0.75000  1.0000
  Ni  Ni31      1.0  0.66700  0.33300  0.89900  1.0000
  Ni  Ni32      1.0  0.16500  0.33100  0.97800  1.0000
  Ni  Ni33      1.0  0.16500  0.83500  0.97800  1.0000
  Ni  Ni34      1.0  0.66900  0.83500  0.97800  1.0000
