data_image0
_chemical_formula_structural       Na4O24P8Sr2
_chemical_formula_sum              "Na4 O24 P8 Sr2"
_cell_length_a       9.78908
_cell_length_b       9.78908
_cell_length_c       4.93855
_cell_angle_alpha    90
_cell_angle_beta     90
_cell_angle_gamma    90

_space_group_name_H-M_alt    "P 1"
_space_group_IT_number       1

loop_
  _space_group_symop_operation_xyz
  'x, y, z'

loop_
  _atom_site_type_symbol
  _atom_site_label
  _atom_site_symmetry_multiplicity
  _atom_site_fract_x
  _atom_site_fract_y
  _atom_site_fract_z
  _atom_site_occupancy
  Na  Na1       1.0  0.00000  0.00000  0.50000  1.0000
  Na  Na2       1.0  0.50000  0.00000  0.50000  1.0000
  Na  Na3       1.0  0.00000  0.50000  0.50000  1.0000
  Na  Na4       1.0  0.50000  0.50000  0.50000  1.0000
  O   O1        1.0  0.86000  0.14000  0.13900  1.0000
  O   O2        1.0  0.64000  0.36000  0.13900  1.0000
  O   O3        1.0  0.14000  0.64000  0.13900  1.0000
  O   O4        1.0  0.36000  0.86000  0.13900  1.0000
  O   O5        1.0  0.18500  0.03830  0.23000  1.0000
  O   O6        1.0  0.46200  0.18500  0.23000  1.0000
  O   O7        1.0  0.03830  0.31500  0.23000  1.0000
  O   O8        1.0  0.31500  0.46200  0.23000  1.0000
  O   O9        1.0  0.81500  0.53800  0.23000  1.0000
  O   O10       1.0  0.53800  0.68500  0.23000  1.0000
  O   O11       1.0  0.96200  0.81500  0.23000  1.0000
  O   O12       1.0  0.68500  0.96200  0.23000  1.0000
  O   O13       1.0  0.31500  0.03830  0.77000  1.0000
  O   O14       1.0  0.03830  0.18500  0.77000  1.0000
  O   O15       1.0  0.46200  0.31500  0.77000  1.0000
  O   O16       1.0  0.18500  0.46200  0.77000  1.0000
  O   O17       1.0  0.68500  0.53800  0.77000  1.0000
  O   O18       1.0  0.96200  0.68500  0.77000  1.0000
  O   O19       1.0  0.53800  0.81500  0.77000  1.0000
  O   O20       1.0  0.81500  0.96200  0.77000  1.0000
  O   O21       1.0  0.64000  0.14000  0.86100  1.0000
  O   O22       1.0  0.86000  0.36000  0.86100  1.0000
  O   O23       1.0  0.36000  0.64000  0.86100  1.0000
  O   O24       1.0  0.14000  0.86000  0.86100  1.0000
  P   P1        1.0  0.75000  0.03650  0.00000  1.0000
  P   P2        1.0  0.53600  0.25000  0.00000  1.0000
  P   P3        1.0  0.96400  0.25000  0.00000  1.0000
  P   P4        1.0  0.75000  0.46400  0.00000  1.0000
  P   P5        1.0  0.25000  0.53600  0.00000  1.0000
  P   P6        1.0  0.03650  0.75000  0.00000  1.0000
  P   P7        1.0  0.46400  0.75000  0.00000  1.0000
  P   P8        1.0  0.25000  0.96400  0.00000  1.0000
  Sr  Sr1       1.0  0.25000  0.25000  0.50000  1.0000
  Sr  Sr2       1.0  0.75000  0.75000  0.50000  1.0000
