data_image0
_chemical_formula_structural       Cs4Nb2O23Si8
_chemical_formula_sum              "Cs4 Nb2 O23 Si8"
_cell_length_a       6.98986
_cell_length_b       7.7873
_cell_length_c       11.0841
_cell_angle_alpha    77.1752
_cell_angle_beta     89.7337
_cell_angle_gamma    72.1041

_space_group_name_H-M_alt    "P 1"
_space_group_IT_number       1

loop_
  _space_group_symop_operation_xyz
  'x, y, z'

loop_
  _atom_site_type_symbol
  _atom_site_label
  _atom_site_symmetry_multiplicity
  _atom_site_fract_x
  _atom_site_fract_y
  _atom_site_fract_z
  _atom_site_occupancy
  Cs  Cs1       1.0  0.21200  0.21000  0.01110  1.0000
  Cs  Cs2       1.0  0.17500  0.28300  0.36200  1.0000
  Cs  Cs3       1.0  0.82500  0.71700  0.63800  1.0000
  Cs  Cs4       1.0  0.78800  0.79000  0.98900  1.0000
  Nb  Nb1       1.0  0.71000  0.25900  0.18100  1.0000
  Nb  Nb2       1.0  0.29000  0.74100  0.81900  1.0000
  O   O1        1.0  0.71500  0.20700  0.00762  1.0000
  O   O2        1.0  0.43600  0.44900  0.13900  1.0000
  O   O3        1.0  0.86400  0.40700  0.14700  1.0000
  O   O4        1.0  0.12400  0.68500  0.20400  1.0000
  O   O5        1.0  0.47700  0.74500  0.20800  1.0000
  O   O6        1.0  0.52900  0.06710  0.21700  1.0000
  O   O7        1.0  0.95800  0.02520  0.24100  1.0000
  O   O8        1.0  0.80100  0.74300  0.32900  1.0000
  O   O9        1.0  0.68100  0.26600  0.36100  1.0000
  O   O10       1.0  0.44600  0.85700  0.42100  1.0000
  O   O11       1.0  0.13000  0.73200  0.43400  1.0000
  O   O12       1.0  0.50000  0.50000  0.50000  1.0000
  O   O13       1.0  0.87000  0.26800  0.56600  1.0000
  O   O14       1.0  0.55400  0.14300  0.57900  1.0000
  O   O15       1.0  0.31900  0.73400  0.63900  1.0000
  O   O16       1.0  0.19900  0.25700  0.67100  1.0000
  O   O17       1.0  0.04240  0.97500  0.75900  1.0000
  O   O18       1.0  0.47100  0.93300  0.78300  1.0000
  O   O19       1.0  0.52300  0.25500  0.79200  1.0000
  O   O20       1.0  0.87600  0.31500  0.79600  1.0000
  O   O21       1.0  0.13600  0.59300  0.85300  1.0000
  O   O22       1.0  0.56400  0.55100  0.86100  1.0000
  O   O23       1.0  0.28500  0.79300  0.99200  1.0000
  Si  Si1       1.0  0.33400  0.66700  0.13200  1.0000
  Si  Si2       1.0  0.56100  0.86000  0.29000  1.0000
  Si  Si3       1.0  0.00179  0.80800  0.29900  1.0000
  Si  Si4       1.0  0.65100  0.29500  0.49800  1.0000
  Si  Si5       1.0  0.34900  0.70500  0.50200  1.0000
  Si  Si6       1.0  0.99800  0.19200  0.70100  1.0000
  Si  Si7       1.0  0.43900  0.14000  0.71000  1.0000
  Si  Si8       1.0  0.66600  0.33300  0.86800  1.0000
