data_image0
_chemical_formula_structural       Ga4Ho20Sb12
_chemical_formula_sum              "Ga4 Ho20 Sb12"
_cell_length_a       7.98773
_cell_length_b       15.1765
_cell_length_c       8.01262
_cell_angle_alpha    90
_cell_angle_beta     90
_cell_angle_gamma    90

_space_group_name_H-M_alt    "P 1"
_space_group_IT_number       1

loop_
  _space_group_symop_operation_xyz
  'x, y, z'

loop_
  _atom_site_type_symbol
  _atom_site_label
  _atom_site_symmetry_multiplicity
  _atom_site_fract_x
  _atom_site_fract_y
  _atom_site_fract_z
  _atom_site_occupancy
  Ga  Ga1       1.0  0.86700  0.25000  0.14500  1.0000
  Ga  Ga2       1.0  0.36700  0.25000  0.35500  1.0000
  Ga  Ga3       1.0  0.63300  0.75000  0.64500  1.0000
  Ga  Ga4       1.0  0.13300  0.75000  0.85500  1.0000
  Ho  Ho1       1.0  0.22400  0.25000  0.00872  1.0000
  Ho  Ho2       1.0  0.10500  0.62100  0.15200  1.0000
  Ho  Ho3       1.0  0.10500  0.87900  0.15200  1.0000
  Ho  Ho4       1.0  0.55800  0.11300  0.18000  1.0000
  Ho  Ho5       1.0  0.55800  0.38700  0.18000  1.0000
  Ho  Ho6       1.0  0.05750  0.11300  0.32000  1.0000
  Ho  Ho7       1.0  0.05750  0.38700  0.32000  1.0000
  Ho  Ho8       1.0  0.60500  0.62100  0.34800  1.0000
  Ho  Ho9       1.0  0.60500  0.87900  0.34800  1.0000
  Ho  Ho10      1.0  0.72400  0.25000  0.49100  1.0000
  Ho  Ho11      1.0  0.27600  0.75000  0.50900  1.0000
  Ho  Ho12      1.0  0.39500  0.12100  0.65200  1.0000
  Ho  Ho13      1.0  0.39500  0.37900  0.65200  1.0000
  Ho  Ho14      1.0  0.94200  0.61300  0.68000  1.0000
  Ho  Ho15      1.0  0.94200  0.88700  0.68000  1.0000
  Ho  Ho16      1.0  0.44200  0.61300  0.82000  1.0000
  Ho  Ho17      1.0  0.44200  0.88700  0.82000  1.0000
  Ho  Ho18      1.0  0.89500  0.12100  0.84800  1.0000
  Ho  Ho19      1.0  0.89500  0.37900  0.84800  1.0000
  Ho  Ho20      1.0  0.77600  0.75000  0.99100  1.0000
  Sb  Sb1       1.0  0.76100  0.54500  0.02360  1.0000
  Sb  Sb2       1.0  0.76100  0.95500  0.02360  1.0000
  Sb  Sb3       1.0  0.40600  0.75000  0.12300  1.0000
  Sb  Sb4       1.0  0.90600  0.75000  0.37700  1.0000
  Sb  Sb5       1.0  0.26100  0.54500  0.47600  1.0000
  Sb  Sb6       1.0  0.26100  0.95500  0.47600  1.0000
  Sb  Sb7       1.0  0.73900  0.04530  0.52400  1.0000
  Sb  Sb8       1.0  0.73900  0.45500  0.52400  1.0000
  Sb  Sb9       1.0  0.09420  0.25000  0.62300  1.0000
  Sb  Sb10      1.0  0.59400  0.25000  0.87700  1.0000
  Sb  Sb11      1.0  0.23900  0.04530  0.97600  1.0000
  Sb  Sb12      1.0  0.23900  0.45500  0.97600  1.0000
