data_image0
_chemical_formula_structural       Al34Er4
_chemical_formula_sum              "Al34 Er4"
_cell_length_a       9.35966
_cell_length_b       9.36018
_cell_length_c       9.05292
_cell_angle_alpha    90
_cell_angle_beta     90
_cell_angle_gamma    119.998

_space_group_name_H-M_alt    "P 1"
_space_group_IT_number       1

loop_
  _space_group_symop_operation_xyz
  'x, y, z'

loop_
  _atom_site_type_symbol
  _atom_site_label
  _atom_site_symmetry_multiplicity
  _atom_site_fract_x
  _atom_site_fract_y
  _atom_site_fract_z
  _atom_site_occupancy
  Al  Al1       1.0  0.50000  0.00000  0.00000  1.0000
  Al  Al2       1.0  0.00000  0.50000  0.00000  1.0000
  Al  Al3       1.0  0.50000  0.50000  0.00000  1.0000
  Al  Al4       1.0  0.32700  0.16400  0.02390  1.0000
  Al  Al5       1.0  0.83600  0.16400  0.02390  1.0000
  Al  Al6       1.0  0.83600  0.67300  0.02390  1.0000
  Al  Al7       1.0  0.33300  0.66700  0.10200  1.0000
  Al  Al8       1.0  0.03680  0.36500  0.25000  1.0000
  Al  Al9       1.0  0.32800  0.36500  0.25000  1.0000
  Al  Al10      1.0  0.03680  0.67200  0.25000  1.0000
  Al  Al11      1.0  0.63500  0.67200  0.25000  1.0000
  Al  Al12      1.0  0.32800  0.96300  0.25000  1.0000
  Al  Al13      1.0  0.63500  0.96300  0.25000  1.0000
  Al  Al14      1.0  0.33300  0.66700  0.39800  1.0000
  Al  Al15      1.0  0.83600  0.67300  0.47600  1.0000
  Al  Al16      1.0  0.32700  0.16400  0.47600  1.0000
  Al  Al17      1.0  0.83600  0.16400  0.47600  1.0000
  Al  Al18      1.0  0.50000  0.00000  0.50000  1.0000
  Al  Al19      1.0  0.00000  0.50000  0.50000  1.0000
  Al  Al20      1.0  0.50000  0.50000  0.50000  1.0000
  Al  Al21      1.0  0.16400  0.83600  0.52400  1.0000
  Al  Al22      1.0  0.67300  0.83600  0.52400  1.0000
  Al  Al23      1.0  0.16400  0.32700  0.52400  1.0000
  Al  Al24      1.0  0.66700  0.33300  0.60200  1.0000
  Al  Al25      1.0  0.36500  0.03680  0.75000  1.0000
  Al  Al26      1.0  0.67200  0.03680  0.75000  1.0000
  Al  Al27      1.0  0.36500  0.32800  0.75000  1.0000
  Al  Al28      1.0  0.96300  0.32800  0.75000  1.0000
  Al  Al29      1.0  0.67200  0.63500  0.75000  1.0000
  Al  Al30      1.0  0.96300  0.63500  0.75000  1.0000
  Al  Al31      1.0  0.66700  0.33300  0.89800  1.0000
  Al  Al32      1.0  0.16400  0.32700  0.97600  1.0000
  Al  Al33      1.0  0.16400  0.83600  0.97600  1.0000
  Al  Al34      1.0  0.67300  0.83600  0.97600  1.0000
  Er  Er1       1.0  0.00000  0.00000  0.25000  1.0000
  Er  Er2       1.0  0.66700  0.33300  0.25000  1.0000
  Er  Er3       1.0  0.00000  0.00000  0.75000  1.0000
  Er  Er4       1.0  0.33300  0.66700  0.75000  1.0000
