data_image0
_chemical_formula_structural       Cu4S20Sm8Yb4
_chemical_formula_sum              "Cu4 S20 Sm8 Yb4"
_cell_length_a       11.7011
_cell_length_b       3.88405
_cell_length_c       16.6966
_cell_angle_alpha    90
_cell_angle_beta     90
_cell_angle_gamma    90

_space_group_name_H-M_alt    "P 1"
_space_group_IT_number       1

loop_
  _space_group_symop_operation_xyz
  'x, y, z'

loop_
  _atom_site_type_symbol
  _atom_site_label
  _atom_site_symmetry_multiplicity
  _atom_site_fract_x
  _atom_site_fract_y
  _atom_site_fract_z
  _atom_site_occupancy
  Cu  Cu1       1.0  0.91100  0.25000  0.00260  1.0000
  Cu  Cu2       1.0  0.41100  0.25000  0.49700  1.0000
  Cu  Cu3       1.0  0.58900  0.75000  0.50300  1.0000
  Cu  Cu4       1.0  0.08910  0.75000  0.99700  1.0000
  S   S1        1.0  0.61300  0.25000  0.02400  1.0000
  S   S2        1.0  0.92200  0.75000  0.07990  1.0000
  S   S3        1.0  0.19000  0.75000  0.11400  1.0000
  S   S4        1.0  0.49200  0.75000  0.19700  1.0000
  S   S5        1.0  0.76900  0.25000  0.23500  1.0000
  S   S6        1.0  0.26900  0.25000  0.26500  1.0000
  S   S7        1.0  0.99200  0.75000  0.30300  1.0000
  S   S8        1.0  0.69000  0.75000  0.38600  1.0000
  S   S9        1.0  0.42200  0.75000  0.42000  1.0000
  S   S10       1.0  0.11300  0.25000  0.47600  1.0000
  S   S11       1.0  0.88700  0.75000  0.52400  1.0000
  S   S12       1.0  0.57800  0.25000  0.58000  1.0000
  S   S13       1.0  0.31000  0.25000  0.61400  1.0000
  S   S14       1.0  0.00793  0.25000  0.69700  1.0000
  S   S15       1.0  0.73100  0.75000  0.73500  1.0000
  S   S16       1.0  0.23100  0.75000  0.76500  1.0000
  S   S17       1.0  0.50800  0.25000  0.80300  1.0000
  S   S18       1.0  0.81000  0.25000  0.88600  1.0000
  S   S19       1.0  0.07750  0.25000  0.92000  1.0000
  S   S20       1.0  0.38700  0.75000  0.97600  1.0000
  Sm  Sm1       1.0  0.37400  0.25000  0.10200  1.0000
  Sm  Sm2       1.0  0.03690  0.25000  0.18600  1.0000
  Sm  Sm3       1.0  0.53700  0.25000  0.31400  1.0000
  Sm  Sm4       1.0  0.87400  0.25000  0.39800  1.0000
  Sm  Sm5       1.0  0.12600  0.75000  0.60200  1.0000
  Sm  Sm6       1.0  0.46300  0.75000  0.68600  1.0000
  Sm  Sm7       1.0  0.96300  0.75000  0.81400  1.0000
  Sm  Sm8       1.0  0.62600  0.75000  0.89800  1.0000
  Yb  Yb1       1.0  0.70000  0.75000  0.12900  1.0000
  Yb  Yb2       1.0  0.20000  0.75000  0.37100  1.0000
  Yb  Yb3       1.0  0.80000  0.25000  0.62900  1.0000
  Yb  Yb4       1.0  0.30000  0.25000  0.87100  1.0000
