data_image0
_chemical_formula_structural       Fe4Ni3O24P6
_chemical_formula_sum              "Fe4 Ni3 O24 P6"
_cell_length_a       6.30856
_cell_length_b       7.87303
_cell_length_c       9.3609
_cell_angle_alpha    67.7506
_cell_angle_beta     68.7542
_cell_angle_gamma    78.8272

_space_group_name_H-M_alt    "P 1"
_space_group_IT_number       1

loop_
  _space_group_symop_operation_xyz
  'x, y, z'

loop_
  _atom_site_type_symbol
  _atom_site_label
  _atom_site_symmetry_multiplicity
  _atom_site_fract_x
  _atom_site_fract_y
  _atom_site_fract_z
  _atom_site_occupancy
  Fe  Fe1       1.0  0.27000  0.54600  0.12000  1.0000
  Fe  Fe2       1.0  0.47500  0.72300  0.47700  1.0000
  Fe  Fe3       1.0  0.52500  0.27700  0.52300  1.0000
  Fe  Fe4       1.0  0.73000  0.45400  0.88000  1.0000
  Ni  Ni1       1.0  0.00000  0.00000  0.00000  1.0000
  Ni  Ni2       1.0  0.99200  0.19500  0.27600  1.0000
  Ni  Ni3       1.0  0.00781  0.80500  0.72400  1.0000
  O   O1        1.0  0.71700  0.19300  0.04860  1.0000
  O   O2        1.0  0.80500  0.79100  0.07430  1.0000
  O   O3        1.0  0.60600  0.53400  0.08500  1.0000
  O   O4        1.0  0.96400  0.46500  0.16100  1.0000
  O   O5        1.0  0.31300  0.26000  0.22400  1.0000
  O   O6        1.0  0.03860  0.96100  0.23600  1.0000
  O   O7        1.0  0.49500  0.94100  0.28900  1.0000
  O   O8        1.0  0.15800  0.62600  0.29900  1.0000
  O   O9        1.0  0.64800  0.18500  0.33300  1.0000
  O   O10       1.0  0.59000  0.55100  0.34700  1.0000
  O   O11       1.0  0.77600  0.72700  0.47100  1.0000
  O   O12       1.0  0.86900  0.22800  0.49900  1.0000
  O   O13       1.0  0.13100  0.77200  0.50100  1.0000
  O   O14       1.0  0.22400  0.27300  0.52900  1.0000
  O   O15       1.0  0.41000  0.44900  0.65300  1.0000
  O   O16       1.0  0.35200  0.81500  0.66700  1.0000
  O   O17       1.0  0.84200  0.37400  0.70100  1.0000
  O   O18       1.0  0.50500  0.05860  0.71100  1.0000
  O   O19       1.0  0.96100  0.03920  0.76400  1.0000
  O   O20       1.0  0.68700  0.74000  0.77600  1.0000
  O   O21       1.0  0.03580  0.53500  0.83900  1.0000
  O   O22       1.0  0.39400  0.46600  0.91500  1.0000
  O   O23       1.0  0.19500  0.20900  0.92600  1.0000
  O   O24       1.0  0.28300  0.80700  0.95100  1.0000
  P   P1        1.0  0.74200  0.59600  0.16500  1.0000
  P   P2        1.0  0.54000  0.14300  0.22500  1.0000
  P   P3        1.0  0.02270  0.77300  0.37500  1.0000
  P   P4        1.0  0.97700  0.22700  0.62500  1.0000
  P   P5        1.0  0.46000  0.85700  0.77500  1.0000
  P   P6        1.0  0.25800  0.40400  0.83500  1.0000
