data_image0
_chemical_formula_structural       Ba8O24Re2W3
_chemical_formula_sum              "Ba8 O24 Re2 W3"
_cell_length_a       5.75651
_cell_length_b       5.75651
_cell_length_c       18.9442
_cell_angle_alpha    81.261
_cell_angle_beta     98.739
_cell_angle_gamma    120

_space_group_name_H-M_alt    "P 1"
_space_group_IT_number       1

loop_
  _space_group_symop_operation_xyz
  'x, y, z'

loop_
  _atom_site_type_symbol
  _atom_site_label
  _atom_site_symmetry_multiplicity
  _atom_site_fract_x
  _atom_site_fract_y
  _atom_site_fract_z
  _atom_site_occupancy
  Ba  Ba1       1.0  0.35100  0.64900  0.05280  1.0000
  Ba  Ba2       1.0  0.73000  0.27000  0.18900  1.0000
  Ba  Ba3       1.0  0.11300  0.88700  0.34000  1.0000
  Ba  Ba4       1.0  0.81400  0.18600  0.44100  1.0000
  Ba  Ba5       1.0  0.18600  0.81400  0.55900  1.0000
  Ba  Ba6       1.0  0.88700  0.11300  0.66000  1.0000
  Ba  Ba7       1.0  0.27000  0.73000  0.81100  1.0000
  Ba  Ba8       1.0  0.64900  0.35100  0.94700  1.0000
  O   O1        1.0  0.33600  0.13400  0.06720  1.0000
  O   O2        1.0  0.86600  0.13400  0.06720  1.0000
  O   O3        1.0  0.86600  0.66400  0.06720  1.0000
  O   O4        1.0  0.22500  0.26800  0.18200  1.0000
  O   O5        1.0  0.22500  0.77500  0.18200  1.0000
  O   O6        1.0  0.73200  0.77500  0.18200  1.0000
  O   O7        1.0  0.11300  0.40600  0.30100  1.0000
  O   O8        1.0  0.59400  0.40600  0.30100  1.0000
  O   O9        1.0  0.59400  0.88700  0.30100  1.0000
  O   O10       1.0  0.32000  0.19900  0.44200  1.0000
  O   O11       1.0  0.32000  0.68000  0.44200  1.0000
  O   O12       1.0  0.80100  0.68000  0.44200  1.0000
  O   O13       1.0  0.19900  0.32000  0.55800  1.0000
  O   O14       1.0  0.68000  0.32000  0.55800  1.0000
  O   O15       1.0  0.68000  0.80100  0.55800  1.0000
  O   O16       1.0  0.40600  0.11300  0.69900  1.0000
  O   O17       1.0  0.40600  0.59400  0.69900  1.0000
  O   O18       1.0  0.88700  0.59400  0.69900  1.0000
  O   O19       1.0  0.26800  0.22500  0.81800  1.0000
  O   O20       1.0  0.77500  0.22500  0.81800  1.0000
  O   O21       1.0  0.77500  0.73200  0.81800  1.0000
  O   O22       1.0  0.13400  0.33600  0.93300  1.0000
  O   O23       1.0  0.13400  0.86600  0.93300  1.0000
  O   O24       1.0  0.66400  0.86600  0.93300  1.0000
  Re  Re1       1.0  0.03990  0.96000  0.12000  1.0000
  Re  Re2       1.0  0.96000  0.03990  0.88000  1.0000
  W   W1        1.0  0.41900  0.58100  0.25700  1.0000
  W   W2        1.0  0.50000  0.50000  0.50000  1.0000
  W   W3        1.0  0.58100  0.41900  0.74300  1.0000
