data_image0
_chemical_formula_structural       Bi10Mo3O24
_chemical_formula_sum              "Bi10 Mo3 O24"
_cell_length_a       5.63818
_cell_length_b       8.6401
_cell_length_c       12.156
_cell_angle_alpha    95.527
_cell_angle_beta     103.409
_cell_angle_gamma    90

_space_group_name_H-M_alt    "P 1"
_space_group_IT_number       1

loop_
  _space_group_symop_operation_xyz
  'x, y, z'

loop_
  _atom_site_type_symbol
  _atom_site_label
  _atom_site_symmetry_multiplicity
  _atom_site_fract_x
  _atom_site_fract_y
  _atom_site_fract_z
  _atom_site_occupancy
  Bi  Bi1       1.0  0.55300  0.32200  0.07410  1.0000
  Bi  Bi2       1.0  0.09430  0.59500  0.15200  1.0000
  Bi  Bi3       1.0  0.17700  0.24800  0.29700  1.0000
  Bi  Bi4       1.0  0.77500  0.54600  0.38700  1.0000
  Bi  Bi5       1.0  0.27100  0.81900  0.47800  1.0000
  Bi  Bi6       1.0  0.79400  0.18100  0.52200  1.0000
  Bi  Bi7       1.0  0.38800  0.45400  0.61300  1.0000
  Bi  Bi8       1.0  0.88000  0.75200  0.70300  1.0000
  Bi  Bi9       1.0  0.94200  0.40500  0.84800  1.0000
  Bi  Bi10      1.0  0.47900  0.67800  0.92600  1.0000
  Mo  Mo1       1.0  0.99600  0.00000  0.00000  1.0000
  Mo  Mo2       1.0  0.67900  0.92600  0.25000  1.0000
  Mo  Mo3       1.0  0.42900  0.07450  0.75000  1.0000
  O   O1        1.0  0.30100  0.50000  0.00000  1.0000
  O   O2        1.0  0.78900  0.50000  0.00000  1.0000
  O   O3        1.0  0.17900  0.83300  0.02500  1.0000
  O   O4        1.0  0.87200  0.05690  0.12100  1.0000
  O   O5        1.0  0.69800  0.76500  0.14700  1.0000
  O   O6        1.0  0.47400  0.08010  0.21000  1.0000
  O   O7        1.0  0.36400  0.41100  0.21200  1.0000
  O   O8        1.0  0.87200  0.42000  0.21800  1.0000
  O   O9        1.0  0.96500  0.99500  0.34400  1.0000
  O   O10       1.0  0.10800  0.65000  0.34800  1.0000
  O   O11       1.0  0.54400  0.83400  0.34900  1.0000
  O   O12       1.0  0.98900  0.34600  0.44700  1.0000
  O   O13       1.0  0.47300  0.31400  0.44800  1.0000
  O   O14       1.0  0.02500  0.68600  0.55200  1.0000
  O   O15       1.0  0.54200  0.65400  0.55300  1.0000
  O   O16       1.0  0.19500  0.16600  0.65100  1.0000
  O   O17       1.0  0.76000  0.35000  0.65200  1.0000
  O   O18       1.0  0.62200  0.00509  0.65600  1.0000
  O   O19       1.0  0.65400  0.58000  0.78200  1.0000
  O   O20       1.0  0.15200  0.58900  0.78800  1.0000
  O   O21       1.0  0.26400  0.92000  0.79000  1.0000
  O   O22       1.0  0.55100  0.23500  0.85300  1.0000
  O   O23       1.0  0.75100  0.94300  0.87900  1.0000
  O   O24       1.0  0.15400  0.16700  0.97500  1.0000
