data_image0
_chemical_formula_structural       Co8Sc10Si20
_chemical_formula_sum              "Co8 Sc10 Si20"
_cell_length_a       11.9932
_cell_length_b       11.9932
_cell_length_c       3.93134
_cell_angle_alpha    90
_cell_angle_beta     90
_cell_angle_gamma    90

_space_group_name_H-M_alt    "P 1"
_space_group_IT_number       1

loop_
  _space_group_symop_operation_xyz
  'x, y, z'

loop_
  _atom_site_type_symbol
  _atom_site_label
  _atom_site_symmetry_multiplicity
  _atom_site_fract_x
  _atom_site_fract_y
  _atom_site_fract_z
  _atom_site_occupancy
  Co  Co1       1.0  0.24600  0.02420  0.00000  1.0000
  Co  Co2       1.0  0.97600  0.24600  0.00000  1.0000
  Co  Co3       1.0  0.47600  0.25400  0.00000  1.0000
  Co  Co4       1.0  0.74600  0.47600  0.00000  1.0000
  Co  Co5       1.0  0.25400  0.52400  0.00000  1.0000
  Co  Co6       1.0  0.52400  0.74600  0.00000  1.0000
  Co  Co7       1.0  0.02420  0.75400  0.00000  1.0000
  Co  Co8       1.0  0.75400  0.97600  0.00000  1.0000
  Sc  Sc1       1.0  0.00000  0.00000  0.00000  1.0000
  Sc  Sc2       1.0  0.50000  0.50000  0.00000  1.0000
  Sc  Sc3       1.0  0.61200  0.11200  0.50000  1.0000
  Sc  Sc4       1.0  0.32400  0.17600  0.50000  1.0000
  Sc  Sc5       1.0  0.82400  0.32400  0.50000  1.0000
  Sc  Sc6       1.0  0.11200  0.38800  0.50000  1.0000
  Sc  Sc7       1.0  0.88800  0.61200  0.50000  1.0000
  Sc  Sc8       1.0  0.17600  0.67600  0.50000  1.0000
  Sc  Sc9       1.0  0.67600  0.82400  0.50000  1.0000
  Sc  Sc10      1.0  0.38800  0.88800  0.50000  1.0000
  Si  Si1       1.0  0.43200  0.06840  0.00000  1.0000
  Si  Si2       1.0  0.80200  0.15700  0.00000  1.0000
  Si  Si3       1.0  0.15700  0.19800  0.00000  1.0000
  Si  Si4       1.0  0.65700  0.30200  0.00000  1.0000
  Si  Si5       1.0  0.30200  0.34300  0.00000  1.0000
  Si  Si6       1.0  0.93200  0.43200  0.00000  1.0000
  Si  Si7       1.0  0.06840  0.56800  0.00000  1.0000
  Si  Si8       1.0  0.69800  0.65700  0.00000  1.0000
  Si  Si9       1.0  0.34300  0.69800  0.00000  1.0000
  Si  Si10      1.0  0.84300  0.80200  0.00000  1.0000
  Si  Si11      1.0  0.19800  0.84300  0.00000  1.0000
  Si  Si12      1.0  0.56800  0.93200  0.00000  1.0000
  Si  Si13      1.0  0.16400  0.00220  0.50000  1.0000
  Si  Si14      1.0  0.99800  0.16400  0.50000  1.0000
  Si  Si15      1.0  0.49800  0.33600  0.50000  1.0000
  Si  Si16      1.0  0.66400  0.49800  0.50000  1.0000
  Si  Si17      1.0  0.33600  0.50200  0.50000  1.0000
  Si  Si18      1.0  0.50200  0.66400  0.50000  1.0000
  Si  Si19      1.0  0.00220  0.83600  0.50000  1.0000
  Si  Si20      1.0  0.83600  0.99800  0.50000  1.0000
