data_image0
_chemical_formula_structural       Bi6Mo4O24Sc2
_chemical_formula_sum              "Bi6 Mo4 O24 Sc2"
_cell_length_a       5.3037
_cell_length_b       10.2454
_cell_length_c       10.2454
_cell_angle_alpha    68.391
_cell_angle_beta     102.479
_cell_angle_gamma    102.479

_space_group_name_H-M_alt    "P 1"
_space_group_IT_number       1

loop_
  _space_group_symop_operation_xyz
  'x, y, z'

loop_
  _atom_site_type_symbol
  _atom_site_label
  _atom_site_symmetry_multiplicity
  _atom_site_fract_x
  _atom_site_fract_y
  _atom_site_fract_z
  _atom_site_occupancy
  Bi  Bi1       1.0  0.43700  0.27400  0.03680  1.0000
  Bi  Bi2       1.0  0.93700  0.03680  0.27400  1.0000
  Bi  Bi3       1.0  0.75000  0.65600  0.34400  1.0000
  Bi  Bi4       1.0  0.25000  0.34400  0.65600  1.0000
  Bi  Bi5       1.0  0.06340  0.96300  0.72600  1.0000
  Bi  Bi6       1.0  0.56300  0.72600  0.96300  1.0000
  Mo  Mo1       1.0  0.07820  0.45900  0.20600  1.0000
  Mo  Mo2       1.0  0.57800  0.20600  0.45900  1.0000
  Mo  Mo3       1.0  0.42200  0.79400  0.54100  1.0000
  Mo  Mo4       1.0  0.92200  0.54100  0.79400  1.0000
  O   O1        1.0  0.08310  0.10700  0.05810  1.0000
  O   O2        1.0  0.26800  0.49300  0.07000  1.0000
  O   O3        1.0  0.58300  0.05810  0.10700  1.0000
  O   O4        1.0  0.46000  0.73900  0.15900  1.0000
  O   O5        1.0  0.88000  0.59900  0.16800  1.0000
  O   O6        1.0  0.86400  0.29600  0.21100  1.0000
  O   O7        1.0  0.03980  0.84100  0.26100  1.0000
  O   O8        1.0  0.36400  0.21100  0.29600  1.0000
  O   O9        1.0  0.29200  0.44800  0.36700  1.0000
  O   O10       1.0  0.62000  0.83200  0.40100  1.0000
  O   O11       1.0  0.79200  0.36700  0.44800  1.0000
  O   O12       1.0  0.76800  0.07000  0.49300  1.0000
  O   O13       1.0  0.23200  0.93000  0.50700  1.0000
  O   O14       1.0  0.20800  0.63300  0.55200  1.0000
  O   O15       1.0  0.38000  0.16800  0.59900  1.0000
  O   O16       1.0  0.70800  0.55200  0.63300  1.0000
  O   O17       1.0  0.63600  0.78900  0.70400  1.0000
  O   O18       1.0  0.96000  0.15900  0.73900  1.0000
  O   O19       1.0  0.13600  0.70400  0.78900  1.0000
  O   O20       1.0  0.12000  0.40100  0.83200  1.0000
  O   O21       1.0  0.54000  0.26100  0.84100  1.0000
  O   O22       1.0  0.41700  0.94200  0.89300  1.0000
  O   O23       1.0  0.73200  0.50700  0.93000  1.0000
  O   O24       1.0  0.91700  0.89300  0.94200  1.0000
  Sc  Sc1       1.0  0.25000  0.90700  0.09250  1.0000
  Sc  Sc2       1.0  0.75000  0.09250  0.90700  1.0000
