data_image0
_chemical_formula_structural       H16Ni3O16P2
_chemical_formula_sum              "H16 Ni3 O16 P2"
_cell_length_a       4.63631
_cell_length_b       8.09897
_cell_length_c       8.09897
_cell_angle_alpha    103.858
_cell_angle_beta     100.389
_cell_angle_gamma    100.389

_space_group_name_H-M_alt    "P 1"
_space_group_IT_number       1

loop_
  _space_group_symop_operation_xyz
  'x, y, z'

loop_
  _atom_site_type_symbol
  _atom_site_label
  _atom_site_symmetry_multiplicity
  _atom_site_fract_x
  _atom_site_fract_y
  _atom_site_fract_z
  _atom_site_occupancy
  H   H1        1.0  0.14700  0.20300  0.03780  1.0000
  H   H2        1.0  0.47800  0.31800  0.05750  1.0000
  H   H3        1.0  0.01660  0.56200  0.17500  1.0000
  H   H4        1.0  0.22600  0.75200  0.18200  1.0000
  H   H5        1.0  0.14700  0.03780  0.20300  1.0000
  H   H6        1.0  0.77400  0.81800  0.24800  1.0000
  H   H7        1.0  0.47800  0.05750  0.31800  1.0000
  H   H8        1.0  0.98300  0.82500  0.43800  1.0000
  H   H9        1.0  0.01660  0.17500  0.56200  1.0000
  H   H10       1.0  0.52200  0.94300  0.68200  1.0000
  H   H11       1.0  0.22600  0.18200  0.75200  1.0000
  H   H12       1.0  0.85300  0.96200  0.79700  1.0000
  H   H13       1.0  0.77400  0.24800  0.81800  1.0000
  H   H14       1.0  0.98300  0.43800  0.82500  1.0000
  H   H15       1.0  0.52200  0.68200  0.94300  1.0000
  H   H16       1.0  0.85300  0.79700  0.96200  1.0000
  Ni  Ni1       1.0  0.50000  0.00000  0.00000  1.0000
  Ni  Ni2       1.0  0.50000  0.61700  0.38300  1.0000
  Ni  Ni3       1.0  0.50000  0.38300  0.61700  1.0000
  O   O1        1.0  0.68200  0.78600  0.02330  1.0000
  O   O2        1.0  0.90700  0.15000  0.15000  1.0000
  O   O3        1.0  0.22300  0.62600  0.17200  1.0000
  O   O4        1.0  0.31800  0.97700  0.21400  1.0000
  O   O5        1.0  0.75200  0.43400  0.23000  1.0000
  O   O6        1.0  0.77700  0.82800  0.37400  1.0000
  O   O7        1.0  0.24100  0.40100  0.40100  1.0000
  O   O8        1.0  0.75200  0.23000  0.43400  1.0000
  O   O9        1.0  0.24800  0.77000  0.56600  1.0000
  O   O10       1.0  0.75900  0.59900  0.59900  1.0000
  O   O11       1.0  0.22300  0.17200  0.62600  1.0000
  O   O12       1.0  0.24800  0.56600  0.77000  1.0000
  O   O13       1.0  0.68200  0.02330  0.78600  1.0000
  O   O14       1.0  0.77700  0.37400  0.82800  1.0000
  O   O15       1.0  0.09260  0.85000  0.85000  1.0000
  O   O16       1.0  0.31800  0.21400  0.97700  1.0000
  P   P1        1.0  0.90500  0.30700  0.30700  1.0000
  P   P2        1.0  0.09480  0.69300  0.69300  1.0000
