data_image0
_chemical_formula_structural       Al5Na17O16
_chemical_formula_sum              "Al5 Na17 O16"
_cell_length_a       5.92901
_cell_length_b       5.94102
_cell_length_c       16.6492
_cell_angle_alpha    95.0557
_cell_angle_beta     79.7434
_cell_angle_gamma    119.665

_space_group_name_H-M_alt    "P 1"
_space_group_IT_number       1

loop_
  _space_group_symop_operation_xyz
  'x, y, z'

loop_
  _atom_site_type_symbol
  _atom_site_label
  _atom_site_symmetry_multiplicity
  _atom_site_fract_x
  _atom_site_fract_y
  _atom_site_fract_z
  _atom_site_occupancy
  Al  Al1       1.0  0.99600  0.99400  0.00000  1.0000
  Al  Al2       1.0  0.90600  0.32600  0.18100  1.0000
  Al  Al3       1.0  0.81700  0.00728  0.36100  1.0000
  Al  Al4       1.0  0.17800  0.00728  0.63900  1.0000
  Al  Al5       1.0  0.08700  0.32600  0.81900  1.0000
  Na  Na1       1.0  0.99800  0.51000  0.00000  1.0000
  Na  Na2       1.0  0.41500  0.38700  0.09190  1.0000
  Na  Na3       1.0  0.48600  0.92100  0.09230  1.0000
  Na  Na4       1.0  0.91100  0.80800  0.17600  1.0000
  Na  Na5       1.0  0.32400  0.41400  0.27500  1.0000
  Na  Na6       1.0  0.39600  0.94700  0.27600  1.0000
  Na  Na7       1.0  0.82700  0.53500  0.35100  1.0000
  Na  Na8       1.0  0.22300  0.37700  0.45000  1.0000
  Na  Na9       1.0  0.32600  0.94500  0.46100  1.0000
  Na  Na10      1.0  0.78700  0.94500  0.53900  1.0000
  Na  Na11      1.0  0.67300  0.37700  0.55000  1.0000
  Na  Na12      1.0  0.17800  0.53500  0.64900  1.0000
  Na  Na13      1.0  0.67300  0.94700  0.72400  1.0000
  Na  Na14      1.0  0.59800  0.41400  0.72500  1.0000
  Na  Na15      1.0  0.08660  0.80800  0.82400  1.0000
  Na  Na16      1.0  0.57900  0.92100  0.90800  1.0000
  Na  Na17      1.0  0.50700  0.38700  0.90800  1.0000
  O   O1        1.0  0.70900  0.69400  0.00000  1.0000
  O   O2        1.0  0.28300  0.97800  0.00000  1.0000
  O   O3        1.0  0.95300  0.17500  0.08660  1.0000
  O   O4        1.0  0.19000  0.62700  0.18700  1.0000
  O   O5        1.0  0.61700  0.34300  0.18700  1.0000
  O   O6        1.0  0.86800  0.12100  0.25900  1.0000
  O   O7        1.0  0.09530  0.98400  0.37300  1.0000
  O   O8        1.0  0.52200  0.70900  0.37300  1.0000
  O   O9        1.0  0.79000  0.23400  0.43300  1.0000
  O   O10       1.0  0.22300  0.23400  0.56700  1.0000
  O   O11       1.0  0.89500  0.70900  0.62700  1.0000
  O   O12       1.0  0.46800  0.98400  0.62700  1.0000
  O   O13       1.0  0.12700  0.12100  0.74100  1.0000
  O   O14       1.0  0.80400  0.34300  0.81300  1.0000
  O   O15       1.0  0.37700  0.62700  0.81300  1.0000
  O   O16       1.0  0.03970  0.17500  0.91300  1.0000
