data_image0
_chemical_formula_structural       H20O16S2
_chemical_formula_sum              "H20 O16 S2"
_cell_length_a       7.28199
_cell_length_b       7.28199
_cell_length_c       5.93875
_cell_angle_alpha    90
_cell_angle_beta     90
_cell_angle_gamma    90

_space_group_name_H-M_alt    "P 1"
_space_group_IT_number       1

loop_
  _space_group_symop_operation_xyz
  'x, y, z'

loop_
  _atom_site_type_symbol
  _atom_site_label
  _atom_site_symmetry_multiplicity
  _atom_site_fract_x
  _atom_site_fract_y
  _atom_site_fract_z
  _atom_site_occupancy
  H   H1        1.0  0.00000  0.50000  0.06200  1.0000
  H   H2        1.0  0.15400  0.31100  0.09250  1.0000
  H   H3        1.0  0.84600  0.68900  0.09250  1.0000
  H   H4        1.0  0.76200  0.49400  0.16800  1.0000
  H   H5        1.0  0.23800  0.50600  0.16800  1.0000
  H   H6        1.0  0.26200  0.00619  0.33200  1.0000
  H   H7        1.0  0.73800  0.99400  0.33200  1.0000
  H   H8        1.0  0.65400  0.18900  0.40700  1.0000
  H   H9        1.0  0.34600  0.81100  0.40700  1.0000
  H   H10       1.0  0.50000  0.00000  0.43800  1.0000
  H   H11       1.0  0.00000  0.50000  0.56200  1.0000
  H   H12       1.0  0.18900  0.34600  0.59300  1.0000
  H   H13       1.0  0.81100  0.65400  0.59300  1.0000
  H   H14       1.0  0.99400  0.26200  0.66800  1.0000
  H   H15       1.0  0.00619  0.73800  0.66800  1.0000
  H   H16       1.0  0.49400  0.23800  0.83200  1.0000
  H   H17       1.0  0.50600  0.76200  0.83200  1.0000
  H   H18       1.0  0.68900  0.15400  0.90700  1.0000
  H   H19       1.0  0.31100  0.84600  0.90700  1.0000
  H   H20       1.0  0.50000  0.00000  0.93800  1.0000
  O   O1        1.0  0.15600  0.44600  0.05260  1.0000
  O   O2        1.0  0.84400  0.55400  0.05260  1.0000
  O   O3        1.0  0.13700  0.09700  0.14200  1.0000
  O   O4        1.0  0.86300  0.90300  0.14200  1.0000
  O   O5        1.0  0.63700  0.40300  0.35800  1.0000
  O   O6        1.0  0.36300  0.59700  0.35800  1.0000
  O   O7        1.0  0.65600  0.05430  0.44700  1.0000
  O   O8        1.0  0.34400  0.94600  0.44700  1.0000
  O   O9        1.0  0.05430  0.34400  0.55300  1.0000
  O   O10       1.0  0.94600  0.65600  0.55300  1.0000
  O   O11       1.0  0.40300  0.36300  0.64200  1.0000
  O   O12       1.0  0.59700  0.63700  0.64200  1.0000
  O   O13       1.0  0.90300  0.13700  0.85800  1.0000
  O   O14       1.0  0.09700  0.86300  0.85800  1.0000
  O   O15       1.0  0.55400  0.15600  0.94700  1.0000
  O   O16       1.0  0.44600  0.84400  0.94700  1.0000
  S   S1        1.0  0.00000  0.00000  0.00000  1.0000
  S   S2        1.0  0.50000  0.50000  0.50000  1.0000
