data_image0
_chemical_formula_structural       K2Mo4O26P6
_chemical_formula_sum              "K2 Mo4 O26 P6"
_cell_length_a       8.73015
_cell_length_b       8.76437
_cell_length_c       8.76437
_cell_angle_alpha    104.491
_cell_angle_beta     111.462
_cell_angle_gamma    111.462

_space_group_name_H-M_alt    "P 1"
_space_group_IT_number       1

loop_
  _space_group_symop_operation_xyz
  'x, y, z'

loop_
  _atom_site_type_symbol
  _atom_site_label
  _atom_site_symmetry_multiplicity
  _atom_site_fract_x
  _atom_site_fract_y
  _atom_site_fract_z
  _atom_site_occupancy
  K   K1        1.0  0.00000  0.50000  0.00000  1.0000
  K   K2        1.0  0.50000  0.00000  0.50000  1.0000
  Mo  Mo1       1.0  0.67700  0.32500  0.17200  1.0000
  Mo  Mo2       1.0  0.17700  0.17200  0.32500  1.0000
  Mo  Mo3       1.0  0.82300  0.82800  0.67500  1.0000
  Mo  Mo4       1.0  0.32300  0.67500  0.82800  1.0000
  O   O1        1.0  0.57900  0.89800  0.00902  1.0000
  O   O2        1.0  0.80300  0.21100  0.06590  1.0000
  O   O3        1.0  0.39200  0.64200  0.09600  1.0000
  O   O4        1.0  0.92100  0.99100  0.10200  1.0000
  O   O5        1.0  0.52900  0.45000  0.19700  1.0000
  O   O6        1.0  0.30300  0.06590  0.21100  1.0000
  O   O7        1.0  0.75000  0.76000  0.24000  1.0000
  O   O8        1.0  0.91200  0.57000  0.26400  1.0000
  O   O9        1.0  0.22900  0.36200  0.29100  1.0000
  O   O10       1.0  0.10800  0.90400  0.35800  1.0000
  O   O11       1.0  0.72900  0.29100  0.36200  1.0000
  O   O12       1.0  0.58800  0.73600  0.43000  1.0000
  O   O13       1.0  0.02900  0.19700  0.45000  1.0000
  O   O14       1.0  0.97100  0.80300  0.55000  1.0000
  O   O15       1.0  0.41200  0.26400  0.57000  1.0000
  O   O16       1.0  0.27100  0.70900  0.63800  1.0000
  O   O17       1.0  0.89200  0.09600  0.64200  1.0000
  O   O18       1.0  0.77100  0.63800  0.70900  1.0000
  O   O19       1.0  0.08820  0.43000  0.73600  1.0000
  O   O20       1.0  0.25000  0.24000  0.76000  1.0000
  O   O21       1.0  0.69700  0.93400  0.78900  1.0000
  O   O22       1.0  0.47100  0.55000  0.80300  1.0000
  O   O23       1.0  0.07930  0.00902  0.89800  1.0000
  O   O24       1.0  0.60800  0.35800  0.90400  1.0000
  O   O25       1.0  0.19700  0.78900  0.93400  1.0000
  O   O26       1.0  0.42100  0.10200  0.99100  1.0000
  P   P1        1.0  0.25000  0.99200  0.00803  1.0000
  P   P2        1.0  0.55400  0.64100  0.23600  1.0000
  P   P3        1.0  0.94600  0.76400  0.35900  1.0000
  P   P4        1.0  0.05420  0.23600  0.64100  1.0000
  P   P5        1.0  0.44600  0.35900  0.76400  1.0000
  P   P6        1.0  0.75000  0.00803  0.99200  1.0000
