data_image0
_chemical_formula_structural       Fe3H16O16P2
_chemical_formula_sum              "Fe3 H16 O16 P2"
_cell_length_a       4.66232
_cell_length_b       8.13327
_cell_length_c       8.13327
_cell_angle_alpha    104.58
_cell_angle_beta     98.7316
_cell_angle_gamma    98.7316

_space_group_name_H-M_alt    "P 1"
_space_group_IT_number       1

loop_
  _space_group_symop_operation_xyz
  'x, y, z'

loop_
  _atom_site_type_symbol
  _atom_site_label
  _atom_site_symmetry_multiplicity
  _atom_site_fract_x
  _atom_site_fract_y
  _atom_site_fract_z
  _atom_site_occupancy
  Fe  Fe1       1.0  0.00000  0.00000  0.00000  1.0000
  Fe  Fe2       1.0  0.00000  0.61700  0.38300  1.0000
  Fe  Fe3       1.0  0.00000  0.38300  0.61700  1.0000
  H   H1        1.0  0.63300  0.21300  0.04330  1.0000
  H   H2        1.0  0.95300  0.32500  0.05780  1.0000
  H   H3        1.0  0.50400  0.56900  0.16400  1.0000
  H   H4        1.0  0.71000  0.75100  0.17500  1.0000
  H   H5        1.0  0.63300  0.04330  0.21300  1.0000
  H   H6        1.0  0.29000  0.82500  0.24900  1.0000
  H   H7        1.0  0.95300  0.05780  0.32500  1.0000
  H   H8        1.0  0.49500  0.83600  0.43100  1.0000
  H   H9        1.0  0.50400  0.16400  0.56900  1.0000
  H   H10       1.0  0.04670  0.94200  0.67500  1.0000
  H   H11       1.0  0.71000  0.17500  0.75100  1.0000
  H   H12       1.0  0.36700  0.95700  0.78700  1.0000
  H   H13       1.0  0.29000  0.24900  0.82500  1.0000
  H   H14       1.0  0.49500  0.43100  0.83600  1.0000
  H   H15       1.0  0.04670  0.67500  0.94200  1.0000
  H   H16       1.0  0.36700  0.78700  0.95700  1.0000
  O   O1        1.0  0.19900  0.77600  0.02010  1.0000
  O   O2        1.0  0.38000  0.15400  0.15400  1.0000
  O   O3        1.0  0.70700  0.62600  0.16100  1.0000
  O   O4        1.0  0.80100  0.98000  0.22400  1.0000
  O   O5        1.0  0.21900  0.44000  0.23800  1.0000
  O   O6        1.0  0.29300  0.83900  0.37400  1.0000
  O   O7        1.0  0.70200  0.39600  0.39600  1.0000
  O   O8        1.0  0.21900  0.23800  0.44000  1.0000
  O   O9        1.0  0.78100  0.76200  0.56000  1.0000
  O   O10       1.0  0.29800  0.60400  0.60400  1.0000
  O   O11       1.0  0.70700  0.16100  0.62600  1.0000
  O   O12       1.0  0.78100  0.56000  0.76200  1.0000
  O   O13       1.0  0.19900  0.02010  0.77600  1.0000
  O   O14       1.0  0.29300  0.37400  0.83900  1.0000
  O   O15       1.0  0.62000  0.84600  0.84600  1.0000
  O   O16       1.0  0.80100  0.22400  0.98000  1.0000
  P   P1        1.0  0.37800  0.31200  0.31200  1.0000
  P   P2        1.0  0.62200  0.68800  0.68800  1.0000
