data_image0
_chemical_formula_structural       B2H6In2Na2O20P4
_chemical_formula_sum              "B2 H6 In2 Na2 O20 P4"
_cell_length_a       6.76985
_cell_length_b       6.76985
_cell_length_c       9.34342
_cell_angle_alpha    113.041
_cell_angle_beta     66.9591
_cell_angle_gamma    100.675

_space_group_name_H-M_alt    "P 1"
_space_group_IT_number       1

loop_
  _space_group_symop_operation_xyz
  'x, y, z'

loop_
  _atom_site_type_symbol
  _atom_site_label
  _atom_site_symmetry_multiplicity
  _atom_site_fract_x
  _atom_site_fract_y
  _atom_site_fract_z
  _atom_site_occupancy
  B   B1        1.0  0.50400  0.50400  0.25000  1.0000
  B   B2        1.0  0.49600  0.49600  0.75000  1.0000
  H   H1        1.0  0.00000  0.50000  0.00000  1.0000
  H   H2        1.0  0.54200  0.38600  0.00419  1.0000
  H   H3        1.0  0.38600  0.54200  0.49600  1.0000
  H   H4        1.0  0.50000  1.00000  0.50000  1.0000
  H   H5        1.0  0.61400  0.45800  0.50400  1.0000
  H   H6        1.0  0.45800  0.61400  0.99600  1.0000
  In  In1       1.0  0.50000  0.00000  0.00000  1.0000
  In  In2       1.0  0.00000  0.50000  0.50000  1.0000
  Na  Na1       1.0  0.89200  0.89200  0.25000  1.0000
  Na  Na2       1.0  0.10800  0.10800  0.75000  1.0000
  O   O1        1.0  0.04530  0.34800  0.01550  1.0000
  O   O2        1.0  0.75000  0.07640  0.10100  1.0000
  O   O3        1.0  0.46200  0.34500  0.10200  1.0000
  O   O4        1.0  0.27200  0.95500  0.21700  1.0000
  O   O5        1.0  0.48900  0.71500  0.24500  1.0000
  O   O6        1.0  0.71500  0.48900  0.25500  1.0000
  O   O7        1.0  0.95500  0.27200  0.28300  1.0000
  O   O8        1.0  0.34500  0.46200  0.39800  1.0000
  O   O9        1.0  0.07640  0.75000  0.39900  1.0000
  O   O10       1.0  0.34800  0.04530  0.48500  1.0000
  O   O11       1.0  0.65200  0.95500  0.51500  1.0000
  O   O12       1.0  0.92400  0.25000  0.60100  1.0000
  O   O13       1.0  0.65500  0.53800  0.60200  1.0000
  O   O14       1.0  0.04520  0.72800  0.71700  1.0000
  O   O15       1.0  0.28500  0.51100  0.74500  1.0000
  O   O16       1.0  0.51100  0.28500  0.75500  1.0000
  O   O17       1.0  0.72800  0.04520  0.78300  1.0000
  O   O18       1.0  0.53800  0.65500  0.89800  1.0000
  O   O19       1.0  0.25000  0.92400  0.89900  1.0000
  O   O20       1.0  0.95500  0.65200  0.98500  1.0000
  P   P1        1.0  0.86800  0.29100  0.16000  1.0000
  P   P2        1.0  0.29100  0.86800  0.34000  1.0000
  P   P3        1.0  0.70900  0.13200  0.66000  1.0000
  P   P4        1.0  0.13200  0.70900  0.84000  1.0000
