data_image0
_chemical_formula_structural       Ba5Gd8Mn4O21
_chemical_formula_sum              "Ba5 Gd8 Mn4 O21"
_cell_length_a       5.7867
_cell_length_b       10.2917
_cell_length_c       10.2917
_cell_angle_alpha    94.5332
_cell_angle_beta     73.6721
_cell_angle_gamma    106.328

_space_group_name_H-M_alt    "P 1"
_space_group_IT_number       1

loop_
  _space_group_symop_operation_xyz
  'x, y, z'

loop_
  _atom_site_type_symbol
  _atom_site_label
  _atom_site_symmetry_multiplicity
  _atom_site_fract_x
  _atom_site_fract_y
  _atom_site_fract_z
  _atom_site_occupancy
  Ba  Ba1       1.0  0.00000  0.00000  0.00000  1.0000
  Ba  Ba2       1.0  0.13800  0.60400  0.32800  1.0000
  Ba  Ba3       1.0  0.46600  0.32800  0.39600  1.0000
  Ba  Ba4       1.0  0.53400  0.67200  0.60400  1.0000
  Ba  Ba5       1.0  0.86200  0.39600  0.67200  1.0000
  Gd  Gd1       1.0  0.58900  0.23100  0.05390  1.0000
  Gd  Gd2       1.0  0.75300  0.58300  0.07830  1.0000
  Gd  Gd3       1.0  0.35700  0.94600  0.23100  1.0000
  Gd  Gd4       1.0  0.83100  0.07830  0.41700  1.0000
  Gd  Gd5       1.0  0.16900  0.92200  0.58300  1.0000
  Gd  Gd6       1.0  0.64300  0.05390  0.76900  1.0000
  Gd  Gd7       1.0  0.24700  0.41700  0.92200  1.0000
  Gd  Gd8       1.0  0.41100  0.76900  0.94600  1.0000
  Mn  Mn1       1.0  0.04010  0.29000  0.21000  1.0000
  Mn  Mn2       1.0  0.75000  0.79000  0.29000  1.0000
  Mn  Mn3       1.0  0.25000  0.21000  0.71000  1.0000
  Mn  Mn4       1.0  0.96000  0.71000  0.79000  1.0000
  O   O1        1.0  0.50000  0.00000  0.00000  1.0000
  O   O2        1.0  0.39800  0.40700  0.11000  1.0000
  O   O3        1.0  0.90000  0.40700  0.11000  1.0000
  O   O4        1.0  0.07260  0.77400  0.13000  1.0000
  O   O5        1.0  0.57200  0.77400  0.13000  1.0000
  O   O6        1.0  0.20200  0.13000  0.22600  1.0000
  O   O7        1.0  0.70200  0.13000  0.22600  1.0000
  O   O8        1.0  0.62500  0.58800  0.33800  1.0000
  O   O9        1.0  0.49200  0.89000  0.40700  1.0000
  O   O10       1.0  0.99000  0.89000  0.40700  1.0000
  O   O11       1.0  0.96300  0.33800  0.41200  1.0000
  O   O12       1.0  0.03680  0.66200  0.58800  1.0000
  O   O13       1.0  0.00972  0.11000  0.59300  1.0000
  O   O14       1.0  0.50800  0.11000  0.59300  1.0000
  O   O15       1.0  0.37500  0.41200  0.66200  1.0000
  O   O16       1.0  0.29800  0.87000  0.77400  1.0000
  O   O17       1.0  0.79800  0.87000  0.77400  1.0000
  O   O18       1.0  0.42800  0.22600  0.87000  1.0000
  O   O19       1.0  0.92700  0.22600  0.87000  1.0000
  O   O20       1.0  0.10000  0.59300  0.89000  1.0000
  O   O21       1.0  0.60200  0.59300  0.89000  1.0000
