data_image0
_chemical_formula_structural       Er6Ru8Si24
_chemical_formula_sum              "Er6 Ru8 Si24"
_cell_length_a       10.1105
_cell_length_b       8.10994
_cell_length_c       8.11381
_cell_angle_alpha    90
_cell_angle_beta     90
_cell_angle_gamma    113.645

_space_group_name_H-M_alt    "P 1"
_space_group_IT_number       1

loop_
  _space_group_symop_operation_xyz
  'x, y, z'

loop_
  _atom_site_type_symbol
  _atom_site_label
  _atom_site_symmetry_multiplicity
  _atom_site_fract_x
  _atom_site_fract_y
  _atom_site_fract_z
  _atom_site_occupancy
  Er  Er1       1.0  0.00000  0.00000  0.00000  1.0000
  Er  Er2       1.0  0.50000  0.49700  0.25000  1.0000
  Er  Er3       1.0  0.50000  0.99700  0.25000  1.0000
  Er  Er4       1.0  0.00000  0.50000  0.50000  1.0000
  Er  Er5       1.0  0.50000  0.00335  0.75000  1.0000
  Er  Er6       1.0  0.50000  0.50300  0.75000  1.0000
  Ru  Ru1       1.0  0.34000  0.17000  0.00000  1.0000
  Ru  Ru2       1.0  0.66000  0.83000  0.00000  1.0000
  Ru  Ru3       1.0  0.00000  0.37300  0.12700  1.0000
  Ru  Ru4       1.0  0.00000  0.87300  0.37300  1.0000
  Ru  Ru5       1.0  0.66000  0.33000  0.50000  1.0000
  Ru  Ru6       1.0  0.34000  0.67000  0.50000  1.0000
  Ru  Ru7       1.0  0.00000  0.12700  0.62700  1.0000
  Ru  Ru8       1.0  0.00000  0.62700  0.87300  1.0000
  Si  Si1       1.0  0.59000  0.29500  0.00000  1.0000
  Si  Si2       1.0  0.41000  0.70500  0.00000  1.0000
  Si  Si3       1.0  0.76600  0.15400  0.00559  1.0000
  Si  Si4       1.0  0.23400  0.38900  0.00559  1.0000
  Si  Si5       1.0  0.00000  0.66700  0.16700  1.0000
  Si  Si6       1.0  0.76600  0.37800  0.22900  1.0000
  Si  Si7       1.0  0.23400  0.61200  0.22900  1.0000
  Si  Si8       1.0  0.23400  0.11200  0.27100  1.0000
  Si  Si9       1.0  0.76600  0.87800  0.27100  1.0000
  Si  Si10      1.0  0.00000  0.16700  0.33300  1.0000
  Si  Si11      1.0  0.76600  0.65400  0.49400  1.0000
  Si  Si12      1.0  0.23400  0.88900  0.49400  1.0000
  Si  Si13      1.0  0.41000  0.20500  0.50000  1.0000
  Si  Si14      1.0  0.59000  0.79500  0.50000  1.0000
  Si  Si15      1.0  0.76600  0.11100  0.50600  1.0000
  Si  Si16      1.0  0.23400  0.34600  0.50600  1.0000
  Si  Si17      1.0  0.00000  0.83300  0.66700  1.0000
  Si  Si18      1.0  0.23400  0.12200  0.72900  1.0000
  Si  Si19      1.0  0.76600  0.88800  0.72900  1.0000
  Si  Si20      1.0  0.76600  0.38800  0.77100  1.0000
  Si  Si21      1.0  0.23400  0.62200  0.77100  1.0000
  Si  Si22      1.0  0.00000  0.33300  0.83300  1.0000
  Si  Si23      1.0  0.76600  0.61100  0.99400  1.0000
  Si  Si24      1.0  0.23400  0.84600  0.99400  1.0000
