data_image0
_chemical_formula_structural       B8Co20Nd8
_chemical_formula_sum              "B8 Co20 Nd8"
_cell_length_a       5.1678
_cell_length_b       5.1679
_cell_length_c       20.1485
_cell_angle_alpha    90
_cell_angle_beta     90
_cell_angle_gamma    119.999

_space_group_name_H-M_alt    "P 1"
_space_group_IT_number       1

loop_
  _space_group_symop_operation_xyz
  'x, y, z'

loop_
  _atom_site_type_symbol
  _atom_site_label
  _atom_site_symmetry_multiplicity
  _atom_site_fract_x
  _atom_site_fract_y
  _atom_site_fract_z
  _atom_site_occupancy
  B   B1        1.0  0.66700  0.33300  0.17500  1.0000
  B   B2        1.0  0.00000  0.00000  0.17800  1.0000
  B   B3        1.0  0.00000  0.00000  0.32200  1.0000
  B   B4        1.0  0.66700  0.33300  0.32500  1.0000
  B   B5        1.0  0.33300  0.66700  0.67500  1.0000
  B   B6        1.0  0.00000  0.00000  0.67800  1.0000
  B   B7        1.0  0.00000  0.00000  0.82200  1.0000
  B   B8        1.0  0.33300  0.66700  0.82500  1.0000
  Co  Co1       1.0  0.00000  0.00000  0.00000  1.0000
  Co  Co2       1.0  0.83900  0.67700  0.10800  1.0000
  Co  Co3       1.0  0.32300  0.16100  0.10800  1.0000
  Co  Co4       1.0  0.83900  0.16100  0.10800  1.0000
  Co  Co5       1.0  0.33500  0.16800  0.25000  1.0000
  Co  Co6       1.0  0.83200  0.16800  0.25000  1.0000
  Co  Co7       1.0  0.83200  0.66500  0.25000  1.0000
  Co  Co8       1.0  0.32300  0.16100  0.39200  1.0000
  Co  Co9       1.0  0.83900  0.16100  0.39200  1.0000
  Co  Co10      1.0  0.83900  0.67700  0.39200  1.0000
  Co  Co11      1.0  0.00000  0.00000  0.50000  1.0000
  Co  Co12      1.0  0.16100  0.32300  0.60800  1.0000
  Co  Co13      1.0  0.16100  0.83900  0.60800  1.0000
  Co  Co14      1.0  0.67700  0.83900  0.60800  1.0000
  Co  Co15      1.0  0.16800  0.33500  0.75000  1.0000
  Co  Co16      1.0  0.16800  0.83200  0.75000  1.0000
  Co  Co17      1.0  0.66500  0.83200  0.75000  1.0000
  Co  Co18      1.0  0.16100  0.83900  0.89200  1.0000
  Co  Co19      1.0  0.67700  0.83900  0.89200  1.0000
  Co  Co20      1.0  0.16100  0.32300  0.89200  1.0000
  Nd  Nd1       1.0  0.33300  0.66700  0.02170  1.0000
  Nd  Nd2       1.0  0.33300  0.66700  0.17500  1.0000
  Nd  Nd3       1.0  0.33300  0.66700  0.32500  1.0000
  Nd  Nd4       1.0  0.33300  0.66700  0.47800  1.0000
  Nd  Nd5       1.0  0.66700  0.33300  0.52200  1.0000
  Nd  Nd6       1.0  0.66700  0.33300  0.67500  1.0000
  Nd  Nd7       1.0  0.66700  0.33300  0.82500  1.0000
  Nd  Nd8       1.0  0.66700  0.33300  0.97800  1.0000
