data_image0
_chemical_formula_structural       Au8Li30
_chemical_formula_sum              "Au8 Li30"
_cell_length_a       9.18217
_cell_length_b       9.18217
_cell_length_c       9.18217
_cell_angle_alpha    109.471
_cell_angle_beta     109.471
_cell_angle_gamma    109.471

_space_group_name_H-M_alt    "P 1"
_space_group_IT_number       1

loop_
  _space_group_symop_operation_xyz
  'x, y, z'

loop_
  _atom_site_type_symbol
  _atom_site_label
  _atom_site_symmetry_multiplicity
  _atom_site_fract_x
  _atom_site_fract_y
  _atom_site_fract_z
  _atom_site_occupancy
  Au  Au1       1.0  0.00000  0.41300  0.00000  1.0000
  Au  Au2       1.0  0.00000  0.91300  0.00000  1.0000
  Au  Au3       1.0  0.58700  0.58700  0.08700  1.0000
  Au  Au4       1.0  0.50000  0.00000  0.41300  1.0000
  Au  Au5       1.0  0.41300  0.50000  0.50000  1.0000
  Au  Au6       1.0  0.91300  0.50000  0.50000  1.0000
  Au  Au7       1.0  0.08700  0.08700  0.58700  1.0000
  Au  Au8       1.0  0.50000  0.00000  0.91300  1.0000
  Li  Li1       1.0  0.84500  0.12100  0.04210  1.0000
  Li  Li2       1.0  0.45800  0.80300  0.07920  1.0000
  Li  Li3       1.0  0.34500  0.04210  0.12100  1.0000
  Li  Li4       1.0  0.75000  0.37500  0.12500  1.0000
  Li  Li5       1.0  0.19700  0.27600  0.15500  1.0000
  Li  Li6       1.0  0.15500  0.77600  0.19700  1.0000
  Li  Li7       1.0  0.87900  0.92100  0.22400  1.0000
  Li  Li8       1.0  0.37500  0.62500  0.25000  1.0000
  Li  Li9       1.0  0.69700  0.15500  0.27600  1.0000
  Li  Li10      1.0  0.57900  0.45800  0.30300  1.0000
  Li  Li11      1.0  0.12100  0.54200  0.34500  1.0000
  Li  Li12      1.0  0.25000  0.12500  0.37500  1.0000
  Li  Li13      1.0  0.92100  0.72400  0.37900  1.0000
  Li  Li14      1.0  0.72400  0.87900  0.42100  1.0000
  Li  Li15      1.0  0.07920  0.30300  0.45800  1.0000
  Li  Li16      1.0  0.62100  0.34500  0.54200  1.0000
  Li  Li17      1.0  0.30300  0.95800  0.57900  1.0000
  Li  Li18      1.0  0.54200  0.84500  0.62100  1.0000
  Li  Li19      1.0  0.87500  0.25000  0.62500  1.0000
  Li  Li20      1.0  0.77600  0.69700  0.65500  1.0000
  Li  Li21      1.0  0.27600  0.65500  0.69700  1.0000
  Li  Li22      1.0  0.42100  0.37900  0.72400  1.0000
  Li  Li23      1.0  0.12500  0.87500  0.75000  1.0000
  Li  Li24      1.0  0.65500  0.19700  0.77600  1.0000
  Li  Li25      1.0  0.95800  0.07920  0.80300  1.0000
  Li  Li26      1.0  0.04210  0.62100  0.84500  1.0000
  Li  Li27      1.0  0.62500  0.75000  0.87500  1.0000
  Li  Li28      1.0  0.22400  0.42100  0.87900  1.0000
  Li  Li29      1.0  0.37900  0.22400  0.92100  1.0000
  Li  Li30      1.0  0.80300  0.57900  0.95800  1.0000
