data_image0
_chemical_formula_structural       Co16Nb8P12
_chemical_formula_sum              "Co16 Nb8 P12"
_cell_length_a       11.8948
_cell_length_b       11.8948
_cell_length_c       3.59892
_cell_angle_alpha    90
_cell_angle_beta     90
_cell_angle_gamma    120.005

_space_group_name_H-M_alt    "P 1"
_space_group_IT_number       1

loop_
  _space_group_symop_operation_xyz
  'x, y, z'

loop_
  _atom_site_type_symbol
  _atom_site_label
  _atom_site_symmetry_multiplicity
  _atom_site_fract_x
  _atom_site_fract_y
  _atom_site_fract_z
  _atom_site_occupancy
  Co  Co1       1.0  0.00000  0.00000  0.00000  1.0000
  Co  Co2       1.0  0.80900  0.17900  0.00000  1.0000
  Co  Co3       1.0  0.37000  0.19100  0.00000  1.0000
  Co  Co4       1.0  0.19100  0.37000  0.00000  1.0000
  Co  Co5       1.0  0.82100  0.63000  0.00000  1.0000
  Co  Co6       1.0  0.17900  0.80900  0.00000  1.0000
  Co  Co7       1.0  0.63000  0.82100  0.00000  1.0000
  Co  Co8       1.0  0.72500  0.00000  0.50000  1.0000
  Co  Co9       1.0  0.48400  0.13000  0.50000  1.0000
  Co  Co10      1.0  0.27500  0.27500  0.50000  1.0000
  Co  Co11      1.0  0.87000  0.35400  0.50000  1.0000
  Co  Co12      1.0  0.13000  0.48400  0.50000  1.0000
  Co  Co13      1.0  0.64600  0.51600  0.50000  1.0000
  Co  Co14      1.0  0.51600  0.64600  0.50000  1.0000
  Co  Co15      1.0  0.00000  0.72500  0.50000  1.0000
  Co  Co16      1.0  0.35400  0.87000  0.50000  1.0000
  Nb  Nb1       1.0  0.55300  0.00000  0.00000  1.0000
  Nb  Nb2       1.0  0.66700  0.33300  0.00000  1.0000
  Nb  Nb3       1.0  0.44700  0.44700  0.00000  1.0000
  Nb  Nb4       1.0  0.00000  0.55300  0.00000  1.0000
  Nb  Nb5       1.0  0.33300  0.66700  0.00000  1.0000
  Nb  Nb6       1.0  0.17700  0.00000  0.50000  1.0000
  Nb  Nb7       1.0  0.00000  0.17700  0.50000  1.0000
  Nb  Nb8       1.0  0.82300  0.82300  0.50000  1.0000
  P   P1        1.0  0.35100  0.00000  0.00000  1.0000
  P   P2        1.0  0.82500  0.00000  0.00000  1.0000
  P   P3        1.0  0.17500  0.17500  0.00000  1.0000
  P   P4        1.0  0.00000  0.35100  0.00000  1.0000
  P   P5        1.0  0.64900  0.64900  0.00000  1.0000
  P   P6        1.0  0.00000  0.82500  0.00000  1.0000
  P   P7        1.0  0.68800  0.17100  0.50000  1.0000
  P   P8        1.0  0.48300  0.31200  0.50000  1.0000
  P   P9        1.0  0.31200  0.48300  0.50000  1.0000
  P   P10       1.0  0.82900  0.51700  0.50000  1.0000
  P   P11       1.0  0.17100  0.68800  0.50000  1.0000
  P   P12       1.0  0.51700  0.82900  0.50000  1.0000
