data_image0
_chemical_formula_structural       C6Cr2H18O6P6
_chemical_formula_sum              "C6 Cr2 H18 O6 P6"
_cell_length_a       6.70094
_cell_length_b       11.1709
_cell_length_c       6.2894
_cell_angle_alpha    90
_cell_angle_beta     94.186
_cell_angle_gamma    90

_space_group_name_H-M_alt    "P 1"
_space_group_IT_number       1

loop_
  _space_group_symop_operation_xyz
  'x, y, z'

loop_
  _atom_site_type_symbol
  _atom_site_label
  _atom_site_symmetry_multiplicity
  _atom_site_fract_x
  _atom_site_fract_y
  _atom_site_fract_z
  _atom_site_occupancy
  C   C1        1.0  0.64300  0.63400  0.10900  1.0000
  C   C2        1.0  0.64300  0.86600  0.10900  1.0000
  C   C3        1.0  0.98500  0.75000  0.11100  1.0000
  C   C4        1.0  0.01490  0.25000  0.88900  1.0000
  C   C5        1.0  0.35700  0.13400  0.89100  1.0000
  C   C6        1.0  0.35700  0.36600  0.89100  1.0000
  Cr  Cr1       1.0  0.25100  0.25000  0.05890  1.0000
  Cr  Cr2       1.0  0.74900  0.75000  0.94100  1.0000
  H   H1        1.0  0.73200  0.25000  0.17600  1.0000
  H   H2        1.0  0.97700  0.02380  0.19500  1.0000
  H   H3        1.0  0.97700  0.47600  0.19500  1.0000
  H   H4        1.0  0.25300  0.01920  0.38500  1.0000
  H   H5        1.0  0.25300  0.48100  0.38500  1.0000
  H   H6        1.0  0.59600  0.15400  0.42100  1.0000
  H   H7        1.0  0.59600  0.34600  0.42100  1.0000
  H   H8        1.0  0.02390  0.14200  0.45800  1.0000
  H   H9        1.0  0.02390  0.35800  0.45800  1.0000
  H   H10       1.0  0.97600  0.64200  0.54200  1.0000
  H   H11       1.0  0.97600  0.85800  0.54200  1.0000
  H   H12       1.0  0.40400  0.65400  0.57900  1.0000
  H   H13       1.0  0.40400  0.84600  0.57900  1.0000
  H   H14       1.0  0.74700  0.51900  0.61500  1.0000
  H   H15       1.0  0.74700  0.98100  0.61500  1.0000
  H   H16       1.0  0.02350  0.52400  0.80500  1.0000
  H   H17       1.0  0.02350  0.97600  0.80500  1.0000
  H   H18       1.0  0.26800  0.75000  0.82400  1.0000
  O   O1        1.0  0.57700  0.56300  0.22400  1.0000
  O   O2        1.0  0.57700  0.93700  0.22400  1.0000
  O   O3        1.0  0.13400  0.75000  0.22400  1.0000
  O   O4        1.0  0.86600  0.25000  0.77600  1.0000
  O   O5        1.0  0.42300  0.06290  0.77600  1.0000
  O   O6        1.0  0.42300  0.43700  0.77600  1.0000
  P   P1        1.0  0.54900  0.25000  0.27800  1.0000
  P   P2        1.0  0.12500  0.10500  0.27800  1.0000
  P   P3        1.0  0.12500  0.39500  0.27800  1.0000
  P   P4        1.0  0.87500  0.60500  0.72200  1.0000
  P   P5        1.0  0.87500  0.89500  0.72200  1.0000
  P   P6        1.0  0.45100  0.75000  0.72200  1.0000
