data_image0
_chemical_formula_structural       C8Cu3H8Na2O16
_chemical_formula_sum              "C8 Cu3 H8 Na2 O16"
_cell_length_a       7.52391
_cell_length_b       7.6642
_cell_length_c       8.65402
_cell_angle_alpha    113.391
_cell_angle_beta     108.465
_cell_angle_gamma    97.721

_space_group_name_H-M_alt    "P 1"
_space_group_IT_number       1

loop_
  _space_group_symop_operation_xyz
  'x, y, z'

loop_
  _atom_site_type_symbol
  _atom_site_label
  _atom_site_symmetry_multiplicity
  _atom_site_fract_x
  _atom_site_fract_y
  _atom_site_fract_z
  _atom_site_occupancy
  C   C1        1.0  0.14800  0.82500  0.18500  1.0000
  C   C2        1.0  0.25200  0.33500  0.24400  1.0000
  C   C3        1.0  0.74600  0.66400  0.32000  1.0000
  C   C4        1.0  0.68200  0.14200  0.35400  1.0000
  C   C5        1.0  0.31800  0.85800  0.64600  1.0000
  C   C6        1.0  0.25400  0.33600  0.68000  1.0000
  C   C7        1.0  0.74800  0.66500  0.75600  1.0000
  C   C8        1.0  0.85200  0.17500  0.81500  1.0000
  Cu  Cu1       1.0  0.88900  0.03920  0.08770  1.0000
  Cu  Cu2       1.0  0.00000  0.50000  0.50000  1.0000
  Cu  Cu3       1.0  0.11100  0.96100  0.91200  1.0000
  H   H1        1.0  0.20600  0.74400  0.26100  1.0000
  H   H2        1.0  0.36000  0.48300  0.34600  1.0000
  H   H3        1.0  0.56300  0.07420  0.38100  1.0000
  H   H4        1.0  0.86700  0.80300  0.41900  1.0000
  H   H5        1.0  0.13300  0.19700  0.58100  1.0000
  H   H6        1.0  0.43700  0.92600  0.61900  1.0000
  H   H7        1.0  0.64000  0.51700  0.65400  1.0000
  H   H8        1.0  0.79400  0.25600  0.73900  1.0000
  Na  Na1       1.0  0.53700  0.26400  0.01540  1.0000
  Na  Na2       1.0  0.46300  0.73600  0.98500  1.0000
  O   O1        1.0  0.21500  0.82900  0.06880  1.0000
  O   O2        1.0  0.29400  0.22700  0.11500  1.0000
  O   O3        1.0  0.66600  0.06890  0.19000  1.0000
  O   O4        1.0  0.58400  0.66200  0.21900  1.0000
  O   O5        1.0  0.02060  0.90300  0.22500  1.0000
  O   O6        1.0  0.09820  0.29200  0.26800  1.0000
  O   O7        1.0  0.77700  0.49900  0.31400  1.0000
  O   O8        1.0  0.82100  0.28500  0.49800  1.0000
  O   O9        1.0  0.17900  0.71500  0.50200  1.0000
  O   O10       1.0  0.22300  0.50100  0.68600  1.0000
  O   O11       1.0  0.90200  0.70800  0.73200  1.0000
  O   O12       1.0  0.97900  0.09710  0.77500  1.0000
  O   O13       1.0  0.41600  0.33800  0.78100  1.0000
  O   O14       1.0  0.33400  0.93100  0.81000  1.0000
  O   O15       1.0  0.70600  0.77300  0.88500  1.0000
  O   O16       1.0  0.78500  0.17100  0.93100  1.0000
