data_image0
_chemical_formula_structural       Ge16V12Zr8
_chemical_formula_sum              "Ge16 V12 Zr8"
_cell_length_a       6.66353
_cell_length_b       12.7983
_cell_length_c       6.77507
_cell_angle_alpha    90
_cell_angle_beta     90
_cell_angle_gamma    90

_space_group_name_H-M_alt    "P 1"
_space_group_IT_number       1

loop_
  _space_group_symop_operation_xyz
  'x, y, z'

loop_
  _atom_site_type_symbol
  _atom_site_label
  _atom_site_symmetry_multiplicity
  _atom_site_fract_x
  _atom_site_fract_y
  _atom_site_fract_z
  _atom_site_occupancy
  Ge  Ge1       1.0  0.32300  0.54300  0.04670  1.0000
  Ge  Ge2       1.0  0.32300  0.95700  0.04670  1.0000
  Ge  Ge3       1.0  0.96700  0.75000  0.12800  1.0000
  Ge  Ge4       1.0  0.30900  0.25000  0.14200  1.0000
  Ge  Ge5       1.0  0.80900  0.25000  0.35800  1.0000
  Ge  Ge6       1.0  0.46700  0.75000  0.37200  1.0000
  Ge  Ge7       1.0  0.82300  0.54300  0.45300  1.0000
  Ge  Ge8       1.0  0.82300  0.95700  0.45300  1.0000
  Ge  Ge9       1.0  0.17700  0.04310  0.54700  1.0000
  Ge  Ge10      1.0  0.17700  0.45700  0.54700  1.0000
  Ge  Ge11      1.0  0.53300  0.25000  0.62800  1.0000
  Ge  Ge12      1.0  0.19100  0.75000  0.64200  1.0000
  Ge  Ge13      1.0  0.69100  0.75000  0.85800  1.0000
  Ge  Ge14      1.0  0.03350  0.25000  0.87200  1.0000
  Ge  Ge15      1.0  0.67700  0.04310  0.95300  1.0000
  Ge  Ge16      1.0  0.67700  0.45700  0.95300  1.0000
  V   V1        1.0  0.33700  0.75000  0.01020  1.0000
  V   V2        1.0  0.66000  0.62500  0.16200  1.0000
  V   V3        1.0  0.66000  0.87500  0.16200  1.0000
  V   V4        1.0  0.16000  0.62500  0.33800  1.0000
  V   V5        1.0  0.16000  0.87500  0.33800  1.0000
  V   V6        1.0  0.83700  0.75000  0.49000  1.0000
  V   V7        1.0  0.16300  0.25000  0.51000  1.0000
  V   V8        1.0  0.84000  0.12500  0.66200  1.0000
  V   V9        1.0  0.84000  0.37500  0.66200  1.0000
  V   V10       1.0  0.34000  0.12500  0.83800  1.0000
  V   V11       1.0  0.34000  0.37500  0.83800  1.0000
  V   V12       1.0  0.66300  0.25000  0.99000  1.0000
  Zr  Zr1       1.0  0.01110  0.09240  0.17200  1.0000
  Zr  Zr2       1.0  0.01110  0.40800  0.17200  1.0000
  Zr  Zr3       1.0  0.51100  0.09240  0.32800  1.0000
  Zr  Zr4       1.0  0.51100  0.40800  0.32800  1.0000
  Zr  Zr5       1.0  0.48900  0.59200  0.67200  1.0000
  Zr  Zr6       1.0  0.48900  0.90800  0.67200  1.0000
  Zr  Zr7       1.0  0.98900  0.59200  0.82800  1.0000
  Zr  Zr8       1.0  0.98900  0.90800  0.82800  1.0000
