data_image0
_chemical_formula_structural       Cu2Na4O24P8
_chemical_formula_sum              "Cu2 Na4 O24 P8"
_cell_length_a       7.69109
_cell_length_b       8.03219
_cell_length_c       8.03219
_cell_angle_alpha    108.69
_cell_angle_beta     93.2014
_cell_angle_gamma    93.2014

_space_group_name_H-M_alt    "P 1"
_space_group_IT_number       1

loop_
  _space_group_symop_operation_xyz
  'x, y, z'

loop_
  _atom_site_type_symbol
  _atom_site_label
  _atom_site_symmetry_multiplicity
  _atom_site_fract_x
  _atom_site_fract_y
  _atom_site_fract_z
  _atom_site_occupancy
  Cu  Cu1       1.0  0.25000  0.86100  0.13900  1.0000
  Cu  Cu2       1.0  0.75000  0.13900  0.86100  1.0000
  Na  Na1       1.0  0.80400  0.46600  0.18200  1.0000
  Na  Na2       1.0  0.30400  0.18200  0.46600  1.0000
  Na  Na3       1.0  0.69600  0.81800  0.53400  1.0000
  Na  Na4       1.0  0.19600  0.53400  0.81800  1.0000
  O   O1        1.0  0.02730  0.31800  0.03840  1.0000
  O   O2        1.0  0.64700  0.15500  0.07840  1.0000
  O   O3        1.0  0.32000  0.62300  0.10300  1.0000
  O   O4        1.0  0.75000  0.87300  0.12700  1.0000
  O   O5        1.0  0.14700  0.07840  0.15500  1.0000
  O   O6        1.0  0.34200  0.33900  0.17200  1.0000
  O   O7        1.0  0.52700  0.03840  0.31800  1.0000
  O   O8        1.0  0.56400  0.58500  0.32000  1.0000
  O   O9        1.0  0.84200  0.17200  0.33900  1.0000
  O   O10       1.0  0.18000  0.89700  0.37700  1.0000
  O   O11       1.0  0.25000  0.59900  0.40100  1.0000
  O   O12       1.0  0.93600  0.68000  0.41500  1.0000
  O   O13       1.0  0.06440  0.32000  0.58500  1.0000
  O   O14       1.0  0.75000  0.40100  0.59900  1.0000
  O   O15       1.0  0.82000  0.10300  0.62300  1.0000
  O   O16       1.0  0.15800  0.82800  0.66100  1.0000
  O   O17       1.0  0.43600  0.41500  0.68000  1.0000
  O   O18       1.0  0.47300  0.96200  0.68200  1.0000
  O   O19       1.0  0.65800  0.66100  0.82800  1.0000
  O   O20       1.0  0.85300  0.92200  0.84500  1.0000
  O   O21       1.0  0.25000  0.12700  0.87300  1.0000
  O   O22       1.0  0.68000  0.37700  0.89700  1.0000
  O   O23       1.0  0.35300  0.84500  0.92200  1.0000
  O   O24       1.0  0.97300  0.68200  0.96200  1.0000
  P   P1        1.0  0.17400  0.21300  0.06200  1.0000
  P   P2        1.0  0.67400  0.06200  0.21300  1.0000
  P   P3        1.0  0.38000  0.54800  0.24500  1.0000
  P   P4        1.0  0.12000  0.75500  0.45200  1.0000
  P   P5        1.0  0.88000  0.24500  0.54800  1.0000
  P   P6        1.0  0.62000  0.45200  0.75500  1.0000
  P   P7        1.0  0.32600  0.93800  0.78700  1.0000
  P   P8        1.0  0.82600  0.78700  0.93800  1.0000
