data_image0
_chemical_formula_structural       B4Cu8Fe4O20
_chemical_formula_sum              "B4 Cu8 Fe4 O20"
_cell_length_a       3.05203
_cell_length_b       12.0494
_cell_length_c       9.45423
_cell_angle_alpha    90
_cell_angle_beta     95.8569
_cell_angle_gamma    90

_space_group_name_H-M_alt    "P 1"
_space_group_IT_number       1

loop_
  _space_group_symop_operation_xyz
  'x, y, z'

loop_
  _atom_site_type_symbol
  _atom_site_label
  _atom_site_symmetry_multiplicity
  _atom_site_fract_x
  _atom_site_fract_y
  _atom_site_fract_z
  _atom_site_occupancy
  B   B1        1.0  0.95600  0.13500  0.23500  1.0000
  B   B2        1.0  0.04420  0.63500  0.26500  1.0000
  B   B3        1.0  0.95600  0.36500  0.73500  1.0000
  B   B4        1.0  0.04420  0.86500  0.76500  1.0000
  Cu  Cu1       1.0  0.50000  0.00000  0.00000  1.0000
  Cu  Cu2       1.0  0.00000  0.50000  0.00000  1.0000
  Cu  Cu3       1.0  0.45400  0.28000  0.00873  1.0000
  Cu  Cu4       1.0  0.54600  0.78000  0.49100  1.0000
  Cu  Cu5       1.0  0.50000  0.50000  0.50000  1.0000
  Cu  Cu6       1.0  0.00000  0.00000  0.50000  1.0000
  Cu  Cu7       1.0  0.45400  0.22000  0.50900  1.0000
  Cu  Cu8       1.0  0.54600  0.72000  0.99100  1.0000
  Fe  Fe1       1.0  0.05120  0.88200  0.23400  1.0000
  Fe  Fe2       1.0  0.94900  0.38200  0.26600  1.0000
  Fe  Fe3       1.0  0.05120  0.61800  0.73400  1.0000
  Fe  Fe4       1.0  0.94900  0.11800  0.76600  1.0000
  O   O1        1.0  0.51200  0.85400  0.09880  1.0000
  O   O2        1.0  0.97700  0.63300  0.11900  1.0000
  O   O3        1.0  0.41700  0.41500  0.12700  1.0000
  O   O4        1.0  0.95700  0.03830  0.15600  1.0000
  O   O5        1.0  0.89200  0.23500  0.16600  1.0000
  O   O6        1.0  0.10800  0.73500  0.33400  1.0000
  O   O7        1.0  0.04340  0.53800  0.34400  1.0000
  O   O8        1.0  0.58300  0.91500  0.37300  1.0000
  O   O9        1.0  0.02300  0.13300  0.38100  1.0000
  O   O10       1.0  0.48800  0.35400  0.40100  1.0000
  O   O11       1.0  0.51200  0.64600  0.59900  1.0000
  O   O12       1.0  0.97700  0.86700  0.61900  1.0000
  O   O13       1.0  0.41700  0.08500  0.62700  1.0000
  O   O14       1.0  0.95700  0.46200  0.65600  1.0000
  O   O15       1.0  0.89200  0.26500  0.66600  1.0000
  O   O16       1.0  0.10800  0.76500  0.83400  1.0000
  O   O17       1.0  0.04340  0.96200  0.84400  1.0000
  O   O18       1.0  0.58300  0.58500  0.87300  1.0000
  O   O19       1.0  0.02300  0.36700  0.88100  1.0000
  O   O20       1.0  0.48800  0.14600  0.90100  1.0000
