data_image0
_chemical_formula_structural       Cr7O24P6
_chemical_formula_sum              "Cr7 O24 P6"
_cell_length_a       9.34658
_cell_length_b       8.03995
_cell_length_c       6.28086
_cell_angle_alpha    100.853
_cell_angle_beta     108.551
_cell_angle_gamma    107.173

_space_group_name_H-M_alt    "P 1"
_space_group_IT_number       1

loop_
  _space_group_symop_operation_xyz
  'x, y, z'

loop_
  _atom_site_type_symbol
  _atom_site_label
  _atom_site_symmetry_multiplicity
  _atom_site_fract_x
  _atom_site_fract_y
  _atom_site_fract_z
  _atom_site_occupancy
  Cr  Cr1       1.0  0.50000  0.50000  0.00000  1.0000
  Cr  Cr2       1.0  0.02590  0.21200  0.05060  1.0000
  Cr  Cr3       1.0  0.80400  0.32800  0.28900  1.0000
  Cr  Cr4       1.0  0.61000  0.96200  0.37900  1.0000
  Cr  Cr5       1.0  0.39000  0.03750  0.62100  1.0000
  Cr  Cr6       1.0  0.19600  0.67200  0.71100  1.0000
  Cr  Cr7       1.0  0.97400  0.78800  0.94900  1.0000
  O   O1        1.0  0.14300  0.67200  0.00542  1.0000
  O   O2        1.0  0.15500  0.04900  0.07670  1.0000
  O   O3        1.0  0.66000  0.02760  0.11500  1.0000
  O   O4        1.0  0.42300  0.29800  0.13700  1.0000
  O   O5        1.0  0.21000  0.44500  0.21300  1.0000
  O   O6        1.0  0.43500  0.71000  0.22200  1.0000
  O   O7        1.0  0.96500  0.79800  0.25100  1.0000
  O   O8        1.0  0.73300  0.54500  0.26800  1.0000
  O   O9        1.0  0.41900  0.04250  0.31900  1.0000
  O   O10       1.0  0.00794  0.24600  0.36600  1.0000
  O   O11       1.0  0.78100  0.87200  0.44700  1.0000
  O   O12       1.0  0.25900  0.75800  0.45400  1.0000
  O   O13       1.0  0.74100  0.24200  0.54600  1.0000
  O   O14       1.0  0.21900  0.12800  0.55300  1.0000
  O   O15       1.0  0.99200  0.75400  0.63400  1.0000
  O   O16       1.0  0.58100  0.95800  0.68100  1.0000
  O   O17       1.0  0.26700  0.45500  0.73200  1.0000
  O   O18       1.0  0.03500  0.20200  0.74900  1.0000
  O   O19       1.0  0.56500  0.29000  0.77800  1.0000
  O   O20       1.0  0.79000  0.55500  0.78700  1.0000
  O   O21       1.0  0.57700  0.70200  0.86300  1.0000
  O   O22       1.0  0.34000  0.97200  0.88500  1.0000
  O   O23       1.0  0.84500  0.95100  0.92300  1.0000
  O   O24       1.0  0.85700  0.32800  0.99500  1.0000
  P   P1        1.0  0.33600  0.09990  0.10000  1.0000
  P   P2        1.0  0.26200  0.64400  0.22500  1.0000
  P   P3        1.0  0.86500  0.74400  0.39400  1.0000
  P   P4        1.0  0.13500  0.25600  0.60600  1.0000
  P   P5        1.0  0.73800  0.35600  0.77500  1.0000
  P   P6        1.0  0.66400  0.90000  0.90000  1.0000
