data_image0
_chemical_formula_structural       Nd2Zn17
_chemical_formula_sum              "Nd2 Zn17"
_cell_length_a       6.81606
_cell_length_b       6.81606
_cell_length_c       6.81606
_cell_angle_alpha    97.1313
_cell_angle_beta     82.8687
_cell_angle_gamma    97.1313

_space_group_name_H-M_alt    "P 1"
_space_group_IT_number       1

loop_
  _space_group_symop_operation_xyz
  'x, y, z'

loop_
  _atom_site_type_symbol
  _atom_site_label
  _atom_site_symmetry_multiplicity
  _atom_site_fract_x
  _atom_site_fract_y
  _atom_site_fract_z
  _atom_site_occupancy
  Nd  Nd1       1.0  0.33600  0.66400  0.33600  1.0000
  Nd  Nd2       1.0  0.66400  0.33600  0.66400  1.0000
  Zn  Zn1       1.0  0.70600  0.70600  0.00000  1.0000
  Zn  Zn2       1.0  0.00000  0.50000  0.00000  1.0000
  Zn  Zn3       1.0  0.29400  0.29400  0.00000  1.0000
  Zn  Zn4       1.0  0.50000  0.00000  0.00000  1.0000
  Zn  Zn5       1.0  0.09930  0.90100  0.09930  1.0000
  Zn  Zn6       1.0  0.65000  0.35000  0.16100  1.0000
  Zn  Zn7       1.0  0.00000  0.29400  0.29400  1.0000
  Zn  Zn8       1.0  0.70600  0.00000  0.29400  1.0000
  Zn  Zn9       1.0  0.35000  0.16100  0.35000  1.0000
  Zn  Zn10      1.0  0.83900  0.65000  0.35000  1.0000
  Zn  Zn11      1.0  1.00000  0.00000  0.50000  1.0000
  Zn  Zn12      1.0  0.65000  0.83900  0.65000  1.0000
  Zn  Zn13      1.0  0.16100  0.35000  0.65000  1.0000
  Zn  Zn14      1.0  0.29400  0.00000  0.70600  1.0000
  Zn  Zn15      1.0  1.00000  0.70600  0.70600  1.0000
  Zn  Zn16      1.0  0.35000  0.65000  0.83900  1.0000
  Zn  Zn17      1.0  0.90100  0.09930  0.90100  1.0000
