data_image0
_chemical_formula_structural       Cr4Mg3O24P6
_chemical_formula_sum              "Cr4 Mg3 O24 P6"
_cell_length_a       9.24655
_cell_length_b       7.84508
_cell_length_c       6.27119
_cell_angle_alpha    101.615
_cell_angle_beta     108.477
_cell_angle_gamma    105.203

_space_group_name_H-M_alt    "P 1"
_space_group_IT_number       1

loop_
  _space_group_symop_operation_xyz
  'x, y, z'

loop_
  _atom_site_type_symbol
  _atom_site_label
  _atom_site_symmetry_multiplicity
  _atom_site_fract_x
  _atom_site_fract_y
  _atom_site_fract_z
  _atom_site_occupancy
  Cr  Cr1       1.0  0.02230  0.21600  0.05260  1.0000
  Cr  Cr2       1.0  0.61100  0.95900  0.38000  1.0000
  Cr  Cr3       1.0  0.38900  0.04150  0.62000  1.0000
  Cr  Cr4       1.0  0.97800  0.78400  0.94700  1.0000
  Mg  Mg1       1.0  0.50000  0.50000  0.00000  1.0000
  Mg  Mg2       1.0  0.79000  0.31300  0.28600  1.0000
  Mg  Mg3       1.0  0.21000  0.68700  0.71400  1.0000
  O   O1        1.0  0.15900  0.68500  0.00804  1.0000
  O   O2        1.0  0.15500  0.04880  0.07080  1.0000
  O   O3        1.0  0.42000  0.29300  0.11800  1.0000
  O   O4        1.0  0.66000  0.03900  0.12000  1.0000
  O   O5        1.0  0.20700  0.44400  0.21300  1.0000
  O   O6        1.0  0.44300  0.69700  0.22300  1.0000
  O   O7        1.0  0.96800  0.78600  0.24800  1.0000
  O   O8        1.0  0.73400  0.53700  0.26600  1.0000
  O   O9        1.0  0.41900  0.04180  0.31700  1.0000
  O   O10       1.0  0.00437  0.26800  0.37400  1.0000
  O   O11       1.0  0.79100  0.87500  0.45500  1.0000
  O   O12       1.0  0.26900  0.76300  0.45800  1.0000
  O   O13       1.0  0.73100  0.23700  0.54200  1.0000
  O   O14       1.0  0.20900  0.12500  0.54500  1.0000
  O   O15       1.0  0.99600  0.73200  0.62600  1.0000
  O   O16       1.0  0.58100  0.95800  0.68300  1.0000
  O   O17       1.0  0.26600  0.46300  0.73400  1.0000
  O   O18       1.0  0.03180  0.21400  0.75200  1.0000
  O   O19       1.0  0.55700  0.30300  0.77700  1.0000
  O   O20       1.0  0.79300  0.55600  0.78700  1.0000
  O   O21       1.0  0.34000  0.96100  0.88000  1.0000
  O   O22       1.0  0.58000  0.70700  0.88200  1.0000
  O   O23       1.0  0.84500  0.95100  0.92900  1.0000
  O   O24       1.0  0.84100  0.31500  0.99200  1.0000
  P   P1        1.0  0.33500  0.09720  0.09440  1.0000
  P   P2        1.0  0.26800  0.64600  0.22500  1.0000
  P   P3        1.0  0.86800  0.73300  0.39000  1.0000
  P   P4        1.0  0.13200  0.26700  0.61000  1.0000
  P   P5        1.0  0.73200  0.35400  0.77500  1.0000
  P   P6        1.0  0.66500  0.90300  0.90600  1.0000
