data_image0
_chemical_formula_structural       Cs2Mo4O26P6
_chemical_formula_sum              "Cs2 Mo4 O26 P6"
_cell_length_a       7.28736
_cell_length_b       8.39448
_cell_length_c       9.01651
_cell_angle_alpha    90
_cell_angle_beta     102.234
_cell_angle_gamma    90

_space_group_name_H-M_alt    "P 1"
_space_group_IT_number       1

loop_
  _space_group_symop_operation_xyz
  'x, y, z'

loop_
  _atom_site_type_symbol
  _atom_site_label
  _atom_site_symmetry_multiplicity
  _atom_site_fract_x
  _atom_site_fract_y
  _atom_site_fract_z
  _atom_site_occupancy
  Cs  Cs1       1.0  0.50000  0.76500  0.25000  1.0000
  Cs  Cs2       1.0  0.50000  0.23500  0.75000  1.0000
  Mo  Mo1       1.0  0.23300  0.23200  0.07300  1.0000
  Mo  Mo2       1.0  0.76700  0.23200  0.42700  1.0000
  Mo  Mo3       1.0  0.23300  0.76800  0.57300  1.0000
  Mo  Mo4       1.0  0.76700  0.76800  0.92700  1.0000
  O   O1        1.0  0.71800  0.56000  0.03170  1.0000
  O   O2        1.0  0.94000  0.32400  0.04620  1.0000
  O   O3        1.0  0.44900  0.15000  0.08630  1.0000
  O   O4        1.0  0.86700  0.84600  0.13800  1.0000
  O   O5        1.0  0.12500  0.05000  0.16800  1.0000
  O   O6        1.0  0.71900  0.35900  0.23100  1.0000
  O   O7        1.0  0.00000  0.53700  0.25000  1.0000
  O   O8        1.0  0.28100  0.35900  0.26900  1.0000
  O   O9        1.0  0.87500  0.05000  0.33200  1.0000
  O   O10       1.0  0.13300  0.84600  0.36200  1.0000
  O   O11       1.0  0.55100  0.15000  0.41400  1.0000
  O   O12       1.0  0.06020  0.32400  0.45400  1.0000
  O   O13       1.0  0.28200  0.56000  0.46800  1.0000
  O   O14       1.0  0.71800  0.44000  0.53200  1.0000
  O   O15       1.0  0.94000  0.67600  0.54600  1.0000
  O   O16       1.0  0.44900  0.85000  0.58600  1.0000
  O   O17       1.0  0.86700  0.15400  0.63800  1.0000
  O   O18       1.0  0.12500  0.95000  0.66800  1.0000
  O   O19       1.0  0.71900  0.64100  0.73100  1.0000
  O   O20       1.0  0.00000  0.46300  0.75000  1.0000
  O   O21       1.0  0.28100  0.64100  0.76900  1.0000
  O   O22       1.0  0.87500  0.95000  0.83200  1.0000
  O   O23       1.0  0.13300  0.15400  0.86200  1.0000
  O   O24       1.0  0.55100  0.85000  0.91400  1.0000
  O   O25       1.0  0.06020  0.67600  0.95400  1.0000
  O   O26       1.0  0.28200  0.44000  0.96800  1.0000
  P   P1        1.0  0.84100  0.43800  0.13300  1.0000
  P   P2        1.0  0.00000  0.95300  0.25000  1.0000
  P   P3        1.0  0.15900  0.43800  0.36700  1.0000
  P   P4        1.0  0.84100  0.56200  0.63300  1.0000
  P   P5        1.0  0.00000  0.04740  0.75000  1.0000
  P   P6        1.0  0.15900  0.56200  0.86700  1.0000
