data_image0
_chemical_formula_structural       Cu2H8Na4O20S4
_chemical_formula_sum              "Cu2 H8 Na4 O20 S4"
_cell_length_a       5.72403
_cell_length_b       12.4738
_cell_length_c       5.48263
_cell_angle_alpha    90
_cell_angle_beta     108.521
_cell_angle_gamma    90

_space_group_name_H-M_alt    "P 1"
_space_group_IT_number       1

loop_
  _space_group_symop_operation_xyz
  'x, y, z'

loop_
  _atom_site_type_symbol
  _atom_site_label
  _atom_site_symmetry_multiplicity
  _atom_site_fract_x
  _atom_site_fract_y
  _atom_site_fract_z
  _atom_site_occupancy
  Cu  Cu1       1.0  0.00000  0.00000  0.00000  1.0000
  Cu  Cu2       1.0  0.00000  0.50000  0.50000  1.0000
  H   H1        1.0  0.06740  0.79700  0.01620  1.0000
  H   H2        1.0  0.29700  0.85300  0.21800  1.0000
  H   H3        1.0  0.70300  0.35300  0.28200  1.0000
  H   H4        1.0  0.93300  0.29700  0.48400  1.0000
  H   H5        1.0  0.06740  0.70300  0.51600  1.0000
  H   H6        1.0  0.29700  0.64700  0.71800  1.0000
  H   H7        1.0  0.70300  0.14700  0.78200  1.0000
  H   H8        1.0  0.93300  0.20300  0.98400  1.0000
  Na  Na1       1.0  0.57400  0.12300  0.21300  1.0000
  Na  Na2       1.0  0.42600  0.62300  0.28700  1.0000
  Na  Na3       1.0  0.57400  0.37700  0.71300  1.0000
  Na  Na4       1.0  0.42600  0.87700  0.78700  1.0000
  O   O1        1.0  0.99900  0.67400  0.01250  1.0000
  O   O2        1.0  0.17100  0.86400  0.04530  1.0000
  O   O3        1.0  0.44400  0.30300  0.06280  1.0000
  O   O4        1.0  0.75900  0.54100  0.16100  1.0000
  O   O5        1.0  0.70200  0.94000  0.20500  1.0000
  O   O6        1.0  0.29800  0.44000  0.29500  1.0000
  O   O7        1.0  0.24100  0.04060  0.33900  1.0000
  O   O8        1.0  0.55600  0.80300  0.43700  1.0000
  O   O9        1.0  0.82900  0.36400  0.45500  1.0000
  O   O10       1.0  0.00126  0.17400  0.48700  1.0000
  O   O11       1.0  0.99900  0.82600  0.51300  1.0000
  O   O12       1.0  0.17100  0.63600  0.54500  1.0000
  O   O13       1.0  0.44400  0.19700  0.56300  1.0000
  O   O14       1.0  0.75900  0.95900  0.66100  1.0000
  O   O15       1.0  0.70200  0.56000  0.70500  1.0000
  O   O16       1.0  0.29800  0.05970  0.79500  1.0000
  O   O17       1.0  0.24100  0.45900  0.83900  1.0000
  O   O18       1.0  0.55600  0.69700  0.93700  1.0000
  O   O19       1.0  0.82900  0.13600  0.95500  1.0000
  O   O20       1.0  0.00126  0.32600  0.98700  1.0000
  S   S1        1.0  0.24200  0.38100  0.04980  1.0000
  S   S2        1.0  0.75800  0.88100  0.45000  1.0000
  S   S3        1.0  0.24200  0.11900  0.55000  1.0000
  S   S4        1.0  0.75800  0.61900  0.95000  1.0000
