data_image0
_chemical_formula_structural       Al24Er4Pt9
_chemical_formula_sum              "Al24 Er4 Pt9"
_cell_length_a       7.51542
_cell_length_b       7.51704
_cell_length_c       13.1387
_cell_angle_alpha    100.954
_cell_angle_beta     95.4679
_cell_angle_gamma    60.1112

_space_group_name_H-M_alt    "P 1"
_space_group_IT_number       1

loop_
  _space_group_symop_operation_xyz
  'x, y, z'

loop_
  _atom_site_type_symbol
  _atom_site_label
  _atom_site_symmetry_multiplicity
  _atom_site_fract_x
  _atom_site_fract_y
  _atom_site_fract_z
  _atom_site_occupancy
  Al  Al1       1.0  0.33200  0.68400  0.04760  1.0000
  Al  Al2       1.0  0.66600  0.01780  0.05620  1.0000
  Al  Al3       1.0  0.00127  0.35200  0.05630  1.0000
  Al  Al4       1.0  0.66400  0.60200  0.18300  1.0000
  Al  Al5       1.0  0.45800  0.39700  0.18400  1.0000
  Al  Al6       1.0  0.86900  0.19200  0.18400  1.0000
  Al  Al7       1.0  0.99400  0.44400  0.32900  1.0000
  Al  Al8       1.0  0.66500  0.11700  0.32900  1.0000
  Al  Al9       1.0  0.34000  0.77000  0.33000  1.0000
  Al  Al10      1.0  0.66700  0.47900  0.43800  1.0000
  Al  Al11      1.0  0.33300  0.14700  0.44100  1.0000
  Al  Al12      1.0  0.99900  0.81400  0.44100  1.0000
  Al  Al13      1.0  0.00061  0.18600  0.55900  1.0000
  Al  Al14      1.0  0.66700  0.85300  0.55900  1.0000
  Al  Al15      1.0  0.33300  0.52100  0.56200  1.0000
  Al  Al16      1.0  0.66000  0.23000  0.67000  1.0000
  Al  Al17      1.0  0.33500  0.88300  0.67100  1.0000
  Al  Al18      1.0  0.00627  0.55600  0.67100  1.0000
  Al  Al19      1.0  0.13100  0.80800  0.81600  1.0000
  Al  Al20      1.0  0.54200  0.60300  0.81600  1.0000
  Al  Al21      1.0  0.33600  0.39800  0.81700  1.0000
  Al  Al22      1.0  0.99900  0.64800  0.94400  1.0000
  Al  Al23      1.0  0.33400  0.98200  0.94400  1.0000
  Al  Al24      1.0  0.66800  0.31600  0.95200  1.0000
  Er  Er1       1.0  0.33200  0.06210  0.19200  1.0000
  Er  Er2       1.0  0.00107  0.73300  0.19200  1.0000
  Er  Er3       1.0  0.99900  0.26700  0.80800  1.0000
  Er  Er4       1.0  0.66800  0.93800  0.80800  1.0000
  Pt  Pt1       1.0  0.00000  0.00000  0.00000  1.0000
  Pt  Pt2       1.0  0.32900  0.32800  0.00000  1.0000
  Pt  Pt3       1.0  0.67100  0.67200  0.00000  1.0000
  Pt  Pt4       1.0  0.00855  0.11200  0.36100  1.0000
  Pt  Pt5       1.0  0.66700  0.79600  0.36100  1.0000
  Pt  Pt6       1.0  0.32500  0.45400  0.36300  1.0000
  Pt  Pt7       1.0  0.67500  0.54600  0.63700  1.0000
  Pt  Pt8       1.0  0.33300  0.20400  0.63900  1.0000
  Pt  Pt9       1.0  0.99100  0.88800  0.63900  1.0000
