data_image0
_chemical_formula_structural       K4Nb2O23Si8
_chemical_formula_sum              "K4 Nb2 O23 Si8"
_cell_length_a       6.73054
_cell_length_b       10.9655
_cell_length_c       7.66887
_cell_angle_alpha    76.0888
_cell_angle_beta     72.6728
_cell_angle_gamma    89.2623

_space_group_name_H-M_alt    "P 1"
_space_group_IT_number       1

loop_
  _space_group_symop_operation_xyz
  'x, y, z'

loop_
  _atom_site_type_symbol
  _atom_site_label
  _atom_site_symmetry_multiplicity
  _atom_site_fract_x
  _atom_site_fract_y
  _atom_site_fract_z
  _atom_site_occupancy
  K   K1        1.0  0.73100  0.52200  0.23000  1.0000
  K   K2        1.0  0.66400  0.85500  0.31100  1.0000
  K   K3        1.0  0.33600  0.14500  0.68900  1.0000
  K   K4        1.0  0.26900  0.47800  0.77000  1.0000
  Nb  Nb1       1.0  0.22000  0.68500  0.27700  1.0000
  Nb  Nb2       1.0  0.78000  0.31500  0.72300  1.0000
  O   O1        1.0  0.45800  0.74900  0.03200  1.0000
  O   O2        1.0  0.99200  0.74500  0.12000  1.0000
  O   O3        1.0  0.09480  0.06930  0.13100  1.0000
  O   O4        1.0  0.09240  0.30400  0.17500  1.0000
  O   O5        1.0  0.19600  0.52600  0.18900  1.0000
  O   O6        1.0  0.74200  0.18300  0.23500  1.0000
  O   O7        1.0  0.42200  0.32700  0.28700  1.0000
  O   O8        1.0  0.24900  0.86300  0.29800  1.0000
  O   O9        1.0  0.38100  0.08310  0.30800  1.0000
  O   O10       1.0  0.39100  0.62400  0.41300  1.0000
  O   O11       1.0  0.94900  0.65000  0.48500  1.0000
  O   O12       1.0  0.00000  0.00000  0.50000  1.0000
  O   O13       1.0  0.05090  0.35000  0.51500  1.0000
  O   O14       1.0  0.60900  0.37600  0.58700  1.0000
  O   O15       1.0  0.61900  0.91700  0.69200  1.0000
  O   O16       1.0  0.75100  0.13700  0.70200  1.0000
  O   O17       1.0  0.57800  0.67300  0.71300  1.0000
  O   O18       1.0  0.25800  0.81700  0.76500  1.0000
  O   O19       1.0  0.80400  0.47400  0.81100  1.0000
  O   O20       1.0  0.90800  0.69600  0.82500  1.0000
  O   O21       1.0  0.90500  0.93100  0.86900  1.0000
  O   O22       1.0  0.00792  0.25500  0.88000  1.0000
  O   O23       1.0  0.54200  0.25100  0.96800  1.0000
  Si  Si1       1.0  0.98400  0.20500  0.09770  1.0000
  Si  Si2       1.0  0.52300  0.21400  0.18800  1.0000
  Si  Si3       1.0  0.18700  0.37900  0.29600  1.0000
  Si  Si4       1.0  0.18000  0.00119  0.30700  1.0000
  Si  Si5       1.0  0.82000  0.99900  0.69300  1.0000
  Si  Si6       1.0  0.81300  0.62100  0.70400  1.0000
  Si  Si7       1.0  0.47700  0.78600  0.81200  1.0000
  Si  Si8       1.0  0.01570  0.79500  0.90200  1.0000
