data_image0
_chemical_formula_structural       Cu2Fe5O24P6
_chemical_formula_sum              "Cu2 Fe5 O24 P6"
_cell_length_a       7.92083
_cell_length_b       9.2856
_cell_length_c       6.25752
_cell_angle_alpha    107.803
_cell_angle_beta     101.129
_cell_angle_gamma    105.613

_space_group_name_H-M_alt    "P 1"
_space_group_IT_number       1

loop_
  _space_group_symop_operation_xyz
  'x, y, z'

loop_
  _atom_site_type_symbol
  _atom_site_label
  _atom_site_symmetry_multiplicity
  _atom_site_fract_x
  _atom_site_fract_y
  _atom_site_fract_z
  _atom_site_occupancy
  Cu  Cu1       1.0  0.80800  0.27200  0.26200  1.0000
  Cu  Cu2       1.0  0.19200  0.72800  0.73800  1.0000
  Fe  Fe1       1.0  0.00000  0.00000  0.00000  1.0000
  Fe  Fe2       1.0  0.72000  0.52300  0.04870  1.0000
  Fe  Fe3       1.0  0.45400  0.11800  0.38500  1.0000
  Fe  Fe4       1.0  0.54600  0.88200  0.61500  1.0000
  Fe  Fe5       1.0  0.28000  0.47700  0.95100  1.0000
  O   O1        1.0  0.18700  0.66700  0.01790  1.0000
  O   O2        1.0  0.55000  0.65400  0.06930  1.0000
  O   O3        1.0  0.53500  0.16100  0.12300  1.0000
  O   O4        1.0  0.79000  0.92300  0.12300  1.0000
  O   O5        1.0  0.94200  0.70900  0.21200  1.0000
  O   O6        1.0  0.19800  0.94800  0.23700  1.0000
  O   O7        1.0  0.27700  0.47000  0.24800  1.0000
  O   O8        1.0  0.03800  0.23900  0.28000  1.0000
  O   O9        1.0  0.53400  0.91500  0.31200  1.0000
  O   O10       1.0  0.75800  0.50100  0.36200  1.0000
  O   O11       1.0  0.36800  0.29000  0.44600  1.0000
  O   O12       1.0  0.25900  0.77100  0.46600  1.0000
  O   O13       1.0  0.74100  0.22900  0.53400  1.0000
  O   O14       1.0  0.63200  0.71000  0.55400  1.0000
  O   O15       1.0  0.24200  0.49900  0.63800  1.0000
  O   O16       1.0  0.46600  0.08470  0.68800  1.0000
  O   O17       1.0  0.96200  0.76100  0.72000  1.0000
  O   O18       1.0  0.72300  0.53000  0.75200  1.0000
  O   O19       1.0  0.80200  0.05210  0.76300  1.0000
  O   O20       1.0  0.05790  0.29100  0.78800  1.0000
  O   O21       1.0  0.21000  0.07740  0.87700  1.0000
  O   O22       1.0  0.46500  0.83900  0.87700  1.0000
  O   O23       1.0  0.45000  0.34600  0.93100  1.0000
  O   O24       1.0  0.81300  0.33300  0.98200  1.0000
  P   P1        1.0  0.59400  0.83300  0.09570  1.0000
  P   P2        1.0  0.14300  0.77300  0.23500  1.0000
  P   P3        1.0  0.23100  0.37400  0.40100  1.0000
  P   P4        1.0  0.76900  0.62600  0.59900  1.0000
  P   P5        1.0  0.85700  0.22700  0.76500  1.0000
  P   P6        1.0  0.40600  0.16700  0.90400  1.0000
