data_image0
_chemical_formula_structural       Ce8Cu4S20Yb4
_chemical_formula_sum              "Ce8 Cu4 S20 Yb4"
_cell_length_a       11.76
_cell_length_b       3.98559
_cell_length_c       16.9495
_cell_angle_alpha    90
_cell_angle_beta     90
_cell_angle_gamma    90

_space_group_name_H-M_alt    "P 1"
_space_group_IT_number       1

loop_
  _space_group_symop_operation_xyz
  'x, y, z'

loop_
  _atom_site_type_symbol
  _atom_site_label
  _atom_site_symmetry_multiplicity
  _atom_site_fract_x
  _atom_site_fract_y
  _atom_site_fract_z
  _atom_site_occupancy
  Ce  Ce1       1.0  0.37500  0.25000  0.09930  1.0000
  Ce  Ce2       1.0  0.03030  0.25000  0.18400  1.0000
  Ce  Ce3       1.0  0.53000  0.25000  0.31600  1.0000
  Ce  Ce4       1.0  0.87500  0.25000  0.40100  1.0000
  Ce  Ce5       1.0  0.12500  0.75000  0.59900  1.0000
  Ce  Ce6       1.0  0.47000  0.75000  0.68400  1.0000
  Ce  Ce7       1.0  0.97000  0.75000  0.81600  1.0000
  Ce  Ce8       1.0  0.62500  0.75000  0.90100  1.0000
  Cu  Cu1       1.0  0.90700  0.25000  0.00000  1.0000
  Cu  Cu2       1.0  0.09260  0.75000  0.00000  1.0000
  Cu  Cu3       1.0  0.59300  0.75000  0.50000  1.0000
  Cu  Cu4       1.0  0.40700  0.25000  0.50000  1.0000
  S   S1        1.0  0.61800  0.25000  0.02880  1.0000
  S   S2        1.0  0.92000  0.75000  0.07280  1.0000
  S   S3        1.0  0.18900  0.75000  0.11600  1.0000
  S   S4        1.0  0.49500  0.75000  0.19600  1.0000
  S   S5        1.0  0.77500  0.25000  0.23200  1.0000
  S   S6        1.0  0.27500  0.25000  0.26800  1.0000
  S   S7        1.0  0.99500  0.75000  0.30400  1.0000
  S   S8        1.0  0.68900  0.75000  0.38400  1.0000
  S   S9        1.0  0.42000  0.75000  0.42700  1.0000
  S   S10       1.0  0.11800  0.25000  0.47100  1.0000
  S   S11       1.0  0.88200  0.75000  0.52900  1.0000
  S   S12       1.0  0.58000  0.25000  0.57300  1.0000
  S   S13       1.0  0.31100  0.25000  0.61600  1.0000
  S   S14       1.0  0.00507  0.25000  0.69600  1.0000
  S   S15       1.0  0.72500  0.75000  0.73200  1.0000
  S   S16       1.0  0.22500  0.75000  0.76800  1.0000
  S   S17       1.0  0.50500  0.25000  0.80400  1.0000
  S   S18       1.0  0.81100  0.25000  0.88400  1.0000
  S   S19       1.0  0.07980  0.25000  0.92700  1.0000
  S   S20       1.0  0.38200  0.75000  0.97100  1.0000
  Yb  Yb1       1.0  0.70300  0.75000  0.13200  1.0000
  Yb  Yb2       1.0  0.20300  0.75000  0.36800  1.0000
  Yb  Yb3       1.0  0.79700  0.25000  0.63200  1.0000
  Yb  Yb4       1.0  0.29700  0.25000  0.86800  1.0000
