data_image0
_chemical_formula_structural       As2H16O16Zn3
_chemical_formula_sum              "As2 H16 O16 Zn3"
_cell_length_a       4.70279
_cell_length_b       8.21836
_cell_length_c       8.21836
_cell_angle_alpha    103.991
_cell_angle_beta     99.2363
_cell_angle_gamma    99.2363

_space_group_name_H-M_alt    "P 1"
_space_group_IT_number       1

loop_
  _space_group_symop_operation_xyz
  'x, y, z'

loop_
  _atom_site_type_symbol
  _atom_site_label
  _atom_site_symmetry_multiplicity
  _atom_site_fract_x
  _atom_site_fract_y
  _atom_site_fract_z
  _atom_site_occupancy
  As  As1       1.0  0.37500  0.31500  0.31500  1.0000
  As  As2       1.0  0.62500  0.68500  0.68500  1.0000
  H   H1        1.0  0.63800  0.20500  0.03790  1.0000
  H   H2        1.0  0.95400  0.32300  0.05330  1.0000
  H   H3        1.0  0.50400  0.57400  0.16800  1.0000
  H   H4        1.0  0.71300  0.75400  0.17700  1.0000
  H   H5        1.0  0.63800  0.03790  0.20500  1.0000
  H   H6        1.0  0.28700  0.82300  0.24600  1.0000
  H   H7        1.0  0.95400  0.05330  0.32300  1.0000
  H   H8        1.0  0.49600  0.83200  0.42600  1.0000
  H   H9        1.0  0.50400  0.16800  0.57400  1.0000
  H   H10       1.0  0.04550  0.94700  0.67700  1.0000
  H   H11       1.0  0.71300  0.17700  0.75400  1.0000
  H   H12       1.0  0.36200  0.96200  0.79500  1.0000
  H   H13       1.0  0.28700  0.24600  0.82300  1.0000
  H   H14       1.0  0.49600  0.42600  0.83200  1.0000
  H   H15       1.0  0.04550  0.67700  0.94700  1.0000
  H   H16       1.0  0.36200  0.79500  0.96200  1.0000
  O   O1        1.0  0.19300  0.78200  0.02290  1.0000
  O   O2        1.0  0.39200  0.14500  0.14500  1.0000
  O   O3        1.0  0.70700  0.63000  0.16400  1.0000
  O   O4        1.0  0.80700  0.97700  0.21800  1.0000
  O   O5        1.0  0.20600  0.45100  0.22300  1.0000
  O   O6        1.0  0.29300  0.83600  0.37000  1.0000
  O   O7        1.0  0.73100  0.41200  0.41200  1.0000
  O   O8        1.0  0.20600  0.22300  0.45100  1.0000
  O   O9        1.0  0.79400  0.77700  0.54900  1.0000
  O   O10       1.0  0.26900  0.58800  0.58800  1.0000
  O   O11       1.0  0.70700  0.16400  0.63000  1.0000
  O   O12       1.0  0.79400  0.54900  0.77700  1.0000
  O   O13       1.0  0.19300  0.02290  0.78200  1.0000
  O   O14       1.0  0.29300  0.37000  0.83600  1.0000
  O   O15       1.0  0.60800  0.85500  0.85500  1.0000
  O   O16       1.0  0.80700  0.21800  0.97700  1.0000
  Zn  Zn1       1.0  0.00000  0.00000  0.00000  1.0000
  Zn  Zn2       1.0  0.00000  0.62300  0.37700  1.0000
  Zn  Zn3       1.0  0.00000  0.37700  0.62300  1.0000
