data_image0
_chemical_formula_structural       Ba2Cu2O22Ru10
_chemical_formula_sum              "Ba2 Cu2 O22 Ru10"
_cell_length_a       5.87785
_cell_length_b       5.8782
_cell_length_c       13.7923
_cell_angle_alpha    90
_cell_angle_beta     90
_cell_angle_gamma    119.998

_space_group_name_H-M_alt    "P 1"
_space_group_IT_number       1

loop_
  _space_group_symop_operation_xyz
  'x, y, z'

loop_
  _atom_site_type_symbol
  _atom_site_label
  _atom_site_symmetry_multiplicity
  _atom_site_fract_x
  _atom_site_fract_y
  _atom_site_fract_z
  _atom_site_occupancy
  Ba  Ba1       1.0  0.33300  0.66700  0.25000  1.0000
  Ba  Ba2       1.0  0.66700  0.33300  0.75000  1.0000
  Cu  Cu1       1.0  0.66700  0.33300  0.25000  1.0000
  Cu  Cu2       1.0  0.33300  0.66700  0.75000  1.0000
  O   O1        1.0  0.16900  0.83100  0.08120  1.0000
  O   O2        1.0  0.66100  0.83100  0.08120  1.0000
  O   O3        1.0  0.16900  0.33900  0.08120  1.0000
  O   O4        1.0  0.66700  0.33300  0.08330  1.0000
  O   O5        1.0  0.29900  0.15000  0.25000  1.0000
  O   O6        1.0  0.85000  0.15000  0.25000  1.0000
  O   O7        1.0  0.85000  0.70100  0.25000  1.0000
  O   O8        1.0  0.66700  0.33300  0.41700  1.0000
  O   O9        1.0  0.16900  0.33900  0.41900  1.0000
  O   O10       1.0  0.16900  0.83100  0.41900  1.0000
  O   O11       1.0  0.66100  0.83100  0.41900  1.0000
  O   O12       1.0  0.33900  0.16900  0.58100  1.0000
  O   O13       1.0  0.83100  0.16900  0.58100  1.0000
  O   O14       1.0  0.83100  0.66100  0.58100  1.0000
  O   O15       1.0  0.33300  0.66700  0.58300  1.0000
  O   O16       1.0  0.15000  0.29900  0.75000  1.0000
  O   O17       1.0  0.15000  0.85000  0.75000  1.0000
  O   O18       1.0  0.70100  0.85000  0.75000  1.0000
  O   O19       1.0  0.33300  0.66700  0.91700  1.0000
  O   O20       1.0  0.83100  0.66100  0.91900  1.0000
  O   O21       1.0  0.33900  0.16900  0.91900  1.0000
  O   O22       1.0  0.83100  0.16900  0.91900  1.0000
  Ru  Ru1       1.0  0.50000  0.00000  0.00000  1.0000
  Ru  Ru2       1.0  0.00000  0.50000  0.00000  1.0000
  Ru  Ru3       1.0  0.50000  0.50000  0.00000  1.0000
  Ru  Ru4       1.0  0.00000  0.00000  0.15500  1.0000
  Ru  Ru5       1.0  0.00000  0.00000  0.34500  1.0000
  Ru  Ru6       1.0  0.50000  0.00000  0.50000  1.0000
  Ru  Ru7       1.0  0.00000  0.50000  0.50000  1.0000
  Ru  Ru8       1.0  0.50000  0.50000  0.50000  1.0000
  Ru  Ru9       1.0  0.00000  0.00000  0.65500  1.0000
  Ru  Ru10      1.0  0.00000  0.00000  0.84500  1.0000
