data_image0
_chemical_formula_structural       As16Ni22
_chemical_formula_sum              "As16 Ni22"
_cell_length_a       6.88145
_cell_length_b       6.88145
_cell_length_c       11.1942
_cell_angle_alpha    98.7457
_cell_angle_beta     98.7457
_cell_angle_gamma    90.0259

_space_group_name_H-M_alt    "P 1"
_space_group_IT_number       1

loop_
  _space_group_symop_operation_xyz
  'x, y, z'

loop_
  _atom_site_type_symbol
  _atom_site_label
  _atom_site_symmetry_multiplicity
  _atom_site_fract_x
  _atom_site_fract_y
  _atom_site_fract_z
  _atom_site_occupancy
  As  As1       1.0  0.25100  0.37600  0.00118  1.0000
  As  As2       1.0  0.75200  0.12600  0.00716  1.0000
  As  As3       1.0  0.06630  0.44300  0.24900  1.0000
  As  As4       1.0  0.55700  0.44300  0.25000  1.0000
  As  As5       1.0  0.06720  0.93300  0.25000  1.0000
  As  As6       1.0  0.55700  0.93400  0.25100  1.0000
  As  As7       1.0  0.87400  0.24800  0.49300  1.0000
  As  As8       1.0  0.62400  0.74900  0.49900  1.0000
  As  As9       1.0  0.37600  0.25100  0.50100  1.0000
  As  As10      1.0  0.12600  0.75200  0.50700  1.0000
  As  As11      1.0  0.44300  0.06630  0.74900  1.0000
  As  As12      1.0  0.93300  0.06720  0.75000  1.0000
  As  As13      1.0  0.44300  0.55700  0.75000  1.0000
  As  As14      1.0  0.93400  0.55700  0.75100  1.0000
  As  As15      1.0  0.24800  0.87400  0.99300  1.0000
  As  As16      1.0  0.74900  0.62400  0.99900  1.0000
  Ni  Ni1       1.0  0.08460  0.65100  0.09260  1.0000
  Ni  Ni2       1.0  0.46800  0.14600  0.09270  1.0000
  Ni  Ni3       1.0  0.46000  0.65100  0.09280  1.0000
  Ni  Ni4       1.0  0.07800  0.14700  0.09370  1.0000
  Ni  Ni5       1.0  0.80200  0.67700  0.21400  1.0000
  Ni  Ni6       1.0  0.81100  0.18900  0.25000  1.0000
  Ni  Ni7       1.0  0.32300  0.19800  0.28600  1.0000
  Ni  Ni8       1.0  0.85300  0.92200  0.40600  1.0000
  Ni  Ni9       1.0  0.34900  0.54000  0.40700  1.0000
  Ni  Ni10      1.0  0.85400  0.53200  0.40700  1.0000
  Ni  Ni11      1.0  0.34900  0.91500  0.40700  1.0000
  Ni  Ni12      1.0  0.65100  0.08460  0.59300  1.0000
  Ni  Ni13      1.0  0.14600  0.46800  0.59300  1.0000
  Ni  Ni14      1.0  0.65100  0.46000  0.59300  1.0000
  Ni  Ni15      1.0  0.14700  0.07800  0.59400  1.0000
  Ni  Ni16      1.0  0.67700  0.80200  0.71400  1.0000
  Ni  Ni17      1.0  0.18900  0.81100  0.75000  1.0000
  Ni  Ni18      1.0  0.19800  0.32300  0.78600  1.0000
  Ni  Ni19      1.0  0.92200  0.85300  0.90600  1.0000
  Ni  Ni20      1.0  0.54000  0.34900  0.90700  1.0000
  Ni  Ni21      1.0  0.53200  0.85400  0.90700  1.0000
  Ni  Ni22      1.0  0.91500  0.34900  0.90700  1.0000
