data_image0
_chemical_formula_structural       Cl6H12La2O18
_chemical_formula_sum              "Cl6 H12 La2 O18"
_cell_length_a       7.93372
_cell_length_b       7.93372
_cell_length_c       8.1954
_cell_angle_alpha    90
_cell_angle_beta     90
_cell_angle_gamma    120

_space_group_name_H-M_alt    "P 1"
_space_group_IT_number       1

loop_
  _space_group_symop_operation_xyz
  'x, y, z'

loop_
  _atom_site_type_symbol
  _atom_site_label
  _atom_site_symmetry_multiplicity
  _atom_site_fract_x
  _atom_site_fract_y
  _atom_site_fract_z
  _atom_site_occupancy
  Cl  Cl1       1.0  0.76900  0.00000  0.00000  1.0000
  Cl  Cl2       1.0  0.23100  0.23100  0.00000  1.0000
  Cl  Cl3       1.0  0.00000  0.76900  0.00000  1.0000
  Cl  Cl4       1.0  0.76900  0.00000  0.50000  1.0000
  Cl  Cl5       1.0  0.23100  0.23100  0.50000  1.0000
  Cl  Cl6       1.0  0.00000  0.76900  0.50000  1.0000
  H   H1        1.0  0.34600  0.89500  0.15300  1.0000
  H   H2        1.0  0.54900  0.65400  0.15300  1.0000
  H   H3        1.0  0.10500  0.45100  0.15300  1.0000
  H   H4        1.0  0.10500  0.45100  0.34700  1.0000
  H   H5        1.0  0.54900  0.65400  0.34700  1.0000
  H   H6        1.0  0.34600  0.89500  0.34700  1.0000
  H   H7        1.0  0.89500  0.34600  0.65300  1.0000
  H   H8        1.0  0.65400  0.54900  0.65300  1.0000
  H   H9        1.0  0.45100  0.10500  0.65300  1.0000
  H   H10       1.0  0.45100  0.10500  0.84700  1.0000
  H   H11       1.0  0.89500  0.34600  0.84700  1.0000
  H   H12       1.0  0.65400  0.54900  0.84700  1.0000
  La  La1       1.0  0.66700  0.33300  0.25000  1.0000
  La  La2       1.0  0.33300  0.66700  0.75000  1.0000
  O   O1        1.0  0.75400  0.19000  0.00637  1.0000
  O   O2        1.0  0.81000  0.56400  0.00637  1.0000
  O   O3        1.0  0.43600  0.24600  0.00637  1.0000
  O   O4        1.0  0.02330  0.43600  0.25000  1.0000
  O   O5        1.0  0.56400  0.58800  0.25000  1.0000
  O   O6        1.0  0.41200  0.97700  0.25000  1.0000
  O   O7        1.0  0.43600  0.24600  0.49400  1.0000
  O   O8        1.0  0.75400  0.19000  0.49400  1.0000
  O   O9        1.0  0.81000  0.56400  0.49400  1.0000
  O   O10       1.0  0.19000  0.75400  0.50600  1.0000
  O   O11       1.0  0.56400  0.81000  0.50600  1.0000
  O   O12       1.0  0.24600  0.43600  0.50600  1.0000
  O   O13       1.0  0.43600  0.02330  0.75000  1.0000
  O   O14       1.0  0.97700  0.41200  0.75000  1.0000
  O   O15       1.0  0.58800  0.56400  0.75000  1.0000
  O   O16       1.0  0.24600  0.43600  0.99400  1.0000
  O   O17       1.0  0.19000  0.75400  0.99400  1.0000
  O   O18       1.0  0.56400  0.81000  0.99400  1.0000
