data_image0
_chemical_formula_structural       Bi4O26P8
_chemical_formula_sum              "Bi4 O26 P8"
_cell_length_a       6.82997
_cell_length_b       6.85426
_cell_length_c       13.1829
_cell_angle_alpha    104.7
_cell_angle_beta     90
_cell_angle_gamma    119.883

_space_group_name_H-M_alt    "P 1"
_space_group_IT_number       1

loop_
  _space_group_symop_operation_xyz
  'x, y, z'

loop_
  _atom_site_type_symbol
  _atom_site_label
  _atom_site_symmetry_multiplicity
  _atom_site_fract_x
  _atom_site_fract_y
  _atom_site_fract_z
  _atom_site_occupancy
  Bi  Bi1       1.0  0.69200  0.38100  0.05370  1.0000
  Bi  Bi2       1.0  0.31100  0.61900  0.44600  1.0000
  Bi  Bi3       1.0  0.68900  0.38100  0.55400  1.0000
  Bi  Bi4       1.0  0.30800  0.61900  0.94600  1.0000
  O   O1        1.0  0.69600  0.99900  0.06230  1.0000
  O   O2        1.0  0.07720  0.51500  0.09890  1.0000
  O   O3        1.0  0.43200  0.50900  0.10100  1.0000
  O   O4        1.0  0.89000  0.77800  0.10400  1.0000
  O   O5        1.0  0.10400  0.20300  0.16100  1.0000
  O   O6        1.0  0.68100  0.37800  0.22300  1.0000
  O   O7        1.0  0.76400  0.00000  0.25000  1.0000
  O   O8        1.0  0.30400  0.62200  0.27700  1.0000
  O   O9        1.0  0.90200  0.79700  0.33900  1.0000
  O   O10       1.0  0.11200  0.22200  0.39600  1.0000
  O   O11       1.0  0.92200  0.49100  0.39900  1.0000
  O   O12       1.0  0.56200  0.48500  0.40100  1.0000
  O   O13       1.0  0.69700  0.00120  0.43800  1.0000
  O   O14       1.0  0.30300  0.99900  0.56200  1.0000
  O   O15       1.0  0.43800  0.51500  0.59900  1.0000
  O   O16       1.0  0.07770  0.50900  0.60100  1.0000
  O   O17       1.0  0.88800  0.77800  0.60400  1.0000
  O   O18       1.0  0.09840  0.20300  0.66100  1.0000
  O   O19       1.0  0.69600  0.37800  0.72300  1.0000
  O   O20       1.0  0.23600  0.00000  0.75000  1.0000
  O   O21       1.0  0.31900  0.62200  0.77700  1.0000
  O   O22       1.0  0.89600  0.79700  0.83900  1.0000
  O   O23       1.0  0.11000  0.22200  0.89600  1.0000
  O   O24       1.0  0.56800  0.49100  0.89900  1.0000
  O   O25       1.0  0.92300  0.48500  0.90100  1.0000
  O   O26       1.0  0.30400  0.00120  0.93800  1.0000
  P   P1        1.0  0.85100  0.98100  0.13600  1.0000
  P   P2        1.0  0.23300  0.47400  0.16300  1.0000
  P   P3        1.0  0.75900  0.52600  0.33700  1.0000
  P   P4        1.0  0.87000  0.01860  0.36400  1.0000
  P   P5        1.0  0.13000  0.98100  0.63600  1.0000
  P   P6        1.0  0.24100  0.47400  0.66300  1.0000
  P   P7        1.0  0.76700  0.52600  0.83700  1.0000
  P   P8        1.0  0.14900  0.01860  0.86400  1.0000
