data_image0
_chemical_formula_structural       Er12Nd8Si16
_chemical_formula_sum              "Er12 Nd8 Si16"
_cell_length_a       7.45435
_cell_length_b       14.6959
_cell_length_c       7.76794
_cell_angle_alpha    90
_cell_angle_beta     90
_cell_angle_gamma    90

_space_group_name_H-M_alt    "P 1"
_space_group_IT_number       1

loop_
  _space_group_symop_operation_xyz
  'x, y, z'

loop_
  _atom_site_type_symbol
  _atom_site_label
  _atom_site_symmetry_multiplicity
  _atom_site_fract_x
  _atom_site_fract_y
  _atom_site_fract_z
  _atom_site_occupancy
  Er  Er1       1.0  0.34500  0.25000  0.01120  1.0000
  Er  Er2       1.0  0.32100  0.62400  0.17800  1.0000
  Er  Er3       1.0  0.32100  0.87600  0.17800  1.0000
  Er  Er4       1.0  0.82100  0.62400  0.32200  1.0000
  Er  Er5       1.0  0.82100  0.87600  0.32200  1.0000
  Er  Er6       1.0  0.84500  0.25000  0.48900  1.0000
  Er  Er7       1.0  0.15500  0.75000  0.51100  1.0000
  Er  Er8       1.0  0.17900  0.12400  0.67800  1.0000
  Er  Er9       1.0  0.17900  0.37600  0.67800  1.0000
  Er  Er10      1.0  0.67900  0.12400  0.82200  1.0000
  Er  Er11      1.0  0.67900  0.37600  0.82200  1.0000
  Er  Er12      1.0  0.65500  0.75000  0.98900  1.0000
  Nd  Nd1       1.0  0.02130  0.09800  0.17900  1.0000
  Nd  Nd2       1.0  0.02130  0.40200  0.17900  1.0000
  Nd  Nd3       1.0  0.52100  0.09800  0.32100  1.0000
  Nd  Nd4       1.0  0.52100  0.40200  0.32100  1.0000
  Nd  Nd5       1.0  0.47900  0.59800  0.67900  1.0000
  Nd  Nd6       1.0  0.47900  0.90200  0.67900  1.0000
  Nd  Nd7       1.0  0.97900  0.59800  0.82100  1.0000
  Nd  Nd8       1.0  0.97900  0.90200  0.82100  1.0000
  Si  Si1       1.0  0.64700  0.53900  0.03160  1.0000
  Si  Si2       1.0  0.64700  0.96100  0.03160  1.0000
  Si  Si3       1.0  0.02700  0.75000  0.11300  1.0000
  Si  Si4       1.0  0.72700  0.25000  0.12200  1.0000
  Si  Si5       1.0  0.22700  0.25000  0.37800  1.0000
  Si  Si6       1.0  0.52700  0.75000  0.38700  1.0000
  Si  Si7       1.0  0.14700  0.53900  0.46800  1.0000
  Si  Si8       1.0  0.14700  0.96100  0.46800  1.0000
  Si  Si9       1.0  0.85300  0.03950  0.53200  1.0000
  Si  Si10      1.0  0.85300  0.46100  0.53200  1.0000
  Si  Si11      1.0  0.47300  0.25000  0.61300  1.0000
  Si  Si12      1.0  0.77300  0.75000  0.62200  1.0000
  Si  Si13      1.0  0.27300  0.75000  0.87800  1.0000
  Si  Si14      1.0  0.97300  0.25000  0.88700  1.0000
  Si  Si15      1.0  0.35300  0.03950  0.96800  1.0000
  Si  Si16      1.0  0.35300  0.46100  0.96800  1.0000
