data_image0
_chemical_formula_structural       P26Re12
_chemical_formula_sum              "P26 Re12"
_cell_length_a       8.37507
_cell_length_b       9.5056
_cell_length_c       9.5056
_cell_angle_alpha    111.754
_cell_angle_beta     107.079
_cell_angle_gamma    107.079

_space_group_name_H-M_alt    "P 1"
_space_group_IT_number       1

loop_
  _space_group_symop_operation_xyz
  'x, y, z'

loop_
  _atom_site_type_symbol
  _atom_site_label
  _atom_site_symmetry_multiplicity
  _atom_site_fract_x
  _atom_site_fract_y
  _atom_site_fract_z
  _atom_site_occupancy
  P   P1        1.0  0.13200  0.00000  0.00000  1.0000
  P   P2        1.0  0.86800  0.00000  0.00000  1.0000
  P   P3        1.0  0.89600  0.39600  0.00727  1.0000
  P   P4        1.0  0.53600  0.23200  0.03850  1.0000
  P   P5        1.0  0.90300  0.79100  0.17700  1.0000
  P   P6        1.0  0.49700  0.96100  0.19400  1.0000
  P   P7        1.0  0.11200  0.38600  0.20900  1.0000
  P   P8        1.0  0.50800  0.62900  0.21400  1.0000
  P   P9        1.0  0.69700  0.19400  0.23200  1.0000
  P   P10       1.0  0.88000  0.58500  0.37100  1.0000
  P   P11       1.0  0.27400  0.17700  0.38600  1.0000
  P   P12       1.0  0.88800  0.99300  0.38900  1.0000
  P   P13       1.0  0.50100  0.38900  0.39600  1.0000
  P   P14       1.0  0.29500  0.78600  0.41500  1.0000
  P   P15       1.0  0.70500  0.21400  0.58500  1.0000
  P   P16       1.0  0.49900  0.61100  0.60400  1.0000
  P   P17       1.0  0.11200  0.00727  0.61100  1.0000
  P   P18       1.0  0.72600  0.82300  0.61400  1.0000
  P   P19       1.0  0.12000  0.41500  0.62900  1.0000
  P   P20       1.0  0.30300  0.80600  0.76800  1.0000
  P   P21       1.0  0.49200  0.37100  0.78600  1.0000
  P   P22       1.0  0.88800  0.61400  0.79100  1.0000
  P   P23       1.0  0.50300  0.03850  0.80600  1.0000
  P   P24       1.0  0.09660  0.20900  0.82300  1.0000
  P   P25       1.0  0.46400  0.76800  0.96100  1.0000
  P   P26       1.0  0.10400  0.60400  0.99300  1.0000
  Re  Re1       1.0  0.67900  0.51000  0.08910  1.0000
  Re  Re2       1.0  0.33400  0.33200  0.10400  1.0000
  Re  Re3       1.0  0.23000  0.89600  0.22800  1.0000
  Re  Re4       1.0  0.99800  0.22800  0.33200  1.0000
  Re  Re5       1.0  0.59000  0.91100  0.42100  1.0000
  Re  Re6       1.0  0.16900  0.57900  0.49000  1.0000
  Re  Re7       1.0  0.83100  0.42100  0.51000  1.0000
  Re  Re8       1.0  0.41000  0.08910  0.57900  1.0000
  Re  Re9       1.0  0.00214  0.77200  0.66800  1.0000
  Re  Re10      1.0  0.77000  0.10400  0.77200  1.0000
  Re  Re11      1.0  0.66600  0.66800  0.89600  1.0000
  Re  Re12      1.0  0.32100  0.49000  0.91100  1.0000
