data_image0
_chemical_formula_structural       B12H20Li2O4
_chemical_formula_sum              "B12 H20 Li2 O4"
_cell_length_a       6.95711
_cell_length_b       6.95711
_cell_length_c       7.23021
_cell_angle_alpha    67.8899
_cell_angle_beta     112.11
_cell_angle_gamma    99.8388

_space_group_name_H-M_alt    "P 1"
_space_group_IT_number       1

loop_
  _space_group_symop_operation_xyz
  'x, y, z'

loop_
  _atom_site_type_symbol
  _atom_site_label
  _atom_site_symmetry_multiplicity
  _atom_site_fract_x
  _atom_site_fract_y
  _atom_site_fract_z
  _atom_site_occupancy
  B   B1        1.0  0.09070  0.23000  0.03400  1.0000
  B   B2        1.0  0.77000  0.90900  0.03400  1.0000
  B   B3        1.0  0.17800  0.82200  0.08010  1.0000
  B   B4        1.0  0.95300  0.04660  0.19200  1.0000
  B   B5        1.0  0.00764  0.79400  0.22100  1.0000
  B   B6        1.0  0.20600  0.99200  0.22100  1.0000
  B   B7        1.0  0.79400  0.00764  0.77900  1.0000
  B   B8        1.0  0.99200  0.20600  0.77900  1.0000
  B   B9        1.0  0.04660  0.95300  0.80800  1.0000
  B   B10       1.0  0.82200  0.17800  0.92000  1.0000
  B   B11       1.0  0.23000  0.09070  0.96600  1.0000
  B   B12       1.0  0.90900  0.77000  0.96600  1.0000
  H   H1        1.0  0.15400  0.39400  0.05680  1.0000
  H   H2        1.0  0.60600  0.84600  0.05680  1.0000
  H   H3        1.0  0.30500  0.69500  0.14100  1.0000
  H   H4        1.0  0.54900  0.27800  0.16000  1.0000
  H   H5        1.0  0.72200  0.45100  0.16000  1.0000
  H   H6        1.0  0.92000  0.08020  0.32800  1.0000
  H   H7        1.0  0.24200  0.30100  0.37700  1.0000
  H   H8        1.0  0.69900  0.75800  0.37700  1.0000
  H   H9        1.0  0.01610  0.64700  0.37800  1.0000
  H   H10       1.0  0.35300  0.98400  0.37800  1.0000
  H   H11       1.0  0.64700  0.01610  0.62200  1.0000
  H   H12       1.0  0.98400  0.35300  0.62200  1.0000
  H   H13       1.0  0.30100  0.24200  0.62300  1.0000
  H   H14       1.0  0.75800  0.69900  0.62300  1.0000
  H   H15       1.0  0.08020  0.92000  0.67200  1.0000
  H   H16       1.0  0.27800  0.54900  0.84000  1.0000
  H   H17       1.0  0.45100  0.72200  0.84000  1.0000
  H   H18       1.0  0.69500  0.30500  0.85900  1.0000
  H   H19       1.0  0.39400  0.15400  0.94300  1.0000
  H   H20       1.0  0.84600  0.60600  0.94300  1.0000
  Li  Li1       1.0  0.35700  0.64300  0.48500  1.0000
  Li  Li2       1.0  0.64300  0.35700  0.51500  1.0000
  O   O1        1.0  0.62600  0.37400  0.23400  1.0000
  O   O2        1.0  0.33800  0.33800  0.50000  1.0000
  O   O3        1.0  0.66200  0.66200  0.50000  1.0000
  O   O4        1.0  0.37400  0.62600  0.76600  1.0000
