data_image0
_chemical_formula_structural       C6Co2H18N12
_chemical_formula_sum              "C6 Co2 H18 N12"
_cell_length_a       7.10975
_cell_length_b       7.10975
_cell_length_c       7.10975
_cell_angle_alpha    97.5032
_cell_angle_beta     97.5032
_cell_angle_gamma    97.5032

_space_group_name_H-M_alt    "P 1"
_space_group_IT_number       1

loop_
  _space_group_symop_operation_xyz
  'x, y, z'

loop_
  _atom_site_type_symbol
  _atom_site_label
  _atom_site_symmetry_multiplicity
  _atom_site_fract_x
  _atom_site_fract_y
  _atom_site_fract_z
  _atom_site_occupancy
  C   C1        1.0  0.87900  0.76800  0.05020  1.0000
  C   C2        1.0  0.23200  0.95000  0.12100  1.0000
  C   C3        1.0  0.95000  0.12100  0.23200  1.0000
  C   C4        1.0  0.05020  0.87900  0.76800  1.0000
  C   C5        1.0  0.76800  0.05020  0.87900  1.0000
  C   C6        1.0  0.12100  0.23200  0.95000  1.0000
  Co  Co1       1.0  0.00000  0.00000  0.00000  1.0000
  Co  Co2       1.0  0.50000  0.50000  0.50000  1.0000
  H   H1        1.0  0.43200  0.33500  0.15400  1.0000
  H   H2        1.0  0.65300  0.44900  0.19600  1.0000
  H   H3        1.0  0.27100  0.60200  0.24000  1.0000
  H   H4        1.0  0.60200  0.24000  0.27100  1.0000
  H   H5        1.0  0.15400  0.43200  0.33500  1.0000
  H   H6        1.0  0.55100  0.80400  0.34700  1.0000
  H   H7        1.0  0.76000  0.72900  0.39800  1.0000
  H   H8        1.0  0.33500  0.15400  0.43200  1.0000
  H   H9        1.0  0.19600  0.65300  0.44900  1.0000
  H   H10       1.0  0.80400  0.34700  0.55100  1.0000
  H   H11       1.0  0.66500  0.84600  0.56800  1.0000
  H   H12       1.0  0.24000  0.27100  0.60200  1.0000
  H   H13       1.0  0.44900  0.19600  0.65300  1.0000
  H   H14       1.0  0.84600  0.56800  0.66500  1.0000
  H   H15       1.0  0.39800  0.76000  0.72900  1.0000
  H   H16       1.0  0.72900  0.39800  0.76000  1.0000
  H   H17       1.0  0.34700  0.55100  0.80400  1.0000
  H   H18       1.0  0.56800  0.66500  0.84600  1.0000
  N   N1        1.0  0.79900  0.62100  0.07730  1.0000
  N   N2        1.0  0.37900  0.92300  0.20100  1.0000
  N   N3        1.0  0.55200  0.36700  0.25600  1.0000
  N   N4        1.0  0.25600  0.55200  0.36700  1.0000
  N   N5        1.0  0.92300  0.20100  0.37900  1.0000
  N   N6        1.0  0.63300  0.74400  0.44800  1.0000
  N   N7        1.0  0.36700  0.25600  0.55200  1.0000
  N   N8        1.0  0.07730  0.79900  0.62100  1.0000
  N   N9        1.0  0.74400  0.44800  0.63300  1.0000
  N   N10       1.0  0.44800  0.63300  0.74400  1.0000
  N   N11       1.0  0.62100  0.07730  0.79900  1.0000
  N   N12       1.0  0.20100  0.37900  0.92300  1.0000
