data_image0
_chemical_formula_structural       Cu3Fe4O24V6
_chemical_formula_sum              "Cu3 Fe4 O24 V6"
_cell_length_a       6.57982
_cell_length_b       7.9944
_cell_length_c       9.73259
_cell_angle_alpha    106.49
_cell_angle_beta     103.735
_cell_angle_gamma    102.485

_space_group_name_H-M_alt    "P 1"
_space_group_IT_number       1

loop_
  _space_group_symop_operation_xyz
  'x, y, z'

loop_
  _atom_site_type_symbol
  _atom_site_label
  _atom_site_symmetry_multiplicity
  _atom_site_fract_x
  _atom_site_fract_y
  _atom_site_fract_z
  _atom_site_occupancy
  Cu  Cu1       1.0  0.71700  0.69900  0.20200  1.0000
  Cu  Cu2       1.0  0.00000  0.50000  0.50000  1.0000
  Cu  Cu3       1.0  0.28300  0.30100  0.79800  1.0000
  Fe  Fe1       1.0  0.04410  0.20400  0.00950  1.0000
  Fe  Fe2       1.0  0.62200  0.04750  0.38900  1.0000
  Fe  Fe3       1.0  0.37800  0.95200  0.61100  1.0000
  Fe  Fe4       1.0  0.95600  0.79600  0.99000  1.0000
  O   O1        1.0  0.66000  0.76300  0.01410  1.0000
  O   O2        1.0  0.76600  0.22000  0.02590  1.0000
  O   O3        1.0  0.07820  0.05830  0.14500  1.0000
  O   O4        1.0  0.00000  0.70400  0.16400  1.0000
  O   O5        1.0  0.18800  0.43200  0.18800  1.0000
  O   O6        1.0  0.55400  0.12600  0.22500  1.0000
  O   O7        1.0  0.70500  0.48700  0.25500  1.0000
  O   O8        1.0  0.47800  0.76600  0.26600  1.0000
  O   O9        1.0  0.87700  0.98000  0.35300  1.0000
  O   O10       1.0  0.33300  0.03350  0.42500  1.0000
  O   O11       1.0  0.14200  0.32700  0.42700  1.0000
  O   O12       1.0  0.20900  0.69100  0.45800  1.0000
  O   O13       1.0  0.79100  0.30900  0.54200  1.0000
  O   O14       1.0  0.85800  0.67300  0.57300  1.0000
  O   O15       1.0  0.66700  0.96700  0.57500  1.0000
  O   O16       1.0  0.12300  0.02050  0.64700  1.0000
  O   O17       1.0  0.52200  0.23400  0.73400  1.0000
  O   O18       1.0  0.29500  0.51300  0.74500  1.0000
  O   O19       1.0  0.44600  0.87400  0.77500  1.0000
  O   O20       1.0  0.81200  0.56800  0.81200  1.0000
  O   O21       1.0  0.00013  0.29600  0.83600  1.0000
  O   O22       1.0  0.92200  0.94200  0.85500  1.0000
  O   O23       1.0  0.23400  0.78000  0.97400  1.0000
  O   O24       1.0  0.34000  0.23700  0.98600  1.0000
  V   V1        1.0  0.59000  0.26800  0.12400  1.0000
  V   V2        1.0  0.22100  0.65300  0.27100  1.0000
  V   V3        1.0  0.11400  0.10600  0.33900  1.0000
  V   V4        1.0  0.88600  0.89400  0.66100  1.0000
  V   V5        1.0  0.77900  0.34700  0.72900  1.0000
  V   V6        1.0  0.41000  0.73200  0.87600  1.0000
