data_image0
_chemical_formula_structural       Br4Hg2K4N4O24
_chemical_formula_sum              "Br4 Hg2 K4 N4 O24"
_cell_length_a       13.9223
_cell_length_b       7.1675
_cell_length_c       5.56361
_cell_angle_alpha    90
_cell_angle_beta     90
_cell_angle_gamma    90

_space_group_name_H-M_alt    "P 1"
_space_group_IT_number       1

loop_
  _space_group_symop_operation_xyz
  'x, y, z'

loop_
  _atom_site_type_symbol
  _atom_site_label
  _atom_site_symmetry_multiplicity
  _atom_site_fract_x
  _atom_site_fract_y
  _atom_site_fract_z
  _atom_site_occupancy
  Br  Br1       1.0  0.61800  0.26500  0.00000  1.0000
  Br  Br2       1.0  0.38200  0.73500  0.00000  1.0000
  Br  Br3       1.0  0.11800  0.23500  0.50000  1.0000
  Br  Br4       1.0  0.88200  0.76500  0.50000  1.0000
  Hg  Hg1       1.0  0.00000  0.00000  0.00000  1.0000
  Hg  Hg2       1.0  0.50000  0.50000  0.50000  1.0000
  K   K1        1.0  0.28100  0.24500  0.00000  1.0000
  K   K2        1.0  0.71900  0.75500  0.00000  1.0000
  K   K3        1.0  0.78100  0.25500  0.50000  1.0000
  K   K4        1.0  0.21900  0.74500  0.50000  1.0000
  N   N1        1.0  0.91200  0.37900  0.00000  1.0000
  N   N2        1.0  0.08760  0.62100  0.00000  1.0000
  N   N3        1.0  0.41200  0.12100  0.50000  1.0000
  N   N4        1.0  0.58800  0.87900  0.50000  1.0000
  O   O1        1.0  0.72100  0.15000  0.00000  1.0000
  O   O2        1.0  0.12900  0.46700  0.00000  1.0000
  O   O3        1.0  0.87100  0.53300  0.00000  1.0000
  O   O4        1.0  0.27900  0.85000  0.00000  1.0000
  O   O5        1.0  0.93400  0.29900  0.19700  1.0000
  O   O6        1.0  0.06590  0.70100  0.19700  1.0000
  O   O7        1.0  0.62900  0.41500  0.23500  1.0000
  O   O8        1.0  0.37100  0.58500  0.23500  1.0000
  O   O9        1.0  0.12900  0.08490  0.26500  1.0000
  O   O10       1.0  0.87100  0.91500  0.26500  1.0000
  O   O11       1.0  0.43400  0.20100  0.30300  1.0000
  O   O12       1.0  0.56600  0.79900  0.30300  1.0000
  O   O13       1.0  0.62900  0.03310  0.50000  1.0000
  O   O14       1.0  0.22100  0.35000  0.50000  1.0000
  O   O15       1.0  0.77900  0.65000  0.50000  1.0000
  O   O16       1.0  0.37100  0.96700  0.50000  1.0000
  O   O17       1.0  0.43400  0.20100  0.69700  1.0000
  O   O18       1.0  0.56600  0.79900  0.69700  1.0000
  O   O19       1.0  0.12900  0.08490  0.73500  1.0000
  O   O20       1.0  0.87100  0.91500  0.73500  1.0000
  O   O21       1.0  0.62900  0.41500  0.76500  1.0000
  O   O22       1.0  0.37100  0.58500  0.76500  1.0000
  O   O23       1.0  0.93400  0.29900  0.80300  1.0000
  O   O24       1.0  0.06590  0.70100  0.80300  1.0000
