data_image0
_chemical_formula_structural       Ge2Na2O24P6Ti2
_chemical_formula_sum              "Ge2 Na2 O24 P6 Ti2"
_cell_length_a       8.23966
_cell_length_b       8.23966
_cell_length_c       8.63583
_cell_angle_alpha    118.494
_cell_angle_beta     90
_cell_angle_gamma    120

_space_group_name_H-M_alt    "P 1"
_space_group_IT_number       1

loop_
  _space_group_symop_operation_xyz
  'x, y, z'

loop_
  _atom_site_type_symbol
  _atom_site_label
  _atom_site_symmetry_multiplicity
  _atom_site_fract_x
  _atom_site_fract_y
  _atom_site_fract_z
  _atom_site_occupancy
  Ge  Ge1       1.0  0.14600  0.29300  0.43900  1.0000
  Ge  Ge2       1.0  0.85400  0.70700  0.56100  1.0000
  Na  Na1       1.0  0.00000  0.00000  0.00000  1.0000
  Na  Na2       1.0  0.50000  0.00000  0.50000  1.0000
  O   O1        1.0  0.49600  0.19400  0.07530  1.0000
  O   O2        1.0  0.88100  0.37700  0.07530  1.0000
  O   O3        1.0  0.69800  0.57900  0.07530  1.0000
  O   O4        1.0  0.39200  0.00112  0.24600  1.0000
  O   O5        1.0  0.24500  0.63700  0.24600  1.0000
  O   O6        1.0  0.61000  0.85500  0.24600  1.0000
  O   O7        1.0  0.29800  0.26000  0.27500  1.0000
  O   O8        1.0  0.01460  0.31300  0.27500  1.0000
  O   O9        1.0  0.96200  0.97700  0.27500  1.0000
  O   O10       1.0  0.65600  0.39900  0.42200  1.0000
  O   O11       1.0  0.02260  0.67800  0.42200  1.0000
  O   O12       1.0  0.74400  0.76600  0.42200  1.0000
  O   O13       1.0  0.25600  0.23400  0.57800  1.0000
  O   O14       1.0  0.97700  0.32200  0.57800  1.0000
  O   O15       1.0  0.34400  0.60100  0.57800  1.0000
  O   O16       1.0  0.03800  0.02340  0.72500  1.0000
  O   O17       1.0  0.98500  0.68700  0.72500  1.0000
  O   O18       1.0  0.70200  0.74000  0.72500  1.0000
  O   O19       1.0  0.39000  0.14500  0.75400  1.0000
  O   O20       1.0  0.75500  0.36300  0.75400  1.0000
  O   O21       1.0  0.60800  0.99900  0.75400  1.0000
  O   O22       1.0  0.30200  0.42100  0.92500  1.0000
  O   O23       1.0  0.11900  0.62300  0.92500  1.0000
  O   O24       1.0  0.50400  0.80600  0.92500  1.0000
  P   P1        1.0  0.46300  0.21800  0.25700  1.0000
  P   P2        1.0  0.03940  0.50200  0.25700  1.0000
  P   P3        1.0  0.75500  0.79500  0.25700  1.0000
  P   P4        1.0  0.24500  0.20500  0.74300  1.0000
  P   P5        1.0  0.96100  0.49800  0.74300  1.0000
  P   P6        1.0  0.53700  0.78200  0.74300  1.0000
  Ti  Ti1       1.0  0.35700  0.71400  0.07150  1.0000
  Ti  Ti2       1.0  0.64300  0.28600  0.92900  1.0000
