data_image0
_chemical_formula_structural       Bi8Ge6O24
_chemical_formula_sum              "Bi8 Ge6 O24"
_cell_length_a       9.0671
_cell_length_b       9.0671
_cell_length_c       9.0671
_cell_angle_alpha    109.471
_cell_angle_beta     109.471
_cell_angle_gamma    109.471

_space_group_name_H-M_alt    "P 1"
_space_group_IT_number       1

loop_
  _space_group_symop_operation_xyz
  'x, y, z'

loop_
  _atom_site_type_symbol
  _atom_site_label
  _atom_site_symmetry_multiplicity
  _atom_site_fract_x
  _atom_site_fract_y
  _atom_site_fract_z
  _atom_site_occupancy
  Bi  Bi1       1.0  0.50000  0.33500  0.00000  1.0000
  Bi  Bi2       1.0  0.50000  0.83500  0.00000  1.0000
  Bi  Bi3       1.0  0.16500  0.66500  0.16500  1.0000
  Bi  Bi4       1.0  0.00000  0.00000  0.33500  1.0000
  Bi  Bi5       1.0  0.33500  0.50000  0.50000  1.0000
  Bi  Bi6       1.0  0.83500  0.50000  0.50000  1.0000
  Bi  Bi7       1.0  0.66500  0.16500  0.66500  1.0000
  Bi  Bi8       1.0  0.00000  0.00000  0.83500  1.0000
  Ge  Ge1       1.0  0.87500  0.25000  0.12500  1.0000
  Ge  Ge2       1.0  0.37500  0.12500  0.25000  1.0000
  Ge  Ge3       1.0  0.62500  0.75000  0.37500  1.0000
  Ge  Ge4       1.0  0.25000  0.87500  0.62500  1.0000
  Ge  Ge5       1.0  0.12500  0.37500  0.75000  1.0000
  Ge  Ge6       1.0  0.75000  0.62500  0.87500  1.0000
  O   O1        1.0  0.33400  0.13800  0.05180  1.0000
  O   O2        1.0  0.94800  0.78300  0.08660  1.0000
  O   O3        1.0  0.83400  0.05180  0.13800  1.0000
  O   O4        1.0  0.71700  0.30400  0.16600  1.0000
  O   O5        1.0  0.36200  0.91300  0.19600  1.0000
  O   O6        1.0  0.66600  0.80400  0.21700  1.0000
  O   O7        1.0  0.08660  0.44800  0.28300  1.0000
  O   O8        1.0  0.21700  0.16600  0.30400  1.0000
  O   O9        1.0  0.63800  0.55200  0.33400  1.0000
  O   O10       1.0  0.41300  0.69600  0.36200  1.0000
  O   O11       1.0  0.19600  0.86200  0.41300  1.0000
  O   O12       1.0  0.58700  0.28300  0.44800  1.0000
  O   O13       1.0  0.13800  0.33400  0.55200  1.0000
  O   O14       1.0  0.78300  0.94800  0.58700  1.0000
  O   O15       1.0  0.05180  0.83400  0.63800  1.0000
  O   O16       1.0  0.30400  0.71700  0.66600  1.0000
  O   O17       1.0  0.91300  0.36200  0.69600  1.0000
  O   O18       1.0  0.80400  0.66600  0.71700  1.0000
  O   O19       1.0  0.44800  0.08660  0.78300  1.0000
  O   O20       1.0  0.16600  0.21700  0.80400  1.0000
  O   O21       1.0  0.55200  0.63800  0.83400  1.0000
  O   O22       1.0  0.69600  0.41300  0.86200  1.0000
  O   O23       1.0  0.86200  0.19600  0.91300  1.0000
  O   O24       1.0  0.28300  0.58700  0.94800  1.0000
