data_image0
_chemical_formula_structural       Fe2H12O18P6
_chemical_formula_sum              "Fe2 H12 O18 P6"
_cell_length_a       6.36336
_cell_length_b       7.39296
_cell_length_c       9.54047
_cell_angle_alpha    104.176
_cell_angle_beta     90
_cell_angle_gamma    115.491

_space_group_name_H-M_alt    "P 1"
_space_group_IT_number       1

loop_
  _space_group_symop_operation_xyz
  'x, y, z'

loop_
  _atom_site_type_symbol
  _atom_site_label
  _atom_site_symmetry_multiplicity
  _atom_site_fract_x
  _atom_site_fract_y
  _atom_site_fract_z
  _atom_site_occupancy
  Fe  Fe1       1.0  0.90700  0.60700  0.35700  1.0000
  Fe  Fe2       1.0  0.70100  0.60700  0.85700  1.0000
  H   H1        1.0  0.38400  0.16300  0.09900  1.0000
  H   H2        1.0  0.20300  0.80100  0.14100  1.0000
  H   H3        1.0  0.95400  0.24600  0.22400  1.0000
  H   H4        1.0  0.65100  0.86600  0.24100  1.0000
  H   H5        1.0  0.32400  0.02840  0.45200  1.0000
  H   H6        1.0  0.27300  0.42300  0.48700  1.0000
  H   H7        1.0  0.77900  0.16300  0.59900  1.0000
  H   H8        1.0  0.59800  0.80100  0.64100  1.0000
  H   H9        1.0  0.29100  0.24600  0.72400  1.0000
  H   H10       1.0  0.21500  0.86600  0.74100  1.0000
  H   H11       1.0  0.70500  0.02840  0.95200  1.0000
  H   H12       1.0  0.15000  0.42300  0.98700  1.0000
  O   O1        1.0  0.82100  0.88100  0.01640  1.0000
  O   O2        1.0  0.32000  0.79500  0.07080  1.0000
  O   O3        1.0  0.79600  0.35300  0.18000  1.0000
  O   O4        1.0  0.98800  0.80100  0.22400  1.0000
  O   O5        1.0  0.02410  0.15800  0.25200  1.0000
  O   O6        1.0  0.21800  0.61600  0.33300  1.0000
  O   O7        1.0  0.59100  0.58100  0.35800  1.0000
  O   O8        1.0  0.47600  0.12100  0.42300  1.0000
  O   O9        1.0  0.86300  0.44100  0.49700  1.0000
  O   O10       1.0  0.06040  0.88100  0.51600  1.0000
  O   O11       1.0  0.47500  0.79500  0.57100  1.0000
  O   O12       1.0  0.55700  0.35300  0.68000  1.0000
  O   O13       1.0  0.81200  0.80100  0.72400  1.0000
  O   O14       1.0  0.13400  0.15800  0.75200  1.0000
  O   O15       1.0  0.39800  0.61600  0.83300  1.0000
  O   O16       1.0  0.99100  0.58100  0.85800  1.0000
  O   O17       1.0  0.64500  0.12100  0.92300  1.0000
  O   O18       1.0  0.57800  0.44100  0.99700  1.0000
  P   P1        1.0  0.60100  0.27400  0.05340  1.0000
  P   P2        1.0  0.86300  0.91900  0.18200  1.0000
  P   P3        1.0  0.38800  0.59800  0.43500  1.0000
  P   P4        1.0  0.67300  0.27400  0.55300  1.0000
  P   P5        1.0  0.05580  0.91900  0.68200  1.0000
  P   P6        1.0  0.21000  0.59800  0.93500  1.0000
