data_image0
_chemical_formula_structural       As4Be6H8O20
_chemical_formula_sum              "As4 Be6 H8 O20"
_cell_length_a       4.612
_cell_length_b       8.23157
_cell_length_c       9.85194
_cell_angle_alpha    91.9677
_cell_angle_beta     90
_cell_angle_gamma    106.269

_space_group_name_H-M_alt    "P 1"
_space_group_IT_number       1

loop_
  _space_group_symop_operation_xyz
  'x, y, z'

loop_
  _atom_site_type_symbol
  _atom_site_label
  _atom_site_symmetry_multiplicity
  _atom_site_fract_x
  _atom_site_fract_y
  _atom_site_fract_z
  _atom_site_occupancy
  As  As1       1.0  0.40600  0.69800  0.09190  1.0000
  As  As2       1.0  0.70800  0.30200  0.40800  1.0000
  As  As3       1.0  0.29200  0.69800  0.59200  1.0000
  As  As4       1.0  0.59400  0.30200  0.90800  1.0000
  Be  Be1       1.0  0.80700  0.49500  0.16100  1.0000
  Be  Be2       1.0  0.71700  0.00000  0.25000  1.0000
  Be  Be3       1.0  0.31300  0.50500  0.33900  1.0000
  Be  Be4       1.0  0.68700  0.49500  0.66100  1.0000
  Be  Be5       1.0  0.28300  0.00000  0.75000  1.0000
  Be  Be6       1.0  0.19300  0.50500  0.83900  1.0000
  H   H1        1.0  0.96300  0.19400  0.09690  1.0000
  H   H2        1.0  0.17600  0.06670  0.13700  1.0000
  H   H3        1.0  0.11000  0.93300  0.36300  1.0000
  H   H4        1.0  0.76900  0.80600  0.40300  1.0000
  H   H5        1.0  0.23100  0.19400  0.59700  1.0000
  H   H6        1.0  0.89000  0.06670  0.63700  1.0000
  H   H7        1.0  0.82400  0.93300  0.86300  1.0000
  H   H8        1.0  0.03720  0.80600  0.90300  1.0000
  O   O1        1.0  0.74000  0.32100  0.06800  1.0000
  O   O2        1.0  0.74100  0.65100  0.08950  1.0000
  O   O3        1.0  0.43800  0.89600  0.15500  1.0000
  O   O4        1.0  0.99600  0.10400  0.15600  1.0000
  O   O5        1.0  0.17100  0.55000  0.19700  1.0000
  O   O6        1.0  0.62100  0.45000  0.30300  1.0000
  O   O7        1.0  0.89200  0.89600  0.34400  1.0000
  O   O8        1.0  0.54200  0.10400  0.34500  1.0000
  O   O9        1.0  0.09010  0.34900  0.41000  1.0000
  O   O10       1.0  0.42000  0.67900  0.43200  1.0000
  O   O11       1.0  0.58000  0.32100  0.56800  1.0000
  O   O12       1.0  0.91000  0.65100  0.59000  1.0000
  O   O13       1.0  0.45800  0.89600  0.65500  1.0000
  O   O14       1.0  0.10800  0.10400  0.65600  1.0000
  O   O15       1.0  0.37900  0.55000  0.69700  1.0000
  O   O16       1.0  0.82900  0.45000  0.80300  1.0000
  O   O17       1.0  0.00418  0.89600  0.84400  1.0000
  O   O18       1.0  0.56200  0.10400  0.84500  1.0000
  O   O19       1.0  0.25900  0.34900  0.91000  1.0000
  O   O20       1.0  0.26000  0.67900  0.93200  1.0000
