data_image0
_chemical_formula_structural       Fe6Na2O24P6
_chemical_formula_sum              "Fe6 Na2 O24 P6"
_cell_length_a       6.46046
_cell_length_b       8.43148
_cell_length_c       8.43148
_cell_angle_alpha    92.9879
_cell_angle_beta     106.195
_cell_angle_gamma    106.195

_space_group_name_H-M_alt    "P 1"
_space_group_IT_number       1

loop_
  _space_group_symop_operation_xyz
  'x, y, z'

loop_
  _atom_site_type_symbol
  _atom_site_label
  _atom_site_symmetry_multiplicity
  _atom_site_fract_x
  _atom_site_fract_y
  _atom_site_fract_z
  _atom_site_occupancy
  Fe  Fe1       1.0  0.12200  0.38000  0.05340  1.0000
  Fe  Fe2       1.0  0.75000  0.71500  0.28500  1.0000
  Fe  Fe3       1.0  0.62200  0.05340  0.38000  1.0000
  Fe  Fe4       1.0  0.37800  0.94700  0.62000  1.0000
  Fe  Fe5       1.0  0.25000  0.28500  0.71500  1.0000
  Fe  Fe6       1.0  0.87800  0.62000  0.94700  1.0000
  Na  Na1       1.0  0.25000  0.97500  0.02520  1.0000
  Na  Na2       1.0  0.75000  0.02520  0.97500  1.0000
  O   O1        1.0  0.62300  0.68500  0.02060  1.0000
  O   O2        1.0  0.80100  0.38800  0.03260  1.0000
  O   O3        1.0  0.09910  0.16400  0.16100  1.0000
  O   O4        1.0  0.59900  0.16100  0.16400  1.0000
  O   O5        1.0  0.03270  0.72400  0.20100  1.0000
  O   O6        1.0  0.65100  0.47300  0.25800  1.0000
  O   O7        1.0  0.23500  0.50400  0.27400  1.0000
  O   O8        1.0  0.46700  0.79900  0.27600  1.0000
  O   O9        1.0  0.87700  0.97900  0.31500  1.0000
  O   O10       1.0  0.30100  0.03260  0.38800  1.0000
  O   O11       1.0  0.15100  0.25800  0.47300  1.0000
  O   O12       1.0  0.26500  0.72600  0.49600  1.0000
  O   O13       1.0  0.73500  0.27400  0.50400  1.0000
  O   O14       1.0  0.84900  0.74200  0.52700  1.0000
  O   O15       1.0  0.69900  0.96700  0.61200  1.0000
  O   O16       1.0  0.12300  0.02060  0.68500  1.0000
  O   O17       1.0  0.53300  0.20100  0.72400  1.0000
  O   O18       1.0  0.76500  0.49600  0.72600  1.0000
  O   O19       1.0  0.34900  0.52700  0.74200  1.0000
  O   O20       1.0  0.96700  0.27600  0.79900  1.0000
  O   O21       1.0  0.40100  0.83900  0.83600  1.0000
  O   O22       1.0  0.90100  0.83600  0.83900  1.0000
  O   O23       1.0  0.19900  0.61200  0.96700  1.0000
  O   O24       1.0  0.37700  0.31500  0.97900  1.0000
  P   P1        1.0  0.61000  0.33600  0.11500  1.0000
  P   P2        1.0  0.25000  0.68500  0.31500  1.0000
  P   P3        1.0  0.11000  0.11500  0.33600  1.0000
  P   P4        1.0  0.89000  0.88500  0.66400  1.0000
  P   P5        1.0  0.75000  0.31500  0.68500  1.0000
  P   P6        1.0  0.39000  0.66400  0.88500  1.0000
