data_image0
_chemical_formula_structural       As8Cu12S18
_chemical_formula_sum              "As8 Cu12 S18"
_cell_length_a       9.12028
_cell_length_b       9.87948
_cell_length_c       9.11542
_cell_angle_alpha    90.046
_cell_angle_beta     109.437
_cell_angle_gamma    107.78

_space_group_name_H-M_alt    "P 1"
_space_group_IT_number       1

loop_
  _space_group_symop_operation_xyz
  'x, y, z'

loop_
  _atom_site_type_symbol
  _atom_site_label
  _atom_site_symmetry_multiplicity
  _atom_site_fract_x
  _atom_site_fract_y
  _atom_site_fract_z
  _atom_site_occupancy
  As  As1       1.0  0.13000  0.01200  0.04470  1.0000
  As  As2       1.0  0.90400  0.01040  0.27600  1.0000
  As  As3       1.0  0.15500  0.79600  0.35200  1.0000
  As  As4       1.0  0.31700  0.17900  0.40800  1.0000
  As  As5       1.0  0.48300  0.58900  0.50000  1.0000
  As  As6       1.0  0.23500  0.57600  0.71700  1.0000
  As  As7       1.0  0.53800  0.42100  0.82100  1.0000
  As  As8       1.0  0.65400  0.79100  0.85300  1.0000
  Cu  Cu1       1.0  0.28000  0.39800  0.05770  1.0000
  Cu  Cu2       1.0  0.41100  0.79400  0.10600  1.0000
  Cu  Cu3       1.0  0.55700  0.18300  0.17100  1.0000
  Cu  Cu4       1.0  0.72100  0.60200  0.20300  1.0000
  Cu  Cu5       1.0  0.03280  0.38900  0.33300  1.0000
  Cu  Cu6       1.0  0.60600  0.98700  0.51200  1.0000
  Cu  Cu7       1.0  0.76100  0.40800  0.58200  1.0000
  Cu  Cu8       1.0  0.91200  0.79800  0.61000  1.0000
  Cu  Cu9       1.0  0.07440  0.19500  0.65900  1.0000
  Cu  Cu10      1.0  0.36700  0.98700  0.75600  1.0000
  Cu  Cu11      1.0  0.83400  0.19100  0.93900  1.0000
  Cu  Cu12      1.0  0.96400  0.60300  0.96500  1.0000
  S   S1        1.0  0.35700  0.99300  0.00457  1.0000
  S   S2        1.0  0.53100  0.39200  0.06580  1.0000
  S   S3        1.0  0.67100  0.80700  0.11900  1.0000
  S   S4        1.0  0.81700  0.19500  0.18200  1.0000
  S   S5        1.0  0.97400  0.58700  0.22200  1.0000
  S   S6        1.0  0.27900  0.40000  0.31200  1.0000
  S   S7        1.0  0.41400  0.78300  0.36000  1.0000
  S   S8        1.0  0.57300  0.19800  0.42600  1.0000
  S   S9        1.0  0.71200  0.59700  0.45500  1.0000
  S   S10       1.0  0.86200  0.99900  0.51000  1.0000
  S   S11       1.0  0.00804  0.39700  0.57500  1.0000
  S   S12       1.0  0.16100  0.78500  0.61500  1.0000
  S   S13       1.0  0.32900  0.19600  0.67000  1.0000
  S   S14       1.0  0.62700  0.99900  0.77200  1.0000
  S   S15       1.0  0.77700  0.38900  0.83500  1.0000
  S   S16       1.0  0.92300  0.80500  0.86500  1.0000
  S   S17       1.0  0.07520  0.19500  0.91200  1.0000
  S   S18       1.0  0.21000  0.59200  0.95700  1.0000
