data_image0
_chemical_formula_structural       B12La2Ni24
_chemical_formula_sum              "B12 La2 Ni24"
_cell_length_a       6.07777
_cell_length_b       6.07777
_cell_length_c       11.106
_cell_angle_alpha    90
_cell_angle_beta     90
_cell_angle_gamma    75.307

_space_group_name_H-M_alt    "P 1"
_space_group_IT_number       1

loop_
  _space_group_symop_operation_xyz
  'x, y, z'

loop_
  _atom_site_type_symbol
  _atom_site_label
  _atom_site_symmetry_multiplicity
  _atom_site_fract_x
  _atom_site_fract_y
  _atom_site_fract_z
  _atom_site_occupancy
  B   B1        1.0  0.48700  0.10100  0.12200  1.0000
  B   B2        1.0  0.89900  0.51300  0.12200  1.0000
  B   B3        1.0  0.98600  0.01410  0.16100  1.0000
  B   B4        1.0  0.33600  0.66400  0.33300  1.0000
  B   B5        1.0  0.25200  0.17600  0.38600  1.0000
  B   B6        1.0  0.82400  0.74800  0.38600  1.0000
  B   B7        1.0  0.10100  0.48700  0.62200  1.0000
  B   B8        1.0  0.51300  0.89900  0.62200  1.0000
  B   B9        1.0  0.01410  0.98600  0.66100  1.0000
  B   B10       1.0  0.66400  0.33600  0.83300  1.0000
  B   B11       1.0  0.17600  0.25200  0.88600  1.0000
  B   B12       1.0  0.74800  0.82400  0.88600  1.0000
  La  La1       1.0  0.66800  0.33200  0.50000  1.0000
  La  La2       1.0  0.33200  0.66800  0.00000  1.0000
  Ni  Ni1       1.0  0.15700  0.22500  0.06740  1.0000
  Ni  Ni2       1.0  0.77500  0.84300  0.06740  1.0000
  Ni  Ni3       1.0  0.72300  0.27700  0.10100  1.0000
  Ni  Ni4       1.0  0.03980  0.69500  0.23600  1.0000
  Ni  Ni5       1.0  0.30500  0.96000  0.23600  1.0000
  Ni  Ni6       1.0  0.38000  0.35400  0.25600  1.0000
  Ni  Ni7       1.0  0.64600  0.62000  0.25600  1.0000
  Ni  Ni8       1.0  0.71000  0.02440  0.27500  1.0000
  Ni  Ni9       1.0  0.97600  0.29000  0.27500  1.0000
  Ni  Ni10      1.0  0.06980  0.93000  0.41600  1.0000
  Ni  Ni11      1.0  0.13100  0.50600  0.43800  1.0000
  Ni  Ni12      1.0  0.49400  0.86900  0.43800  1.0000
  Ni  Ni13      1.0  0.22500  0.15700  0.56700  1.0000
  Ni  Ni14      1.0  0.84300  0.77500  0.56700  1.0000
  Ni  Ni15      1.0  0.27700  0.72300  0.60100  1.0000
  Ni  Ni16      1.0  0.69500  0.03980  0.73600  1.0000
  Ni  Ni17      1.0  0.96000  0.30500  0.73600  1.0000
  Ni  Ni18      1.0  0.35400  0.38000  0.75600  1.0000
  Ni  Ni19      1.0  0.62000  0.64600  0.75600  1.0000
  Ni  Ni20      1.0  0.02440  0.71000  0.77500  1.0000
  Ni  Ni21      1.0  0.29000  0.97600  0.77500  1.0000
  Ni  Ni22      1.0  0.93000  0.06980  0.91600  1.0000
  Ni  Ni23      1.0  0.50600  0.13100  0.93800  1.0000
  Ni  Ni24      1.0  0.86900  0.49400  0.93800  1.0000
