data_image0
_chemical_formula_structural       Cd2H8Na4O20Se4
_chemical_formula_sum              "Cd2 H8 Na4 O20 Se4"
_cell_length_a       5.95265
_cell_length_b       13.1377
_cell_length_c       5.72929
_cell_angle_alpha    90
_cell_angle_beta     106.209
_cell_angle_gamma    90

_space_group_name_H-M_alt    "P 1"
_space_group_IT_number       1

loop_
  _space_group_symop_operation_xyz
  'x, y, z'

loop_
  _atom_site_type_symbol
  _atom_site_label
  _atom_site_symmetry_multiplicity
  _atom_site_fract_x
  _atom_site_fract_y
  _atom_site_fract_z
  _atom_site_occupancy
  Cd  Cd1       1.0  0.00000  0.00000  0.00000  1.0000
  Cd  Cd2       1.0  0.00000  0.50000  0.50000  1.0000
  H   H1        1.0  0.90000  0.21200  0.00656  1.0000
  H   H2        1.0  0.31600  0.83800  0.18300  1.0000
  H   H3        1.0  0.68400  0.33800  0.31700  1.0000
  H   H4        1.0  0.10000  0.71200  0.49300  1.0000
  H   H5        1.0  0.90000  0.28800  0.50700  1.0000
  H   H6        1.0  0.31600  0.66200  0.68300  1.0000
  H   H7        1.0  0.68400  0.16200  0.81700  1.0000
  H   H8        1.0  0.10000  0.78800  0.99300  1.0000
  Na  Na1       1.0  0.58100  0.12000  0.24700  1.0000
  Na  Na2       1.0  0.41900  0.62000  0.25300  1.0000
  Na  Na3       1.0  0.58100  0.38000  0.74700  1.0000
  Na  Na4       1.0  0.41900  0.88000  0.75300  1.0000
  O   O1        1.0  0.97600  0.32900  0.01290  1.0000
  O   O2        1.0  0.19800  0.85100  0.02490  1.0000
  O   O3        1.0  0.45200  0.29400  0.08820  1.0000
  O   O4        1.0  0.74000  0.53600  0.13500  1.0000
  O   O5        1.0  0.69900  0.94300  0.15600  1.0000
  O   O6        1.0  0.30100  0.44300  0.34400  1.0000
  O   O7        1.0  0.26000  0.03580  0.36500  1.0000
  O   O8        1.0  0.54800  0.79400  0.41200  1.0000
  O   O9        1.0  0.80200  0.35100  0.47500  1.0000
  O   O10       1.0  0.02400  0.82900  0.48700  1.0000
  O   O11       1.0  0.97600  0.17100  0.51300  1.0000
  O   O12       1.0  0.19800  0.64900  0.52500  1.0000
  O   O13       1.0  0.45200  0.20600  0.58800  1.0000
  O   O14       1.0  0.74000  0.96400  0.63500  1.0000
  O   O15       1.0  0.69900  0.55700  0.65600  1.0000
  O   O16       1.0  0.30100  0.05740  0.84400  1.0000
  O   O17       1.0  0.26000  0.46400  0.86500  1.0000
  O   O18       1.0  0.54800  0.70600  0.91200  1.0000
  O   O19       1.0  0.80200  0.14900  0.97500  1.0000
  O   O20       1.0  0.02400  0.67100  0.98700  1.0000
  Se  Se1       1.0  0.24100  0.37900  0.07850  1.0000
  Se  Se2       1.0  0.75900  0.87900  0.42200  1.0000
  Se  Se3       1.0  0.24100  0.12100  0.57800  1.0000
  Se  Se4       1.0  0.75900  0.62100  0.92200  1.0000
