data_image0
_chemical_formula_structural       K7NbO24S6
_chemical_formula_sum              "K7 Nb1 O24 S6"
_cell_length_a       9.17149
_cell_length_b       9.17149
_cell_length_c       9.17149
_cell_angle_alpha    109.527
_cell_angle_beta     109.527
_cell_angle_gamma    109.527

_space_group_name_H-M_alt    "P 1"
_space_group_IT_number       1

loop_
  _space_group_symop_operation_xyz
  'x, y, z'

loop_
  _atom_site_type_symbol
  _atom_site_label
  _atom_site_symmetry_multiplicity
  _atom_site_fract_x
  _atom_site_fract_y
  _atom_site_fract_z
  _atom_site_occupancy
  K   K1        1.0  0.31300  0.65600  0.16100  1.0000
  K   K2        1.0  0.65600  0.16100  0.31300  1.0000
  K   K3        1.0  0.83900  0.68700  0.34400  1.0000
  K   K4        1.0  0.50000  0.50000  0.50000  1.0000
  K   K5        1.0  0.16100  0.31300  0.65600  1.0000
  K   K6        1.0  0.34400  0.83900  0.68700  1.0000
  K   K7        1.0  0.68700  0.34400  0.83900  1.0000
  Nb  Nb1       1.0  0.00000  0.00000  0.00000  1.0000
  O   O1        1.0  0.69200  0.64100  0.02150  1.0000
  O   O2        1.0  0.24300  0.10300  0.02680  1.0000
  O   O3        1.0  0.56200  0.82900  0.09250  1.0000
  O   O4        1.0  0.02680  0.24300  0.10300  1.0000
  O   O5        1.0  0.90800  0.43800  0.17100  1.0000
  O   O6        1.0  0.53600  0.36700  0.21800  1.0000
  O   O7        1.0  0.10300  0.02680  0.24300  1.0000
  O   O8        1.0  0.35900  0.97800  0.30800  1.0000
  O   O9        1.0  0.97800  0.30800  0.35900  1.0000
  O   O10       1.0  0.21800  0.53600  0.36700  1.0000
  O   O11       1.0  0.17100  0.90800  0.43800  1.0000
  O   O12       1.0  0.63300  0.78200  0.46400  1.0000
  O   O13       1.0  0.36700  0.21800  0.53600  1.0000
  O   O14       1.0  0.82900  0.09250  0.56200  1.0000
  O   O15       1.0  0.78200  0.46400  0.63300  1.0000
  O   O16       1.0  0.02150  0.69200  0.64100  1.0000
  O   O17       1.0  0.64100  0.02150  0.69200  1.0000
  O   O18       1.0  0.89700  0.97300  0.75700  1.0000
  O   O19       1.0  0.46400  0.63300  0.78200  1.0000
  O   O20       1.0  0.09250  0.56200  0.82900  1.0000
  O   O21       1.0  0.97300  0.75700  0.89700  1.0000
  O   O22       1.0  0.43800  0.17100  0.90800  1.0000
  O   O23       1.0  0.75700  0.89700  0.97300  1.0000
  O   O24       1.0  0.30800  0.35900  0.97800  1.0000
  S   S1        1.0  0.38900  0.25900  0.03150  1.0000
  S   S2        1.0  0.03150  0.38900  0.25900  1.0000
  S   S3        1.0  0.25900  0.03150  0.38900  1.0000
  S   S4        1.0  0.74100  0.96900  0.61100  1.0000
  S   S5        1.0  0.96900  0.61100  0.74100  1.0000
  S   S6        1.0  0.61100  0.74100  0.96900  1.0000
