data_image0
_chemical_formula_structural       Na6O24S6V2
_chemical_formula_sum              "Na6 O24 S6 V2"
_cell_length_a       8.23427
_cell_length_b       8.23427
_cell_length_c       8.23427
_cell_angle_alpha    107.394
_cell_angle_beta     107.394
_cell_angle_gamma    107.394

_space_group_name_H-M_alt    "P 1"
_space_group_IT_number       1

loop_
  _space_group_symop_operation_xyz
  'x, y, z'

loop_
  _atom_site_type_symbol
  _atom_site_label
  _atom_site_symmetry_multiplicity
  _atom_site_fract_x
  _atom_site_fract_y
  _atom_site_fract_z
  _atom_site_occupancy
  Na  Na1       1.0  0.75900  0.61900  0.14000  1.0000
  Na  Na2       1.0  0.38100  0.86000  0.24100  1.0000
  Na  Na3       1.0  0.86000  0.24100  0.38100  1.0000
  Na  Na4       1.0  0.14000  0.75900  0.61900  1.0000
  Na  Na5       1.0  0.61900  0.14000  0.75900  1.0000
  Na  Na6       1.0  0.24100  0.38100  0.86000  1.0000
  O   O1        1.0  0.75900  0.87500  0.02170  1.0000
  O   O2        1.0  0.47300  0.70900  0.03290  1.0000
  O   O3        1.0  0.97800  0.24100  0.12500  1.0000
  O   O4        1.0  0.18000  0.53400  0.13300  1.0000
  O   O5        1.0  0.53400  0.13300  0.18000  1.0000
  O   O6        1.0  0.48100  0.41900  0.23800  1.0000
  O   O7        1.0  0.12500  0.97800  0.24100  1.0000
  O   O8        1.0  0.96700  0.52700  0.29100  1.0000
  O   O9        1.0  0.23800  0.48100  0.41900  1.0000
  O   O10       1.0  0.86700  0.82000  0.46600  1.0000
  O   O11       1.0  0.70900  0.03290  0.47300  1.0000
  O   O12       1.0  0.41900  0.23800  0.48100  1.0000
  O   O13       1.0  0.58100  0.76200  0.51900  1.0000
  O   O14       1.0  0.29100  0.96700  0.52700  1.0000
  O   O15       1.0  0.13300  0.18000  0.53400  1.0000
  O   O16       1.0  0.76200  0.51900  0.58100  1.0000
  O   O17       1.0  0.03290  0.47300  0.70900  1.0000
  O   O18       1.0  0.87500  0.02170  0.75900  1.0000
  O   O19       1.0  0.51900  0.58100  0.76200  1.0000
  O   O20       1.0  0.46600  0.86700  0.82000  1.0000
  O   O21       1.0  0.82000  0.46600  0.86700  1.0000
  O   O22       1.0  0.02170  0.75900  0.87500  1.0000
  O   O23       1.0  0.52700  0.29100  0.96700  1.0000
  O   O24       1.0  0.24100  0.12500  0.97800  1.0000
  S   S1        1.0  0.45200  0.23600  0.09350  1.0000
  S   S2        1.0  0.09350  0.45200  0.23600  1.0000
  S   S3        1.0  0.23600  0.09350  0.45200  1.0000
  S   S4        1.0  0.76400  0.90700  0.54800  1.0000
  S   S5        1.0  0.90700  0.54800  0.76400  1.0000
  S   S6        1.0  0.54800  0.76400  0.90700  1.0000
  V   V1        1.0  0.00000  0.00000  0.00000  1.0000
  V   V2        1.0  0.50000  0.50000  0.50000  1.0000
