data_image0
_chemical_formula_structural       Ca2Na4O24P8
_chemical_formula_sum              "Ca2 Na4 O24 P8"
_cell_length_a       9.57507
_cell_length_b       9.57507
_cell_length_c       4.88446
_cell_angle_alpha    90
_cell_angle_beta     90
_cell_angle_gamma    90

_space_group_name_H-M_alt    "P 1"
_space_group_IT_number       1

loop_
  _space_group_symop_operation_xyz
  'x, y, z'

loop_
  _atom_site_type_symbol
  _atom_site_label
  _atom_site_symmetry_multiplicity
  _atom_site_fract_x
  _atom_site_fract_y
  _atom_site_fract_z
  _atom_site_occupancy
  Ca  Ca1       1.0  0.25000  0.25000  0.50000  1.0000
  Ca  Ca2       1.0  0.75000  0.75000  0.50000  1.0000
  Na  Na1       1.0  0.00000  0.00000  0.50000  1.0000
  Na  Na2       1.0  0.50000  0.00000  0.50000  1.0000
  Na  Na3       1.0  0.00000  0.50000  0.50000  1.0000
  Na  Na4       1.0  0.50000  0.50000  0.50000  1.0000
  O   O1        1.0  0.86300  0.13700  0.13600  1.0000
  O   O2        1.0  0.63700  0.36300  0.13600  1.0000
  O   O3        1.0  0.13700  0.63700  0.13600  1.0000
  O   O4        1.0  0.36300  0.86300  0.13600  1.0000
  O   O5        1.0  0.18700  0.04550  0.23600  1.0000
  O   O6        1.0  0.45500  0.18700  0.23600  1.0000
  O   O7        1.0  0.04550  0.31300  0.23600  1.0000
  O   O8        1.0  0.31300  0.45500  0.23600  1.0000
  O   O9        1.0  0.81300  0.54500  0.23600  1.0000
  O   O10       1.0  0.54500  0.68700  0.23600  1.0000
  O   O11       1.0  0.95500  0.81300  0.23600  1.0000
  O   O12       1.0  0.68700  0.95500  0.23600  1.0000
  O   O13       1.0  0.31300  0.04550  0.76400  1.0000
  O   O14       1.0  0.04550  0.18700  0.76400  1.0000
  O   O15       1.0  0.45500  0.31300  0.76400  1.0000
  O   O16       1.0  0.18700  0.45500  0.76400  1.0000
  O   O17       1.0  0.68700  0.54500  0.76400  1.0000
  O   O18       1.0  0.95500  0.68700  0.76400  1.0000
  O   O19       1.0  0.54500  0.81300  0.76400  1.0000
  O   O20       1.0  0.81300  0.95500  0.76400  1.0000
  O   O21       1.0  0.63700  0.13700  0.86400  1.0000
  O   O22       1.0  0.86300  0.36300  0.86400  1.0000
  O   O23       1.0  0.36300  0.63700  0.86400  1.0000
  O   O24       1.0  0.13700  0.86300  0.86400  1.0000
  P   P1        1.0  0.75000  0.03060  0.00000  1.0000
  P   P2        1.0  0.53100  0.25000  0.00000  1.0000
  P   P3        1.0  0.96900  0.25000  0.00000  1.0000
  P   P4        1.0  0.75000  0.46900  0.00000  1.0000
  P   P5        1.0  0.25000  0.53100  0.00000  1.0000
  P   P6        1.0  0.03060  0.75000  0.00000  1.0000
  P   P7        1.0  0.46900  0.75000  0.00000  1.0000
  P   P8        1.0  0.25000  0.96900  0.00000  1.0000
