data_image0
_chemical_formula_structural       As4F24N4S6
_chemical_formula_sum              "As4 F24 N4 S6"
_cell_length_a       7.26231
_cell_length_b       7.26231
_cell_length_c       9.96993
_cell_angle_alpha    92.2764
_cell_angle_beta     92.2764
_cell_angle_gamma    67.872

_space_group_name_H-M_alt    "P 1"
_space_group_IT_number       1

loop_
  _space_group_symop_operation_xyz
  'x, y, z'

loop_
  _atom_site_type_symbol
  _atom_site_label
  _atom_site_symmetry_multiplicity
  _atom_site_fract_x
  _atom_site_fract_y
  _atom_site_fract_z
  _atom_site_occupancy
  As  As1       1.0  0.68300  0.31700  0.00000  1.0000
  As  As2       1.0  0.01100  0.71800  0.25200  1.0000
  As  As3       1.0  0.67900  0.32100  0.50000  1.0000
  As  As4       1.0  0.28200  0.98900  0.74800  1.0000
  F   F1        1.0  0.56300  0.19300  0.09070  1.0000
  F   F2        1.0  0.59200  0.52900  0.10500  1.0000
  F   F3        1.0  0.89300  0.21700  0.10700  1.0000
  F   F4        1.0  0.82500  0.80400  0.12400  1.0000
  F   F5        1.0  0.19500  0.63500  0.12900  1.0000
  F   F6        1.0  0.98500  0.48300  0.23900  1.0000
  F   F7        1.0  0.03260  0.94900  0.27000  1.0000
  F   F8        1.0  0.60700  0.25700  0.34000  1.0000
  F   F9        1.0  0.82400  0.79100  0.37200  1.0000
  F   F10       1.0  0.19800  0.62400  0.37700  1.0000
  F   F11       1.0  0.92200  0.26100  0.44700  1.0000
  F   F12       1.0  0.61900  0.56800  0.44800  1.0000
  F   F13       1.0  0.43200  0.38100  0.55200  1.0000
  F   F14       1.0  0.73900  0.07760  0.55300  1.0000
  F   F15       1.0  0.37600  0.80200  0.62300  1.0000
  F   F16       1.0  0.20900  0.17600  0.62800  1.0000
  F   F17       1.0  0.74300  0.39300  0.66000  1.0000
  F   F18       1.0  0.05110  0.96700  0.72900  1.0000
  F   F19       1.0  0.51700  0.01470  0.76100  1.0000
  F   F20       1.0  0.36500  0.80500  0.87100  1.0000
  F   F21       1.0  0.19600  0.17500  0.87600  1.0000
  F   F22       1.0  0.78300  0.10700  0.89300  1.0000
  F   F23       1.0  0.47100  0.40800  0.89500  1.0000
  F   F24       1.0  0.80700  0.43700  0.90900  1.0000
  N   N1        1.0  0.37400  0.94700  0.13300  1.0000
  N   N2        1.0  0.39700  0.97800  0.38200  1.0000
  N   N3        1.0  0.02220  0.60300  0.61800  1.0000
  N   N4        1.0  0.05350  0.62600  0.86700  1.0000
  S   S1        1.0  0.24600  0.17200  0.14500  1.0000
  S   S2        1.0  0.46500  0.81700  0.26200  1.0000
  S   S3        1.0  0.26400  0.19800  0.35600  1.0000
  S   S4        1.0  0.80200  0.73600  0.64400  1.0000
  S   S5        1.0  0.18300  0.53500  0.73800  1.0000
  S   S6        1.0  0.82800  0.75400  0.85500  1.0000
