data_image0
_chemical_formula_structural       Nb2O23Rb4Si8
_chemical_formula_sum              "Nb2 O23 Rb4 Si8"
_cell_length_a       6.88099
_cell_length_b       7.7223
_cell_length_c       11.0746
_cell_angle_alpha    76.3023
_cell_angle_beta     89.137
_cell_angle_gamma    72.0626

_space_group_name_H-M_alt    "P 1"
_space_group_IT_number       1

loop_
  _space_group_symop_operation_xyz
  'x, y, z'

loop_
  _atom_site_type_symbol
  _atom_site_label
  _atom_site_symmetry_multiplicity
  _atom_site_fract_x
  _atom_site_fract_y
  _atom_site_fract_z
  _atom_site_occupancy
  Nb  Nb1       1.0  0.21700  0.26000  0.18100  1.0000
  Nb  Nb2       1.0  0.78300  0.74000  0.81900  1.0000
  O   O1        1.0  0.23000  0.19800  0.01070  1.0000
  O   O2        1.0  0.94100  0.45300  0.13600  1.0000
  O   O3        1.0  0.37700  0.40800  0.14400  1.0000
  O   O4        1.0  0.97100  0.75600  0.20000  1.0000
  O   O5        1.0  0.62000  0.68100  0.20700  1.0000
  O   O6        1.0  0.01810  0.07950  0.21400  1.0000
  O   O7        1.0  0.46300  0.02310  0.24500  1.0000
  O   O8        1.0  0.28900  0.74600  0.32900  1.0000
  O   O9        1.0  0.18400  0.26800  0.36000  1.0000
  O   O10       1.0  0.92600  0.86400  0.41600  1.0000
  O   O11       1.0  0.62000  0.72100  0.44000  1.0000
  O   O12       1.0  0.00000  0.50000  0.50000  1.0000
  O   O13       1.0  0.38100  0.27900  0.56000  1.0000
  O   O14       1.0  0.07360  0.13600  0.58400  1.0000
  O   O15       1.0  0.81600  0.73200  0.64000  1.0000
  O   O16       1.0  0.71100  0.25400  0.67100  1.0000
  O   O17       1.0  0.53700  0.97700  0.75500  1.0000
  O   O18       1.0  0.98200  0.92100  0.78600  1.0000
  O   O19       1.0  0.38000  0.31900  0.79300  1.0000
  O   O20       1.0  0.02850  0.24400  0.80000  1.0000
  O   O21       1.0  0.62300  0.59200  0.85600  1.0000
  O   O22       1.0  0.05900  0.54700  0.86400  1.0000
  O   O23       1.0  0.77000  0.80200  0.98900  1.0000
  Rb  Rb1       1.0  0.71100  0.21900  0.01000  1.0000
  Rb  Rb2       1.0  0.68200  0.28100  0.35500  1.0000
  Rb  Rb3       1.0  0.31800  0.71900  0.64500  1.0000
  Rb  Rb4       1.0  0.28900  0.78100  0.99000  1.0000
  Si  Si1       1.0  0.82900  0.67200  0.12900  1.0000
  Si  Si2       1.0  0.04900  0.86800  0.28700  1.0000
  Si  Si3       1.0  0.49800  0.80400  0.30200  1.0000
  Si  Si4       1.0  0.15900  0.29700  0.49700  1.0000
  Si  Si5       1.0  0.84100  0.70300  0.50300  1.0000
  Si  Si6       1.0  0.50200  0.19600  0.69800  1.0000
  Si  Si7       1.0  0.95100  0.13200  0.71300  1.0000
  Si  Si8       1.0  0.17100  0.32800  0.87100  1.0000
