data_image0
_chemical_formula_structural       AlSi2Y2
_chemical_formula_sum              "Al1 Si2 Y2"
_cell_length_a       4.06997
_cell_length_b       5.60796
_cell_length_c       5.60796
_cell_angle_alpha    102.071
_cell_angle_beta     111.277
_cell_angle_gamma    111.277

_space_group_name_H-M_alt    "P 1"
_space_group_IT_number       1

loop_
  _space_group_symop_operation_xyz
  'x, y, z'

loop_
  _atom_site_type_symbol
  _atom_site_label
  _atom_site_symmetry_multiplicity
  _atom_site_fract_x
  _atom_site_fract_y
  _atom_site_fract_z
  _atom_site_occupancy
  Al  Al1       1.0  0.00000  0.00000  0.00000  1.0000
  Si  Si1       1.0  0.79000  0.29000  0.29000  1.0000
  Si  Si2       1.0  0.21000  0.71000  0.71000  1.0000
  Y   Y1        1.0  0.50000  0.71100  0.28900  1.0000
  Y   Y2        1.0  0.50000  0.28900  0.71100  1.0000
