data_image0
_chemical_formula_structural       H2K7NO22P6
_chemical_formula_sum              "H2 K7 N1 O22 P6"
_cell_length_a       9.56771
_cell_length_b       9.62731
_cell_length_c       6.45446
_cell_angle_alpha    107.035
_cell_angle_beta     106.334
_cell_angle_gamma    75.728

_space_group_name_H-M_alt    "P 1"
_space_group_IT_number       1

loop_
  _space_group_symop_operation_xyz
  'x, y, z'

loop_
  _atom_site_type_symbol
  _atom_site_label
  _atom_site_symmetry_multiplicity
  _atom_site_fract_x
  _atom_site_fract_y
  _atom_site_fract_z
  _atom_site_occupancy
  H   H1        1.0  0.48200  0.54500  0.22200  1.0000
  H   H2        1.0  0.50800  0.52300  0.46500  1.0000
  K   K1        1.0  0.16500  0.55600  0.24800  1.0000
  K   K2        1.0  0.55300  0.16200  0.28500  1.0000
  K   K3        1.0  0.71800  0.72300  0.32800  1.0000
  K   K4        1.0  0.99900  0.99500  0.50100  1.0000
  K   K5        1.0  0.27000  0.26400  0.65600  1.0000
  K   K6        1.0  0.45300  0.83700  0.71900  1.0000
  K   K7        1.0  0.84900  0.45200  0.75800  1.0000
  N   N1        1.0  0.50900  0.47600  0.82900  1.0000
  O   O1        1.0  0.20600  0.00879  0.00850  1.0000
  O   O2        1.0  0.24100  0.75700  0.06590  1.0000
  O   O3        1.0  0.92500  0.77200  0.14700  1.0000
  O   O4        1.0  0.46300  0.88900  0.17200  1.0000
  O   O5        1.0  0.01710  0.18700  0.19700  1.0000
  O   O6        1.0  0.88600  0.45200  0.20500  1.0000
  O   O7        1.0  0.25900  0.26500  0.22800  1.0000
  O   O8        1.0  0.79500  0.27700  0.36000  1.0000
  O   O9        1.0  0.49400  0.59900  0.38100  1.0000
  O   O10       1.0  0.26300  0.97100  0.40500  1.0000
  O   O11       1.0  0.73600  0.03210  0.60000  1.0000
  O   O12       1.0  0.49100  0.40400  0.62500  1.0000
  O   O13       1.0  0.21100  0.72200  0.64800  1.0000
  O   O14       1.0  0.74600  0.74100  0.75700  1.0000
  O   O15       1.0  0.11500  0.55100  0.80300  1.0000
  O   O16       1.0  0.99000  0.81900  0.81400  1.0000
  O   O17       1.0  0.54000  0.11600  0.84000  1.0000
  O   O18       1.0  0.07130  0.22300  0.84800  1.0000
  O   O19       1.0  0.58500  0.57700  0.90000  1.0000
  O   O20       1.0  0.76400  0.24500  0.94100  1.0000
  O   O21       1.0  0.44800  0.44400  0.95500  1.0000
  O   O22       1.0  0.79700  0.99300  0.99800  1.0000
  P   P1        1.0  0.14200  0.18400  0.06650  1.0000
  P   P2        1.0  0.30500  0.91000  0.18500  1.0000
  P   P3        1.0  0.86000  0.30300  0.19200  1.0000
  P   P4        1.0  0.14400  0.69900  0.81500  1.0000
  P   P5        1.0  0.69700  0.09280  0.82300  1.0000
  P   P6        1.0  0.86100  0.81800  0.93200  1.0000
