data_image0
_chemical_formula_structural       Al24Ce6Ru8
_chemical_formula_sum              "Al24 Ce6 Ru8"
_cell_length_a       8.94534
_cell_length_b       8.94535
_cell_length_c       9.78038
_cell_angle_alpha    90
_cell_angle_beta     90
_cell_angle_gamma    120

_space_group_name_H-M_alt    "P 1"
_space_group_IT_number       1

loop_
  _space_group_symop_operation_xyz
  'x, y, z'

loop_
  _atom_site_type_symbol
  _atom_site_label
  _atom_site_symmetry_multiplicity
  _atom_site_fract_x
  _atom_site_fract_y
  _atom_site_fract_z
  _atom_site_occupancy
  Al  Al1       1.0  0.33300  0.66700  0.00672  1.0000
  Al  Al2       1.0  0.32600  0.16300  0.07470  1.0000
  Al  Al3       1.0  0.83700  0.16300  0.07470  1.0000
  Al  Al4       1.0  0.83700  0.67400  0.07470  1.0000
  Al  Al5       1.0  0.00000  0.00000  0.25000  1.0000
  Al  Al6       1.0  0.56300  0.12600  0.25000  1.0000
  Al  Al7       1.0  0.56300  0.43700  0.25000  1.0000
  Al  Al8       1.0  0.87400  0.43700  0.25000  1.0000
  Al  Al9       1.0  0.83700  0.67400  0.42500  1.0000
  Al  Al10      1.0  0.32600  0.16300  0.42500  1.0000
  Al  Al11      1.0  0.83700  0.16300  0.42500  1.0000
  Al  Al12      1.0  0.33300  0.66700  0.49300  1.0000
  Al  Al13      1.0  0.66700  0.33300  0.50700  1.0000
  Al  Al14      1.0  0.16300  0.83700  0.57500  1.0000
  Al  Al15      1.0  0.67400  0.83700  0.57500  1.0000
  Al  Al16      1.0  0.16300  0.32600  0.57500  1.0000
  Al  Al17      1.0  0.00000  0.00000  0.75000  1.0000
  Al  Al18      1.0  0.12600  0.56300  0.75000  1.0000
  Al  Al19      1.0  0.43700  0.56300  0.75000  1.0000
  Al  Al20      1.0  0.43700  0.87400  0.75000  1.0000
  Al  Al21      1.0  0.16300  0.32600  0.92500  1.0000
  Al  Al22      1.0  0.16300  0.83700  0.92500  1.0000
  Al  Al23      1.0  0.67400  0.83700  0.92500  1.0000
  Al  Al24      1.0  0.66700  0.33300  0.99300  1.0000
  Ce  Ce1       1.0  0.19200  0.38400  0.25000  1.0000
  Ce  Ce2       1.0  0.19200  0.80800  0.25000  1.0000
  Ce  Ce3       1.0  0.61600  0.80800  0.25000  1.0000
  Ce  Ce4       1.0  0.38400  0.19200  0.75000  1.0000
  Ce  Ce5       1.0  0.80800  0.19200  0.75000  1.0000
  Ce  Ce6       1.0  0.80800  0.61600  0.75000  1.0000
  Ru  Ru1       1.0  0.00000  0.00000  0.00000  1.0000
  Ru  Ru2       1.0  0.50000  0.00000  0.00000  1.0000
  Ru  Ru3       1.0  0.00000  0.50000  0.00000  1.0000
  Ru  Ru4       1.0  0.50000  0.50000  0.00000  1.0000
  Ru  Ru5       1.0  0.00000  0.00000  0.50000  1.0000
  Ru  Ru6       1.0  0.50000  0.00000  0.50000  1.0000
  Ru  Ru7       1.0  0.00000  0.50000  0.50000  1.0000
  Ru  Ru8       1.0  0.50000  0.50000  0.50000  1.0000
