data_image0
_chemical_formula_structural       B10Ca2Na6O20
_chemical_formula_sum              "B10 Ca2 Na6 O20"
_cell_length_a       7.35557
_cell_length_b       7.3959
_cell_length_c       11.045
_cell_angle_alpha    120.326
_cell_angle_beta     61.5374
_cell_angle_gamma    119.974

_space_group_name_H-M_alt    "P 1"
_space_group_IT_number       1

loop_
  _space_group_symop_operation_xyz
  'x, y, z'

loop_
  _atom_site_type_symbol
  _atom_site_label
  _atom_site_symmetry_multiplicity
  _atom_site_fract_x
  _atom_site_fract_y
  _atom_site_fract_z
  _atom_site_occupancy
  B   B1        1.0  0.30200  0.20200  0.07830  1.0000
  B   B2        1.0  0.23000  0.53100  0.13200  1.0000
  B   B3        1.0  0.41800  0.56400  0.28600  1.0000
  B   B4        1.0  0.73600  0.84400  0.39400  1.0000
  B   B5        1.0  0.62900  0.31100  0.44400  1.0000
  B   B6        1.0  0.37100  0.68900  0.55600  1.0000
  B   B7        1.0  0.26400  0.15600  0.60600  1.0000
  B   B8        1.0  0.58200  0.43600  0.71400  1.0000
  B   B9        1.0  0.77000  0.46900  0.86800  1.0000
  B   B10       1.0  0.69800  0.79800  0.92200  1.0000
  Ca  Ca1       1.0  0.78000  0.37300  0.12000  1.0000
  Ca  Ca2       1.0  0.22000  0.62700  0.88000  1.0000
  Na  Na1       1.0  0.84600  0.98500  0.17200  1.0000
  Na  Na2       1.0  0.28700  0.99500  0.24400  1.0000
  Na  Na3       1.0  0.00657  0.68000  0.44800  1.0000
  Na  Na4       1.0  0.99300  0.32000  0.55200  1.0000
  Na  Na5       1.0  0.71300  0.00543  0.75600  1.0000
  Na  Na6       1.0  0.15400  0.01480  0.82800  1.0000
  O   O1        1.0  0.27500  0.98900  0.00115  1.0000
  O   O2        1.0  0.21200  0.30600  0.05370  1.0000
  O   O3        1.0  0.13900  0.61800  0.10400  1.0000
  O   O4        1.0  0.40500  0.32800  0.18900  1.0000
  O   O5        1.0  0.33300  0.65600  0.24000  1.0000
  O   O6        1.0  0.65200  0.69200  0.27300  1.0000
  O   O7        1.0  0.76100  0.32500  0.31200  1.0000
  O   O8        1.0  0.93500  0.99500  0.37300  1.0000
  O   O9        1.0  0.28600  0.57200  0.43700  1.0000
  O   O10       1.0  0.40400  0.17700  0.46700  1.0000
  O   O11       1.0  0.59600  0.82300  0.53300  1.0000
  O   O12       1.0  0.71400  0.42800  0.56300  1.0000
  O   O13       1.0  0.06540  0.00525  0.62700  1.0000
  O   O14       1.0  0.23900  0.67500  0.68800  1.0000
  O   O15       1.0  0.34800  0.30800  0.72700  1.0000
  O   O16       1.0  0.66700  0.34400  0.76000  1.0000
  O   O17       1.0  0.59500  0.67200  0.81100  1.0000
  O   O18       1.0  0.86100  0.38200  0.89600  1.0000
  O   O19       1.0  0.78800  0.69400  0.94600  1.0000
  O   O20       1.0  0.72500  0.01150  0.99900  1.0000
