data_image0
_chemical_formula_structural       Ir8Lu10Si20
_chemical_formula_sum              "Ir8 Lu10 Si20"
_cell_length_a       12.5483
_cell_length_b       12.5483
_cell_length_c       4.20129
_cell_angle_alpha    90
_cell_angle_beta     90
_cell_angle_gamma    90

_space_group_name_H-M_alt    "P 1"
_space_group_IT_number       1

loop_
  _space_group_symop_operation_xyz
  'x, y, z'

loop_
  _atom_site_type_symbol
  _atom_site_label
  _atom_site_symmetry_multiplicity
  _atom_site_fract_x
  _atom_site_fract_y
  _atom_site_fract_z
  _atom_site_occupancy
  Ir  Ir1       1.0  0.75400  0.01960  0.00000  1.0000
  Ir  Ir2       1.0  0.01960  0.24600  0.00000  1.0000
  Ir  Ir3       1.0  0.52000  0.25400  0.00000  1.0000
  Ir  Ir4       1.0  0.25400  0.48000  0.00000  1.0000
  Ir  Ir5       1.0  0.74600  0.52000  0.00000  1.0000
  Ir  Ir6       1.0  0.48000  0.74600  0.00000  1.0000
  Ir  Ir7       1.0  0.98000  0.75400  0.00000  1.0000
  Ir  Ir8       1.0  0.24600  0.98000  0.00000  1.0000
  Lu  Lu1       1.0  0.00000  0.00000  0.00000  1.0000
  Lu  Lu2       1.0  0.50000  0.50000  0.00000  1.0000
  Lu  Lu3       1.0  0.38400  0.11600  0.50000  1.0000
  Lu  Lu4       1.0  0.67400  0.17400  0.50000  1.0000
  Lu  Lu5       1.0  0.17400  0.32600  0.50000  1.0000
  Lu  Lu6       1.0  0.88400  0.38400  0.50000  1.0000
  Lu  Lu7       1.0  0.11600  0.61600  0.50000  1.0000
  Lu  Lu8       1.0  0.82600  0.67400  0.50000  1.0000
  Lu  Lu9       1.0  0.32600  0.82600  0.50000  1.0000
  Lu  Lu10      1.0  0.61600  0.88400  0.50000  1.0000
  Si  Si1       1.0  0.56600  0.06600  0.00000  1.0000
  Si  Si2       1.0  0.20100  0.16500  0.00000  1.0000
  Si  Si3       1.0  0.83500  0.20100  0.00000  1.0000
  Si  Si4       1.0  0.33500  0.29900  0.00000  1.0000
  Si  Si5       1.0  0.70100  0.33500  0.00000  1.0000
  Si  Si6       1.0  0.06600  0.43400  0.00000  1.0000
  Si  Si7       1.0  0.93400  0.56600  0.00000  1.0000
  Si  Si8       1.0  0.29900  0.66500  0.00000  1.0000
  Si  Si9       1.0  0.66500  0.70100  0.00000  1.0000
  Si  Si10      1.0  0.16500  0.79900  0.00000  1.0000
  Si  Si11      1.0  0.79900  0.83500  0.00000  1.0000
  Si  Si12      1.0  0.43400  0.93400  0.00000  1.0000
  Si  Si13      1.0  0.84500  0.00357  0.50000  1.0000
  Si  Si14      1.0  0.00357  0.15500  0.50000  1.0000
  Si  Si15      1.0  0.50400  0.34500  0.50000  1.0000
  Si  Si16      1.0  0.34500  0.49600  0.50000  1.0000
  Si  Si17      1.0  0.65500  0.50400  0.50000  1.0000
  Si  Si18      1.0  0.49600  0.65500  0.50000  1.0000
  Si  Si19      1.0  0.99600  0.84500  0.50000  1.0000
  Si  Si20      1.0  0.15500  0.99600  0.50000  1.0000
