data_image0
_chemical_formula_structural       F24Li2Mn6Rb4
_chemical_formula_sum              "F24 Li2 Mn6 Rb4"
_cell_length_a       6.60579
_cell_length_b       7.32483
_cell_length_c       9.81358
_cell_angle_alpha    89.095
_cell_angle_beta     85.6586
_cell_angle_gamma    90.6558

_space_group_name_H-M_alt    "P 1"
_space_group_IT_number       1

loop_
  _space_group_symop_operation_xyz
  'x, y, z'

loop_
  _atom_site_type_symbol
  _atom_site_label
  _atom_site_symmetry_multiplicity
  _atom_site_fract_x
  _atom_site_fract_y
  _atom_site_fract_z
  _atom_site_occupancy
  F   F1        1.0  0.59400  0.24000  0.01030  1.0000
  F   F2        1.0  0.75100  0.55900  0.06620  1.0000
  F   F3        1.0  0.77400  0.93200  0.08820  1.0000
  F   F4        1.0  0.07530  0.70700  0.14800  1.0000
  F   F5        1.0  0.35400  0.02380  0.16900  1.0000
  F   F6        1.0  0.38700  0.47400  0.17400  1.0000
  F   F7        1.0  0.57000  0.78300  0.30900  1.0000
  F   F8        1.0  0.94900  0.95400  0.31900  1.0000
  F   F9        1.0  0.83100  0.52800  0.33000  1.0000
  F   F10       1.0  0.23100  0.59600  0.41100  1.0000
  F   F11       1.0  0.07160  0.26800  0.43100  1.0000
  F   F12       1.0  0.26800  0.95300  0.45800  1.0000
  F   F13       1.0  0.73200  0.04740  0.54200  1.0000
  F   F14       1.0  0.92800  0.73200  0.56900  1.0000
  F   F15       1.0  0.76900  0.40400  0.58900  1.0000
  F   F16       1.0  0.16900  0.47200  0.67000  1.0000
  F   F17       1.0  0.05120  0.04640  0.68100  1.0000
  F   F18       1.0  0.43000  0.21700  0.69100  1.0000
  F   F19       1.0  0.61300  0.52600  0.82600  1.0000
  F   F20       1.0  0.64600  0.97600  0.83100  1.0000
  F   F21       1.0  0.92500  0.29300  0.85200  1.0000
  F   F22       1.0  0.22600  0.06850  0.91200  1.0000
  F   F23       1.0  0.24900  0.44100  0.93400  1.0000
  F   F24       1.0  0.40600  0.76000  0.99000  1.0000
  Li  Li1       1.0  0.29400  0.77800  0.26300  1.0000
  Li  Li2       1.0  0.70600  0.22200  0.73700  1.0000
  Mn  Mn1       1.0  0.50000  0.00000  0.00000  1.0000
  Mn  Mn2       1.0  0.50000  0.50000  0.00000  1.0000
  Mn  Mn3       1.0  0.81600  0.74200  0.21800  1.0000
  Mn  Mn4       1.0  0.00000  0.50000  0.50000  1.0000
  Mn  Mn5       1.0  0.00000  0.00000  0.50000  1.0000
  Mn  Mn6       1.0  0.18400  0.25800  0.78200  1.0000
  Rb  Rb1       1.0  0.00831  0.26000  0.13900  1.0000
  Rb  Rb2       1.0  0.50100  0.26000  0.38500  1.0000
  Rb  Rb3       1.0  0.49900  0.74000  0.61500  1.0000
  Rb  Rb4       1.0  0.99200  0.74000  0.86100  1.0000
