data_image0
_chemical_formula_structural       Ba5Ho8O21Zn4
_chemical_formula_sum              "Ba5 Ho8 O21 Zn4"
_cell_length_a       5.69218
_cell_length_b       10.1157
_cell_length_c       10.1157
_cell_angle_alpha    94.5403
_cell_angle_beta     106.341
_cell_angle_gamma    73.659

_space_group_name_H-M_alt    "P 1"
_space_group_IT_number       1

loop_
  _space_group_symop_operation_xyz
  'x, y, z'

loop_
  _atom_site_type_symbol
  _atom_site_label
  _atom_site_symmetry_multiplicity
  _atom_site_fract_x
  _atom_site_fract_y
  _atom_site_fract_z
  _atom_site_occupancy
  Ba  Ba1       1.0  0.00000  0.00000  0.00000  1.0000
  Ba  Ba2       1.0  0.86100  0.60400  0.32500  1.0000
  Ba  Ba3       1.0  0.53600  0.32500  0.39600  1.0000
  Ba  Ba4       1.0  0.46400  0.67500  0.60400  1.0000
  Ba  Ba5       1.0  0.13900  0.39600  0.67500  1.0000
  Ho  Ho1       1.0  0.41200  0.23100  0.05420  1.0000
  Ho  Ho2       1.0  0.24800  0.58500  0.07960  1.0000
  Ho  Ho3       1.0  0.64300  0.94600  0.23100  1.0000
  Ho  Ho4       1.0  0.16800  0.07960  0.41500  1.0000
  Ho  Ho5       1.0  0.83200  0.92000  0.58500  1.0000
  Ho  Ho6       1.0  0.35700  0.05420  0.76900  1.0000
  Ho  Ho7       1.0  0.75200  0.41500  0.92000  1.0000
  Ho  Ho8       1.0  0.58800  0.76900  0.94600  1.0000
  O   O1        1.0  0.50000  0.00000  0.00000  1.0000
  O   O2        1.0  0.09960  0.40700  0.11000  1.0000
  O   O3        1.0  0.60300  0.40700  0.11000  1.0000
  O   O4        1.0  0.42700  0.77500  0.12900  1.0000
  O   O5        1.0  0.92700  0.77500  0.12900  1.0000
  O   O6        1.0  0.29800  0.12900  0.22500  1.0000
  O   O7        1.0  0.79800  0.12900  0.22500  1.0000
  O   O8        1.0  0.37200  0.58900  0.33400  1.0000
  O   O9        1.0  0.01010  0.89000  0.40700  1.0000
  O   O10       1.0  0.50600  0.89000  0.40700  1.0000
  O   O11       1.0  0.03810  0.33400  0.41100  1.0000
  O   O12       1.0  0.96200  0.66600  0.58900  1.0000
  O   O13       1.0  0.49400  0.11000  0.59300  1.0000
  O   O14       1.0  0.99000  0.11000  0.59300  1.0000
  O   O15       1.0  0.62800  0.41100  0.66600  1.0000
  O   O16       1.0  0.20200  0.87100  0.77500  1.0000
  O   O17       1.0  0.70200  0.87100  0.77500  1.0000
  O   O18       1.0  0.07250  0.22500  0.87100  1.0000
  O   O19       1.0  0.57300  0.22500  0.87100  1.0000
  O   O20       1.0  0.39700  0.59300  0.89000  1.0000
  O   O21       1.0  0.90000  0.59300  0.89000  1.0000
  Zn  Zn1       1.0  0.95900  0.29100  0.21000  1.0000
  Zn  Zn2       1.0  0.25100  0.79000  0.29100  1.0000
  Zn  Zn3       1.0  0.74900  0.21000  0.70900  1.0000
  Zn  Zn4       1.0  0.04060  0.70900  0.79000  1.0000
