data_image0
_chemical_formula_structural       Cd2H8Na4O20S4
_chemical_formula_sum              "Cd2 H8 Na4 O20 S4"
_cell_length_a       5.84152
_cell_length_b       12.7807
_cell_length_c       5.52133
_cell_angle_alpha    90
_cell_angle_beta     106.469
_cell_angle_gamma    90

_space_group_name_H-M_alt    "P 1"
_space_group_IT_number       1

loop_
  _space_group_symop_operation_xyz
  'x, y, z'

loop_
  _atom_site_type_symbol
  _atom_site_label
  _atom_site_symmetry_multiplicity
  _atom_site_fract_x
  _atom_site_fract_y
  _atom_site_fract_z
  _atom_site_occupancy
  Cd  Cd1       1.0  0.00000  0.00000  0.00000  1.0000
  Cd  Cd2       1.0  0.00000  0.50000  0.50000  1.0000
  H   H1        1.0  0.90700  0.21500  0.01190  1.0000
  H   H2        1.0  0.32700  0.83500  0.17700  1.0000
  H   H3        1.0  0.67300  0.33500  0.32300  1.0000
  H   H4        1.0  0.09260  0.71500  0.48800  1.0000
  H   H5        1.0  0.90700  0.28500  0.51200  1.0000
  H   H6        1.0  0.32700  0.66500  0.67700  1.0000
  H   H7        1.0  0.67300  0.16500  0.82300  1.0000
  H   H8        1.0  0.09260  0.78500  0.98800  1.0000
  Na  Na1       1.0  0.41900  0.61800  0.23800  1.0000
  Na  Na2       1.0  0.58100  0.11800  0.26200  1.0000
  Na  Na3       1.0  0.41900  0.88200  0.73800  1.0000
  Na  Na4       1.0  0.58100  0.38200  0.76200  1.0000
  O   O1        1.0  0.19700  0.84800  0.01690  1.0000
  O   O2        1.0  0.00437  0.33300  0.02570  1.0000
  O   O3        1.0  0.43300  0.30100  0.09410  1.0000
  O   O4        1.0  0.74600  0.54000  0.11100  1.0000
  O   O5        1.0  0.70000  0.93600  0.16500  1.0000
  O   O6        1.0  0.30000  0.43600  0.33500  1.0000
  O   O7        1.0  0.25400  0.03990  0.38900  1.0000
  O   O8        1.0  0.56700  0.80100  0.40600  1.0000
  O   O9        1.0  0.99600  0.83300  0.47400  1.0000
  O   O10       1.0  0.80300  0.34800  0.48300  1.0000
  O   O11       1.0  0.19700  0.65200  0.51700  1.0000
  O   O12       1.0  0.00437  0.16700  0.52600  1.0000
  O   O13       1.0  0.43300  0.19900  0.59400  1.0000
  O   O14       1.0  0.74600  0.96000  0.61100  1.0000
  O   O15       1.0  0.70000  0.56400  0.66500  1.0000
  O   O16       1.0  0.30000  0.06410  0.83500  1.0000
  O   O17       1.0  0.25400  0.46000  0.88900  1.0000
  O   O18       1.0  0.56700  0.69900  0.90600  1.0000
  O   O19       1.0  0.99600  0.66700  0.97400  1.0000
  O   O20       1.0  0.80300  0.15200  0.98300  1.0000
  S   S1        1.0  0.24400  0.38000  0.08550  1.0000
  S   S2        1.0  0.75600  0.88000  0.41400  1.0000
  S   S3        1.0  0.24400  0.12000  0.58600  1.0000
  S   S4        1.0  0.75600  0.62000  0.91400  1.0000
