data_image0
_chemical_formula_structural       Br4La8S20Sb4
_chemical_formula_sum              "Br4 La8 S20 Sb4"
_cell_length_a       6.24991
_cell_length_b       7.11383
_cell_length_c       23.9661
_cell_angle_alpha    90
_cell_angle_beta     90
_cell_angle_gamma    90

_space_group_name_H-M_alt    "P 1"
_space_group_IT_number       1

loop_
  _space_group_symop_operation_xyz
  'x, y, z'

loop_
  _atom_site_type_symbol
  _atom_site_label
  _atom_site_symmetry_multiplicity
  _atom_site_fract_x
  _atom_site_fract_y
  _atom_site_fract_z
  _atom_site_occupancy
  Br  Br1       1.0  0.68300  0.75000  0.03460  1.0000
  Br  Br2       1.0  0.18300  0.75000  0.46500  1.0000
  Br  Br3       1.0  0.81700  0.25000  0.53500  1.0000
  Br  Br4       1.0  0.31700  0.25000  0.96500  1.0000
  La  La1       1.0  0.16200  0.75000  0.06340  1.0000
  La  La2       1.0  0.60400  0.75000  0.19700  1.0000
  La  La3       1.0  0.10400  0.75000  0.30300  1.0000
  La  La4       1.0  0.66200  0.75000  0.43700  1.0000
  La  La5       1.0  0.33800  0.25000  0.56300  1.0000
  La  La6       1.0  0.89600  0.25000  0.69700  1.0000
  La  La7       1.0  0.39600  0.25000  0.80300  1.0000
  La  La8       1.0  0.83800  0.25000  0.93700  1.0000
  S   S1        1.0  0.91400  0.25000  0.05420  1.0000
  S   S2        1.0  0.36200  0.01190  0.13400  1.0000
  S   S3        1.0  0.36200  0.48800  0.13400  1.0000
  S   S4        1.0  0.04280  0.75000  0.18700  1.0000
  S   S5        1.0  0.78900  0.25000  0.21100  1.0000
  S   S6        1.0  0.28900  0.25000  0.28900  1.0000
  S   S7        1.0  0.54300  0.75000  0.31300  1.0000
  S   S8        1.0  0.86200  0.01190  0.36600  1.0000
  S   S9        1.0  0.86200  0.48800  0.36600  1.0000
  S   S10       1.0  0.41400  0.25000  0.44600  1.0000
  S   S11       1.0  0.58600  0.75000  0.55400  1.0000
  S   S12       1.0  0.13800  0.51200  0.63400  1.0000
  S   S13       1.0  0.13800  0.98800  0.63400  1.0000
  S   S14       1.0  0.45700  0.25000  0.68700  1.0000
  S   S15       1.0  0.71100  0.75000  0.71100  1.0000
  S   S16       1.0  0.21100  0.75000  0.78900  1.0000
  S   S17       1.0  0.95700  0.25000  0.81300  1.0000
  S   S18       1.0  0.63800  0.51200  0.86600  1.0000
  S   S19       1.0  0.63800  0.98800  0.86600  1.0000
  S   S20       1.0  0.08620  0.75000  0.94600  1.0000
  Sb  Sb1       1.0  0.63700  0.25000  0.12400  1.0000
  Sb  Sb2       1.0  0.13700  0.25000  0.37600  1.0000
  Sb  Sb3       1.0  0.86300  0.75000  0.62400  1.0000
  Sb  Sb4       1.0  0.36300  0.75000  0.87600  1.0000
