data_image0
_chemical_formula_structural       Cr3O24P6Ti4
_chemical_formula_sum              "Cr3 O24 P6 Ti4"
_cell_length_a       9.41608
_cell_length_b       8.08332
_cell_length_c       6.38406
_cell_angle_alpha    102.239
_cell_angle_beta     106.889
_cell_angle_gamma    106.285

_space_group_name_H-M_alt    "P 1"
_space_group_IT_number       1

loop_
  _space_group_symop_operation_xyz
  'x, y, z'

loop_
  _atom_site_type_symbol
  _atom_site_label
  _atom_site_symmetry_multiplicity
  _atom_site_fract_x
  _atom_site_fract_y
  _atom_site_fract_z
  _atom_site_occupancy
  Cr  Cr1       1.0  0.50000  0.50000  0.00000  1.0000
  Cr  Cr2       1.0  0.78000  0.31000  0.27200  1.0000
  Cr  Cr3       1.0  0.22000  0.69000  0.72800  1.0000
  O   O1        1.0  0.16100  0.68700  0.01690  1.0000
  O   O2        1.0  0.16300  0.05520  0.07360  1.0000
  O   O3        1.0  0.66000  0.02600  0.12600  1.0000
  O   O4        1.0  0.42600  0.29800  0.13000  1.0000
  O   O5        1.0  0.19500  0.44100  0.19400  1.0000
  O   O6        1.0  0.43700  0.69600  0.22100  1.0000
  O   O7        1.0  0.96700  0.79600  0.26000  1.0000
  O   O8        1.0  0.74900  0.54700  0.29100  1.0000
  O   O9        1.0  0.41700  0.04220  0.29800  1.0000
  O   O10       1.0  0.00425  0.23500  0.35400  1.0000
  O   O11       1.0  0.77700  0.86700  0.44800  1.0000
  O   O12       1.0  0.26900  0.75800  0.45300  1.0000
  O   O13       1.0  0.73100  0.24200  0.54700  1.0000
  O   O14       1.0  0.22300  0.13300  0.55200  1.0000
  O   O15       1.0  0.99600  0.76500  0.64600  1.0000
  O   O16       1.0  0.58300  0.95800  0.70200  1.0000
  O   O17       1.0  0.25100  0.45300  0.70900  1.0000
  O   O18       1.0  0.03340  0.20400  0.74000  1.0000
  O   O19       1.0  0.56300  0.30400  0.77900  1.0000
  O   O20       1.0  0.80500  0.55900  0.80600  1.0000
  O   O21       1.0  0.57400  0.70200  0.87000  1.0000
  O   O22       1.0  0.34000  0.97400  0.87400  1.0000
  O   O23       1.0  0.83700  0.94500  0.92600  1.0000
  O   O24       1.0  0.83900  0.31300  0.98300  1.0000
  P   P1        1.0  0.34000  0.10200  0.09120  1.0000
  P   P2        1.0  0.26400  0.64000  0.22100  1.0000
  P   P3        1.0  0.87100  0.74400  0.41000  1.0000
  P   P4        1.0  0.12900  0.25600  0.59000  1.0000
  P   P5        1.0  0.73600  0.36000  0.77900  1.0000
  P   P6        1.0  0.66000  0.89800  0.90900  1.0000
  Ti  Ti1       1.0  0.01750  0.20100  0.03340  1.0000
  Ti  Ti2       1.0  0.60700  0.96000  0.39500  1.0000
  Ti  Ti3       1.0  0.39300  0.04010  0.60500  1.0000
  Ti  Ti4       1.0  0.98200  0.79900  0.96700  1.0000
