data_image0
_chemical_formula_structural       C2Cu2H10O20U3
_chemical_formula_sum              "C2 Cu2 H10 O20 U3"
_cell_length_a       7.63609
_cell_length_b       6.92752
_cell_length_c       7.62955
_cell_angle_alpha    92.0651
_cell_angle_beta     89.0922
_cell_angle_gamma    93.7297

_space_group_name_H-M_alt    "P 1"
_space_group_IT_number       1

loop_
  _space_group_symop_operation_xyz
  'x, y, z'

loop_
  _atom_site_type_symbol
  _atom_site_label
  _atom_site_symmetry_multiplicity
  _atom_site_fract_x
  _atom_site_fract_y
  _atom_site_fract_z
  _atom_site_occupancy
  C   C1        1.0  0.23000  0.02870  0.32200  1.0000
  C   C2        1.0  0.77000  0.97100  0.67800  1.0000
  Cu  Cu1       1.0  0.49600  0.26600  0.49400  1.0000
  Cu  Cu2       1.0  0.50400  0.73400  0.50600  1.0000
  H   H1        1.0  0.51200  0.67000  0.17300  1.0000
  H   H2        1.0  0.60900  0.36700  0.18400  1.0000
  H   H3        1.0  0.67000  0.15900  0.21900  1.0000
  H   H4        1.0  0.68100  0.81400  0.22100  1.0000
  H   H5        1.0  0.75800  0.47500  0.45400  1.0000
  H   H6        1.0  0.24200  0.52500  0.54600  1.0000
  H   H7        1.0  0.31900  0.18600  0.77900  1.0000
  H   H8        1.0  0.33000  0.84100  0.78100  1.0000
  H   H9        1.0  0.39100  0.63300  0.81600  1.0000
  H   H10       1.0  0.48800  0.33000  0.82700  1.0000
  O   O1        1.0  0.99200  0.68600  0.00548  1.0000
  O   O2        1.0  0.33900  0.54700  0.06330  1.0000
  O   O3        1.0  0.80100  0.99900  0.14300  1.0000
  O   O4        1.0  0.18200  0.17800  0.24200  1.0000
  O   O5        1.0  0.57600  0.24900  0.24700  1.0000
  O   O6        1.0  0.16200  0.86500  0.25800  1.0000
  O   O7        1.0  0.59900  0.70900  0.26500  1.0000
  O   O8        1.0  0.94300  0.49200  0.33100  1.0000
  O   O9        1.0  0.32200  0.53700  0.44300  1.0000
  O   O10       1.0  0.33400  0.03710  0.45000  1.0000
  O   O11       1.0  0.66600  0.96300  0.55000  1.0000
  O   O12       1.0  0.67800  0.46300  0.55700  1.0000
  O   O13       1.0  0.05720  0.50800  0.66900  1.0000
  O   O14       1.0  0.40100  0.29100  0.73500  1.0000
  O   O15       1.0  0.83800  0.13500  0.74200  1.0000
  O   O16       1.0  0.42400  0.75100  0.75300  1.0000
  O   O17       1.0  0.81800  0.82200  0.75800  1.0000
  O   O18       1.0  0.19900  0.00116  0.85700  1.0000
  O   O19       1.0  0.66100  0.45300  0.93700  1.0000
  O   O20       1.0  0.00764  0.31400  0.99500  1.0000
  U   U1        1.0  0.00000  0.00000  0.00000  1.0000
  U   U2        1.0  0.14000  0.51800  0.19800  1.0000
  U   U3        1.0  0.86000  0.48200  0.80200  1.0000
