data_image0
_chemical_formula_structural       Au2Bi10Na4O22
_chemical_formula_sum              "Au2 Bi10 Na4 O22"
_cell_length_a       12.2334
_cell_length_b       12.2334
_cell_length_c       3.87689
_cell_angle_alpha    90
_cell_angle_beta     90
_cell_angle_gamma    90

_space_group_name_H-M_alt    "P 1"
_space_group_IT_number       1

loop_
  _space_group_symop_operation_xyz
  'x, y, z'

loop_
  _atom_site_type_symbol
  _atom_site_label
  _atom_site_symmetry_multiplicity
  _atom_site_fract_x
  _atom_site_fract_y
  _atom_site_fract_z
  _atom_site_occupancy
  Au  Au1       1.0  0.00000  0.00000  0.00000  1.0000
  Au  Au2       1.0  0.50000  0.50000  0.00000  1.0000
  Bi  Bi1       1.0  0.50000  0.00000  0.00000  1.0000
  Bi  Bi2       1.0  0.00000  0.50000  0.00000  1.0000
  Bi  Bi3       1.0  0.22900  0.04740  0.50000  1.0000
  Bi  Bi4       1.0  0.95300  0.22900  0.50000  1.0000
  Bi  Bi5       1.0  0.45300  0.27100  0.50000  1.0000
  Bi  Bi6       1.0  0.72900  0.45300  0.50000  1.0000
  Bi  Bi7       1.0  0.27100  0.54700  0.50000  1.0000
  Bi  Bi8       1.0  0.54700  0.72900  0.50000  1.0000
  Bi  Bi9       1.0  0.04740  0.77100  0.50000  1.0000
  Bi  Bi10      1.0  0.77100  0.95300  0.50000  1.0000
  Na  Na1       1.0  0.70500  0.20500  0.00000  1.0000
  Na  Na2       1.0  0.20500  0.29500  0.00000  1.0000
  Na  Na3       1.0  0.79500  0.70500  0.00000  1.0000
  Na  Na4       1.0  0.29500  0.79500  0.00000  1.0000
  O   O1        1.0  0.67200  0.00374  0.00000  1.0000
  O   O2        1.0  0.12100  0.11300  0.00000  1.0000
  O   O3        1.0  0.88700  0.12100  0.00000  1.0000
  O   O4        1.0  0.50400  0.17200  0.00000  1.0000
  O   O5        1.0  0.00374  0.32800  0.00000  1.0000
  O   O6        1.0  0.38700  0.37900  0.00000  1.0000
  O   O7        1.0  0.62100  0.38700  0.00000  1.0000
  O   O8        1.0  0.17200  0.49600  0.00000  1.0000
  O   O9        1.0  0.82800  0.50400  0.00000  1.0000
  O   O10       1.0  0.37900  0.61300  0.00000  1.0000
  O   O11       1.0  0.61300  0.62100  0.00000  1.0000
  O   O12       1.0  0.99600  0.67200  0.00000  1.0000
  O   O13       1.0  0.49600  0.82800  0.00000  1.0000
  O   O14       1.0  0.11300  0.87900  0.00000  1.0000
  O   O15       1.0  0.87900  0.88700  0.00000  1.0000
  O   O16       1.0  0.32800  0.99600  0.00000  1.0000
  O   O17       1.0  0.50000  0.00000  0.50000  1.0000
  O   O18       1.0  0.28800  0.21200  0.50000  1.0000
  O   O19       1.0  0.78800  0.28800  0.50000  1.0000
  O   O20       1.0  0.00000  0.50000  0.50000  1.0000
  O   O21       1.0  0.21200  0.71200  0.50000  1.0000
  O   O22       1.0  0.71200  0.78800  0.50000  1.0000
