data_image0
_chemical_formula_structural       Mn2NaO6
_chemical_formula_sum              "Mn2 Na1 O6"
_cell_length_a       4.90788
_cell_length_b       4.90788
_cell_length_c       4.79895
_cell_angle_alpha    91.6191
_cell_angle_beta     91.6191
_cell_angle_gamma    119.203

_space_group_name_H-M_alt    "P 1"
_space_group_IT_number       1

loop_
  _space_group_symop_operation_xyz
  'x, y, z'

loop_
  _atom_site_type_symbol
  _atom_site_label
  _atom_site_symmetry_multiplicity
  _atom_site_fract_x
  _atom_site_fract_y
  _atom_site_fract_z
  _atom_site_occupancy
  Mn  Mn1       1.0  0.81500  0.18500  0.00000  1.0000
  Mn  Mn2       1.0  0.15000  0.85000  0.00000  1.0000
  Na  Na1       1.0  0.48200  0.51800  0.50000  1.0000
  O   O1        1.0  0.12100  0.15600  0.21700  1.0000
  O   O2        1.0  0.49700  0.89700  0.21700  1.0000
  O   O3        1.0  0.85900  0.53200  0.21700  1.0000
  O   O4        1.0  0.46800  0.14100  0.78300  1.0000
  O   O5        1.0  0.10300  0.50300  0.78300  1.0000
  O   O6        1.0  0.84400  0.87900  0.78300  1.0000
