data_image0
_chemical_formula_structural       Ba2Fe4O24Se8
_chemical_formula_sum              "Ba2 Fe4 O24 Se8"
_cell_length_a       10.0321
_cell_length_b       5.23066
_cell_length_c       10.4857
_cell_angle_alpha    90
_cell_angle_beta     96.1957
_cell_angle_gamma    90

_space_group_name_H-M_alt    "P 1"
_space_group_IT_number       1

loop_
  _space_group_symop_operation_xyz
  'x, y, z'

loop_
  _atom_site_type_symbol
  _atom_site_label
  _atom_site_symmetry_multiplicity
  _atom_site_fract_x
  _atom_site_fract_y
  _atom_site_fract_z
  _atom_site_occupancy
  Ba  Ba1       1.0  0.25000  0.93400  0.25000  1.0000
  Ba  Ba2       1.0  0.75000  0.06610  0.75000  1.0000
  Fe  Fe1       1.0  0.50000  0.00000  0.00000  1.0000
  Fe  Fe2       1.0  0.00000  0.50000  0.00000  1.0000
  Fe  Fe3       1.0  0.50000  0.50000  0.50000  1.0000
  Fe  Fe4       1.0  0.00000  0.00000  0.50000  1.0000
  O   O1        1.0  0.12100  0.18500  0.03430  1.0000
  O   O2        1.0  0.84000  0.29600  0.03840  1.0000
  O   O3        1.0  0.42700  0.68900  0.07490  1.0000
  O   O4        1.0  0.67600  0.93700  0.10600  1.0000
  O   O5        1.0  0.44400  0.20600  0.15200  1.0000
  O   O6        1.0  0.04660  0.59100  0.18500  1.0000
  O   O7        1.0  0.45300  0.59100  0.31500  1.0000
  O   O8        1.0  0.05600  0.20600  0.34800  1.0000
  O   O9        1.0  0.82400  0.93700  0.39400  1.0000
  O   O10       1.0  0.07270  0.68900  0.42500  1.0000
  O   O11       1.0  0.66000  0.29600  0.46200  1.0000
  O   O12       1.0  0.37900  0.18500  0.46600  1.0000
  O   O13       1.0  0.62100  0.81500  0.53400  1.0000
  O   O14       1.0  0.34000  0.70400  0.53800  1.0000
  O   O15       1.0  0.92700  0.31100  0.57500  1.0000
  O   O16       1.0  0.17600  0.06350  0.60600  1.0000
  O   O17       1.0  0.94400  0.79400  0.65200  1.0000
  O   O18       1.0  0.54700  0.40900  0.68500  1.0000
  O   O19       1.0  0.95300  0.40900  0.81500  1.0000
  O   O20       1.0  0.55600  0.79400  0.84800  1.0000
  O   O21       1.0  0.32400  0.06350  0.89400  1.0000
  O   O22       1.0  0.57300  0.31100  0.92500  1.0000
  O   O23       1.0  0.16000  0.70400  0.96200  1.0000
  O   O24       1.0  0.87900  0.81500  0.96600  1.0000
  Se  Se1       1.0  0.84400  0.99000  0.10000  1.0000
  Se  Se2       1.0  0.52600  0.49400  0.18000  1.0000
  Se  Se3       1.0  0.97400  0.49400  0.32000  1.0000
  Se  Se4       1.0  0.65600  0.99000  0.40000  1.0000
  Se  Se5       1.0  0.34400  0.01010  0.60000  1.0000
  Se  Se6       1.0  0.02630  0.50600  0.68000  1.0000
  Se  Se7       1.0  0.47400  0.50600  0.82000  1.0000
  Se  Se8       1.0  0.15600  0.01010  0.90000  1.0000
