data_image0
_chemical_formula_structural       Al2FK4Nb11O20
_chemical_formula_sum              "Al2 F1 K4 Nb11 O20"
_cell_length_a       8.82656
_cell_length_b       8.82656
_cell_length_c       8.89644
_cell_angle_alpha    119.741
_cell_angle_beta     119.741
_cell_angle_gamma    90

_space_group_name_H-M_alt    "P 1"
_space_group_IT_number       1

loop_
  _space_group_symop_operation_xyz
  'x, y, z'

loop_
  _atom_site_type_symbol
  _atom_site_label
  _atom_site_symmetry_multiplicity
  _atom_site_fract_x
  _atom_site_fract_y
  _atom_site_fract_z
  _atom_site_occupancy
  Al  Al1       1.0  0.75000  0.25000  0.50000  1.0000
  Al  Al2       1.0  0.25000  0.75000  0.50000  1.0000
  F   F1        1.0  0.50000  0.50000  0.00000  1.0000
  K   K1        1.0  0.50000  0.19100  0.00000  1.0000
  K   K2        1.0  0.19100  0.50000  0.00000  1.0000
  K   K3        1.0  0.80900  0.50000  0.00000  1.0000
  K   K4        1.0  0.50000  0.80900  0.00000  1.0000
  Nb  Nb1       1.0  0.00000  0.00000  0.00000  1.0000
  Nb  Nb2       1.0  0.00080  0.00080  0.32500  1.0000
  Nb  Nb3       1.0  0.32500  0.00080  0.32500  1.0000
  Nb  Nb4       1.0  0.00080  0.32500  0.32500  1.0000
  Nb  Nb5       1.0  0.32500  0.32500  0.32500  1.0000
  Nb  Nb6       1.0  0.68300  0.68300  0.36600  1.0000
  Nb  Nb7       1.0  0.31700  0.31700  0.63400  1.0000
  Nb  Nb8       1.0  0.67500  0.67500  0.67500  1.0000
  Nb  Nb9       1.0  0.99900  0.67500  0.67500  1.0000
  Nb  Nb10      1.0  0.67500  0.99900  0.67500  1.0000
  Nb  Nb11      1.0  0.99900  0.99900  0.67500  1.0000
  O   O1        1.0  0.17100  0.17100  0.00000  1.0000
  O   O2        1.0  0.82900  0.17100  0.00000  1.0000
  O   O3        1.0  0.17100  0.82900  0.00000  1.0000
  O   O4        1.0  0.82900  0.82900  0.00000  1.0000
  O   O5        1.0  0.50500  0.16500  0.33000  1.0000
  O   O6        1.0  0.82500  0.16500  0.33000  1.0000
  O   O7        1.0  0.16500  0.50500  0.33000  1.0000
  O   O8        1.0  0.16500  0.82500  0.33000  1.0000
  O   O9        1.0  0.50700  0.50700  0.34500  1.0000
  O   O10       1.0  0.83800  0.50700  0.34500  1.0000
  O   O11       1.0  0.50700  0.83800  0.34500  1.0000
  O   O12       1.0  0.83800  0.83800  0.34500  1.0000
  O   O13       1.0  0.16200  0.16200  0.65500  1.0000
  O   O14       1.0  0.49300  0.16200  0.65500  1.0000
  O   O15       1.0  0.16200  0.49300  0.65500  1.0000
  O   O16       1.0  0.49300  0.49300  0.65500  1.0000
  O   O17       1.0  0.83500  0.17500  0.67000  1.0000
  O   O18       1.0  0.83500  0.49500  0.67000  1.0000
  O   O19       1.0  0.17500  0.83500  0.67000  1.0000
  O   O20       1.0  0.49500  0.83500  0.67000  1.0000
