data_image0
_chemical_formula_structural       C6O22Tl8U2
_chemical_formula_sum              "C6 O22 Tl8 U2"
_cell_length_a       7.01109
_cell_length_b       7.01109
_cell_length_c       12.6753
_cell_angle_alpha    94.2176
_cell_angle_beta     94.2176
_cell_angle_gamma    83.0426

_space_group_name_H-M_alt    "P 1"
_space_group_IT_number       1

loop_
  _space_group_symop_operation_xyz
  'x, y, z'

loop_
  _atom_site_type_symbol
  _atom_site_label
  _atom_site_symmetry_multiplicity
  _atom_site_fract_x
  _atom_site_fract_y
  _atom_site_fract_z
  _atom_site_occupancy
  C   C1        1.0  0.08370  0.15300  0.08730  1.0000
  C   C2        1.0  0.49700  0.50300  0.25000  1.0000
  C   C3        1.0  0.84700  0.91600  0.41300  1.0000
  C   C4        1.0  0.15300  0.08370  0.58700  1.0000
  C   C5        1.0  0.50300  0.49700  0.75000  1.0000
  C   C6        1.0  0.91600  0.84700  0.91300  1.0000
  O   O1        1.0  0.21500  0.15100  0.02400  1.0000
  O   O2        1.0  0.92500  0.27400  0.08250  1.0000
  O   O3        1.0  0.09390  0.03450  0.16400  1.0000
  O   O4        1.0  0.61600  0.47000  0.17400  1.0000
  O   O5        1.0  0.64700  0.03380  0.18000  1.0000
  O   O6        1.0  0.36000  0.64000  0.25000  1.0000
  O   O7        1.0  0.96600  0.35300  0.32000  1.0000
  O   O8        1.0  0.53000  0.38400  0.32600  1.0000
  O   O9        1.0  0.96500  0.90600  0.33600  1.0000
  O   O10       1.0  0.72600  0.07530  0.41800  1.0000
  O   O11       1.0  0.84900  0.78500  0.47600  1.0000
  O   O12       1.0  0.15100  0.21500  0.52400  1.0000
  O   O13       1.0  0.27400  0.92500  0.58200  1.0000
  O   O14       1.0  0.03450  0.09390  0.66400  1.0000
  O   O15       1.0  0.47000  0.61600  0.67400  1.0000
  O   O16       1.0  0.03380  0.64700  0.68000  1.0000
  O   O17       1.0  0.64000  0.36000  0.75000  1.0000
  O   O18       1.0  0.35300  0.96600  0.82000  1.0000
  O   O19       1.0  0.38400  0.53000  0.82600  1.0000
  O   O20       1.0  0.90600  0.96500  0.83600  1.0000
  O   O21       1.0  0.07530  0.72600  0.91800  1.0000
  O   O22       1.0  0.78500  0.84900  0.97600  1.0000
  Tl  Tl1       1.0  0.42500  0.77900  0.04630  1.0000
  Tl  Tl2       1.0  0.97300  0.65900  0.14800  1.0000
  Tl  Tl3       1.0  0.34100  0.02690  0.35200  1.0000
  Tl  Tl4       1.0  0.22100  0.57500  0.45400  1.0000
  Tl  Tl5       1.0  0.77900  0.42500  0.54600  1.0000
  Tl  Tl6       1.0  0.65900  0.97300  0.64800  1.0000
  Tl  Tl7       1.0  0.02690  0.34100  0.85200  1.0000
  Tl  Tl8       1.0  0.57500  0.22100  0.95400  1.0000
  U   U1        1.0  0.80700  0.19300  0.25000  1.0000
  U   U2        1.0  0.19300  0.80700  0.75000  1.0000
