data_image0
_chemical_formula_structural       Cl20Cu8K8O2
_chemical_formula_sum              "Cl20 Cu8 K8 O2"
_cell_length_a       8.97262
_cell_length_b       10.558
_cell_length_c       10.558
_cell_angle_alpha    90.7175
_cell_angle_beta     99.7558
_cell_angle_gamma    99.7558

_space_group_name_H-M_alt    "P 1"
_space_group_IT_number       1

loop_
  _space_group_symop_operation_xyz
  'x, y, z'

loop_
  _atom_site_type_symbol
  _atom_site_label
  _atom_site_symmetry_multiplicity
  _atom_site_fract_x
  _atom_site_fract_y
  _atom_site_fract_z
  _atom_site_occupancy
  Cl  Cl1       1.0  0.77400  0.60200  0.01090  1.0000
  Cl  Cl2       1.0  0.75000  0.97700  0.02290  1.0000
  Cl  Cl3       1.0  0.53900  0.26400  0.14500  1.0000
  Cl  Cl4       1.0  0.42000  0.72400  0.17300  1.0000
  Cl  Cl5       1.0  0.02000  0.49400  0.26000  1.0000
  Cl  Cl6       1.0  0.03880  0.14500  0.26400  1.0000
  Cl  Cl7       1.0  0.08020  0.82700  0.27600  1.0000
  Cl  Cl8       1.0  0.72600  0.98900  0.39800  1.0000
  Cl  Cl9       1.0  0.75000  0.58700  0.41300  1.0000
  Cl  Cl10      1.0  0.52000  0.26000  0.49400  1.0000
  Cl  Cl11      1.0  0.48000  0.74000  0.50600  1.0000
  Cl  Cl12      1.0  0.25000  0.41300  0.58700  1.0000
  Cl  Cl13      1.0  0.27400  0.01090  0.60200  1.0000
  Cl  Cl14      1.0  0.92000  0.17300  0.72400  1.0000
  Cl  Cl15      1.0  0.96100  0.85500  0.73600  1.0000
  Cl  Cl16      1.0  0.98000  0.50600  0.74000  1.0000
  Cl  Cl17      1.0  0.58000  0.27600  0.82700  1.0000
  Cl  Cl18      1.0  0.46100  0.73600  0.85500  1.0000
  Cl  Cl19      1.0  0.25000  0.02290  0.97700  1.0000
  Cl  Cl20      1.0  0.22600  0.39800  0.98900  1.0000
  Cu  Cu1       1.0  0.61600  0.76500  0.04750  1.0000
  Cu  Cu2       1.0  0.87000  0.64400  0.23100  1.0000
  Cu  Cu3       1.0  0.88400  0.95300  0.23500  1.0000
  Cu  Cu4       1.0  0.63000  0.76900  0.35600  1.0000
  Cu  Cu5       1.0  0.37000  0.23100  0.64400  1.0000
  Cu  Cu6       1.0  0.11600  0.04750  0.76500  1.0000
  Cu  Cu7       1.0  0.13000  0.35600  0.76900  1.0000
  Cu  Cu8       1.0  0.38400  0.23500  0.95300  1.0000
  K   K1        1.0  0.87600  0.28600  0.02920  1.0000
  K   K2        1.0  0.37600  0.02920  0.28600  1.0000
  K   K3        1.0  0.36700  0.44600  0.29400  1.0000
  K   K4        1.0  0.86700  0.29400  0.44600  1.0000
  K   K5        1.0  0.13300  0.70600  0.55400  1.0000
  K   K6        1.0  0.63300  0.55400  0.70600  1.0000
  K   K7        1.0  0.62400  0.97100  0.71400  1.0000
  K   K8        1.0  0.12400  0.71400  0.97100  1.0000
  O   O1        1.0  0.75000  0.78400  0.21600  1.0000
  O   O2        1.0  0.25000  0.21600  0.78400  1.0000
