data_image0
_chemical_formula_structural       Na30Sn8
_chemical_formula_sum              "Na30 Sn8"
_cell_length_a       11.2192
_cell_length_b       11.2192
_cell_length_c       11.2192
_cell_angle_alpha    109.471
_cell_angle_beta     109.471
_cell_angle_gamma    109.471

_space_group_name_H-M_alt    "P 1"
_space_group_IT_number       1

loop_
  _space_group_symop_operation_xyz
  'x, y, z'

loop_
  _atom_site_type_symbol
  _atom_site_label
  _atom_site_symmetry_multiplicity
  _atom_site_fract_x
  _atom_site_fract_y
  _atom_site_fract_z
  _atom_site_occupancy
  Na  Na1       1.0  0.19300  0.91600  0.03270  1.0000
  Na  Na2       1.0  0.61700  0.27700  0.08440  1.0000
  Na  Na3       1.0  0.77700  0.08440  0.11700  1.0000
  Na  Na4       1.0  0.37500  0.75000  0.12500  1.0000
  Na  Na5       1.0  0.96700  0.88300  0.16000  1.0000
  Na  Na6       1.0  0.03270  0.41600  0.19300  1.0000
  Na  Na7       1.0  0.34000  0.30700  0.22300  1.0000
  Na  Na8       1.0  0.87500  0.62500  0.25000  1.0000
  Na  Na9       1.0  0.58400  0.11700  0.27700  1.0000
  Na  Na10      1.0  0.72300  0.84000  0.30700  1.0000
  Na  Na11      1.0  0.22300  0.80700  0.34000  1.0000
  Na  Na12      1.0  0.12500  0.25000  0.37500  1.0000
  Na  Na13      1.0  0.46700  0.66000  0.38300  1.0000
  Na  Na14      1.0  0.69300  0.53300  0.41600  1.0000
  Na  Na15      1.0  0.38300  0.16000  0.46700  1.0000
  Na  Na16      1.0  0.91600  0.19300  0.53300  1.0000
  Na  Na17      1.0  0.27700  0.61700  0.58400  1.0000
  Na  Na18      1.0  0.08440  0.77700  0.61700  1.0000
  Na  Na19      1.0  0.75000  0.37500  0.62500  1.0000
  Na  Na20      1.0  0.88300  0.96700  0.66000  1.0000
  Na  Na21      1.0  0.41600  0.03270  0.69300  1.0000
  Na  Na22      1.0  0.30700  0.34000  0.72300  1.0000
  Na  Na23      1.0  0.62500  0.87500  0.75000  1.0000
  Na  Na24      1.0  0.11700  0.58400  0.77700  1.0000
  Na  Na25      1.0  0.84000  0.72300  0.80700  1.0000
  Na  Na26      1.0  0.80700  0.22300  0.84000  1.0000
  Na  Na27      1.0  0.25000  0.12500  0.87500  1.0000
  Na  Na28      1.0  0.66000  0.46700  0.88300  1.0000
  Na  Na29      1.0  0.53300  0.69300  0.91600  1.0000
  Na  Na30      1.0  0.16000  0.38300  0.96700  1.0000
  Sn  Sn1       1.0  0.00000  0.08160  0.00000  1.0000
  Sn  Sn2       1.0  0.00000  0.58200  0.00000  1.0000
  Sn  Sn3       1.0  0.50000  0.50000  0.08160  1.0000
  Sn  Sn4       1.0  0.91800  0.41800  0.41800  1.0000
  Sn  Sn5       1.0  0.08160  0.00000  0.50000  1.0000
  Sn  Sn6       1.0  0.58200  0.00000  0.50000  1.0000
  Sn  Sn7       1.0  0.50000  0.50000  0.58200  1.0000
  Sn  Sn8       1.0  0.41800  0.91800  0.91800  1.0000
