data_image0
_chemical_formula_structural       F6K6N6O18Sb2
_chemical_formula_sum              "F6 K6 N6 O18 Sb2"
_cell_length_a       6.9978
_cell_length_b       8.70973
_cell_length_c       8.70973
_cell_angle_alpha    79.3955
_cell_angle_beta     90
_cell_angle_gamma    90

_space_group_name_H-M_alt    "P 1"
_space_group_IT_number       1

loop_
  _space_group_symop_operation_xyz
  'x, y, z'

loop_
  _atom_site_type_symbol
  _atom_site_label
  _atom_site_symmetry_multiplicity
  _atom_site_fract_x
  _atom_site_fract_y
  _atom_site_fract_z
  _atom_site_occupancy
  F   F1        1.0  0.39900  0.07390  0.07390  1.0000
  F   F2        1.0  0.55300  0.34600  0.11000  1.0000
  F   F3        1.0  0.55300  0.11000  0.34600  1.0000
  F   F4        1.0  0.05280  0.89000  0.65400  1.0000
  F   F5        1.0  0.05280  0.65400  0.89000  1.0000
  F   F6        1.0  0.89900  0.92600  0.92600  1.0000
  K   K1        1.0  0.72100  0.62000  0.02790  1.0000
  K   K2        1.0  0.22100  0.97200  0.38000  1.0000
  K   K3        1.0  0.51200  0.40100  0.40100  1.0000
  K   K4        1.0  0.01200  0.59900  0.59900  1.0000
  K   K5        1.0  0.72100  0.02790  0.62000  1.0000
  K   K6        1.0  0.22100  0.38000  0.97200  1.0000
  N   N1        1.0  0.24200  0.68500  0.20900  1.0000
  N   N2        1.0  0.02210  0.30300  0.30300  1.0000
  N   N3        1.0  0.74200  0.79100  0.31500  1.0000
  N   N4        1.0  0.24200  0.20900  0.68500  1.0000
  N   N5        1.0  0.52200  0.69700  0.69700  1.0000
  N   N6        1.0  0.74200  0.31500  0.79100  1.0000
  O   O1        1.0  0.34700  0.62500  0.12000  1.0000
  O   O2        1.0  0.12300  0.79400  0.15200  1.0000
  O   O3        1.0  0.62300  0.84800  0.20600  1.0000
  O   O4        1.0  0.93400  0.40900  0.21200  1.0000
  O   O5        1.0  0.20000  0.28600  0.28600  1.0000
  O   O6        1.0  0.25200  0.64500  0.35500  1.0000
  O   O7        1.0  0.75200  0.64500  0.35500  1.0000
  O   O8        1.0  0.84700  0.88000  0.37500  1.0000
  O   O9        1.0  0.93400  0.21200  0.40900  1.0000
  O   O10       1.0  0.43400  0.78800  0.59100  1.0000
  O   O11       1.0  0.34700  0.12000  0.62500  1.0000
  O   O12       1.0  0.25200  0.35500  0.64500  1.0000
  O   O13       1.0  0.75200  0.35500  0.64500  1.0000
  O   O14       1.0  0.70000  0.71400  0.71400  1.0000
  O   O15       1.0  0.43400  0.59100  0.78800  1.0000
  O   O16       1.0  0.12300  0.15200  0.79400  1.0000
  O   O17       1.0  0.62300  0.20600  0.84800  1.0000
  O   O18       1.0  0.84700  0.37500  0.88000  1.0000
  Sb  Sb1       1.0  0.66200  0.13000  0.13000  1.0000
  Sb  Sb2       1.0  0.16200  0.87000  0.87000  1.0000
