data_image0
_chemical_formula_structural       Cl26Yb12
_chemical_formula_sum              "Cl26 Yb12"
_cell_length_a       6.55682
_cell_length_b       6.82427
_cell_length_c       20.8149
_cell_angle_alpha    97.8244
_cell_angle_beta     98.928
_cell_angle_gamma    89.9847

_space_group_name_H-M_alt    "P 1"
_space_group_IT_number       1

loop_
  _space_group_symop_operation_xyz
  'x, y, z'

loop_
  _atom_site_type_symbol
  _atom_site_label
  _atom_site_symmetry_multiplicity
  _atom_site_fract_x
  _atom_site_fract_y
  _atom_site_fract_z
  _atom_site_occupancy
  Cl  Cl1       1.0  0.73900  0.11500  0.01230  1.0000
  Cl  Cl2       1.0  0.77300  0.61500  0.01270  1.0000
  Cl  Cl3       1.0  0.25700  0.71500  0.14200  1.0000
  Cl  Cl4       1.0  0.38700  0.21700  0.14300  1.0000
  Cl  Cl5       1.0  0.89300  0.10300  0.17500  1.0000
  Cl  Cl6       1.0  0.78400  0.60400  0.17500  1.0000
  Cl  Cl7       1.0  0.48500  0.02170  0.29300  1.0000
  Cl  Cl8       1.0  0.31200  0.52300  0.29300  1.0000
  Cl  Cl9       1.0  0.97800  0.17900  0.33800  1.0000
  Cl  Cl10      1.0  0.86400  0.67900  0.33900  1.0000
  Cl  Cl11      1.0  0.57000  0.37000  0.43300  1.0000
  Cl  Cl12      1.0  0.36600  0.86900  0.43400  1.0000
  Cl  Cl13      1.0  0.05760  0.25000  0.50000  1.0000
  Cl  Cl14      1.0  0.94200  0.75000  0.50000  1.0000
  Cl  Cl15      1.0  0.63400  0.13100  0.56600  1.0000
  Cl  Cl16      1.0  0.43000  0.63000  0.56700  1.0000
  Cl  Cl17      1.0  0.13600  0.32100  0.66100  1.0000
  Cl  Cl18      1.0  0.02160  0.82100  0.66200  1.0000
  Cl  Cl19      1.0  0.68800  0.47700  0.70700  1.0000
  Cl  Cl20      1.0  0.51500  0.97800  0.70700  1.0000
  Cl  Cl21      1.0  0.21600  0.39600  0.82500  1.0000
  Cl  Cl22      1.0  0.10700  0.89700  0.82500  1.0000
  Cl  Cl23      1.0  0.61300  0.78300  0.85700  1.0000
  Cl  Cl24      1.0  0.74300  0.28500  0.85800  1.0000
  Cl  Cl25      1.0  0.22700  0.38500  0.98700  1.0000
  Cl  Cl26      1.0  0.26100  0.88500  0.98800  1.0000
  Yb  Yb1       1.0  0.01880  0.37700  0.09260  1.0000
  Yb  Yb2       1.0  0.57500  0.87800  0.09280  1.0000
  Yb  Yb3       1.0  0.10100  0.84800  0.25700  1.0000
  Yb  Yb4       1.0  0.66000  0.34800  0.25700  1.0000
  Yb  Yb5       1.0  0.18000  0.50800  0.41900  1.0000
  Yb  Yb6       1.0  0.74100  0.00784  0.41900  1.0000
  Yb  Yb7       1.0  0.25900  0.99200  0.58100  1.0000
  Yb  Yb8       1.0  0.82000  0.49200  0.58100  1.0000
  Yb  Yb9       1.0  0.34000  0.65200  0.74300  1.0000
  Yb  Yb10      1.0  0.89900  0.15200  0.74300  1.0000
  Yb  Yb11      1.0  0.42500  0.12200  0.90700  1.0000
  Yb  Yb12      1.0  0.98100  0.62300  0.90700  1.0000
