data_image0
_chemical_formula_structural       K4Mo8O26
_chemical_formula_sum              "K4 Mo8 O26"
_cell_length_a       7.86055
_cell_length_b       8.33124
_cell_length_c       10.8896
_cell_angle_alpha    119.534
_cell_angle_beta     62.6411
_cell_angle_gamma    110.017

_space_group_name_H-M_alt    "P 1"
_space_group_IT_number       1

loop_
  _space_group_symop_operation_xyz
  'x, y, z'

loop_
  _atom_site_type_symbol
  _atom_site_label
  _atom_site_symmetry_multiplicity
  _atom_site_fract_x
  _atom_site_fract_y
  _atom_site_fract_z
  _atom_site_occupancy
  K   K1        1.0  0.25700  0.84900  0.05840  1.0000
  K   K2        1.0  0.19900  0.43300  0.18800  1.0000
  K   K3        1.0  0.80100  0.56700  0.81200  1.0000
  K   K4        1.0  0.74300  0.15100  0.94200  1.0000
  Mo  Mo1       1.0  0.73000  0.00717  0.20500  1.0000
  Mo  Mo2       1.0  0.72900  0.62100  0.22300  1.0000
  Mo  Mo3       1.0  0.32100  0.34400  0.43700  1.0000
  Mo  Mo4       1.0  0.30600  0.95100  0.44900  1.0000
  Mo  Mo5       1.0  0.69400  0.04940  0.55100  1.0000
  Mo  Mo6       1.0  0.67900  0.65600  0.56300  1.0000
  Mo  Mo7       1.0  0.27100  0.37900  0.77700  1.0000
  Mo  Mo8       1.0  0.27000  0.99300  0.79500  1.0000
  O   O1        1.0  0.62600  0.87800  0.06480  1.0000
  O   O2        1.0  0.60300  0.48800  0.09910  1.0000
  O   O3        1.0  0.91000  0.16600  0.13900  1.0000
  O   O4        1.0  0.92200  0.50600  0.14800  1.0000
  O   O5        1.0  0.87100  0.81800  0.15800  1.0000
  O   O6        1.0  0.29000  0.20800  0.26400  1.0000
  O   O7        1.0  0.21000  0.81700  0.30800  1.0000
  O   O8        1.0  0.52300  0.14300  0.35600  1.0000
  O   O9        1.0  0.53800  0.84800  0.36300  1.0000
  O   O10       1.0  0.55100  0.51800  0.37900  1.0000
  O   O11       1.0  0.83100  0.13300  0.40800  1.0000
  O   O12       1.0  0.80200  0.81400  0.44400  1.0000
  O   O13       1.0  0.85800  0.51800  0.46000  1.0000
  O   O14       1.0  0.14200  0.48200  0.54000  1.0000
  O   O15       1.0  0.19800  0.18600  0.55600  1.0000
  O   O16       1.0  0.16900  0.86700  0.59200  1.0000
  O   O17       1.0  0.44900  0.48200  0.62100  1.0000
  O   O18       1.0  0.46200  0.15200  0.63700  1.0000
  O   O19       1.0  0.47700  0.85700  0.64400  1.0000
  O   O20       1.0  0.79000  0.18300  0.69200  1.0000
  O   O21       1.0  0.71000  0.79200  0.73600  1.0000
  O   O22       1.0  0.12900  0.18200  0.84200  1.0000
  O   O23       1.0  0.07810  0.49400  0.85200  1.0000
  O   O24       1.0  0.09010  0.83400  0.86100  1.0000
  O   O25       1.0  0.39700  0.51200  0.90100  1.0000
  O   O26       1.0  0.37400  0.12200  0.93500  1.0000
