data_image0
_chemical_formula_structural       Mo12Nd2O24
_chemical_formula_sum              "Mo12 Nd2 O24"
_cell_length_a       8.24183
_cell_length_b       8.24183
_cell_length_c       8.24183
_cell_angle_alpha    105.74
_cell_angle_beta     117.223
_cell_angle_gamma    105.74

_space_group_name_H-M_alt    "P 1"
_space_group_IT_number       1

loop_
  _space_group_symop_operation_xyz
  'x, y, z'

loop_
  _atom_site_type_symbol
  _atom_site_label
  _atom_site_symmetry_multiplicity
  _atom_site_fract_x
  _atom_site_fract_y
  _atom_site_fract_z
  _atom_site_occupancy
  Mo  Mo1       1.0  0.84900  0.52400  0.00083  1.0000
  Mo  Mo2       1.0  0.67500  0.15200  0.15100  1.0000
  Mo  Mo3       1.0  0.66400  0.84900  0.18500  1.0000
  Mo  Mo4       1.0  0.47700  0.47600  0.32500  1.0000
  Mo  Mo5       1.0  0.18500  0.52200  0.33600  1.0000
  Mo  Mo6       1.0  0.00083  0.15200  0.47700  1.0000
  Mo  Mo7       1.0  0.99900  0.84800  0.52300  1.0000
  Mo  Mo8       1.0  0.81500  0.47800  0.66400  1.0000
  Mo  Mo9       1.0  0.52300  0.52400  0.67500  1.0000
  Mo  Mo10      1.0  0.33600  0.15100  0.81500  1.0000
  Mo  Mo11      1.0  0.32500  0.84800  0.84900  1.0000
  Mo  Mo12      1.0  0.15100  0.47600  0.99900  1.0000
  Nd  Nd1       1.0  0.20600  0.00000  0.20600  1.0000
  Nd  Nd2       1.0  0.79400  0.00000  0.79400  1.0000
  O   O1        1.0  0.15900  0.28200  0.12300  1.0000
  O   O2        1.0  0.49800  0.28900  0.12600  1.0000
  O   O3        1.0  0.87700  0.03600  0.15900  1.0000
  O   O4        1.0  0.46100  0.62400  0.16300  1.0000
  O   O5        1.0  0.87400  0.37200  0.16400  1.0000
  O   O6        1.0  0.46100  0.95800  0.16700  1.0000
  O   O7        1.0  0.16700  0.70600  0.20900  1.0000
  O   O8        1.0  0.83600  0.71100  0.20900  1.0000
  O   O9        1.0  0.50300  0.29400  0.46100  1.0000
  O   O10       1.0  0.83700  0.29800  0.46100  1.0000
  O   O11       1.0  0.79100  0.95800  0.49700  1.0000
  O   O12       1.0  0.20900  0.37200  0.49800  1.0000
  O   O13       1.0  0.79100  0.62800  0.50200  1.0000
  O   O14       1.0  0.20900  0.04190  0.50300  1.0000
  O   O15       1.0  0.16300  0.70200  0.53900  1.0000
  O   O16       1.0  0.49700  0.70600  0.53900  1.0000
  O   O17       1.0  0.16400  0.28900  0.79100  1.0000
  O   O18       1.0  0.83300  0.29400  0.79100  1.0000
  O   O19       1.0  0.53900  0.04190  0.83300  1.0000
  O   O20       1.0  0.12600  0.62800  0.83600  1.0000
  O   O21       1.0  0.53900  0.37600  0.83700  1.0000
  O   O22       1.0  0.12300  0.96400  0.84100  1.0000
  O   O23       1.0  0.50200  0.71100  0.87400  1.0000
  O   O24       1.0  0.84100  0.71800  0.87700  1.0000
