data_image0
_chemical_formula_structural       Mn2Na3O6
_chemical_formula_sum              "Mn2 Na3 O6"
_cell_length_a       5.10889
_cell_length_b       5.10889
_cell_length_c       5.71242
_cell_angle_alpha    99.3402
_cell_angle_beta     99.3402
_cell_angle_gamma    119.165

_space_group_name_H-M_alt    "P 1"
_space_group_IT_number       1

loop_
  _space_group_symop_operation_xyz
  'x, y, z'

loop_
  _atom_site_type_symbol
  _atom_site_label
  _atom_site_symmetry_multiplicity
  _atom_site_fract_x
  _atom_site_fract_y
  _atom_site_fract_z
  _atom_site_occupancy
  Mn  Mn1       1.0  0.82900  0.17100  0.00000  1.0000
  Mn  Mn2       1.0  0.16700  0.83300  0.00000  1.0000
  Na  Na1       1.0  0.50200  0.49800  0.00000  1.0000
  Na  Na2       1.0  0.00366  0.99600  0.50000  1.0000
  Na  Na3       1.0  0.35000  0.65000  0.50000  1.0000
  O   O1        1.0  0.18600  0.19300  0.19700  1.0000
  O   O2        1.0  0.95300  0.57700  0.19900  1.0000
  O   O3        1.0  0.56900  0.95000  0.19900  1.0000
  O   O4        1.0  0.05010  0.43100  0.80100  1.0000
  O   O5        1.0  0.42300  0.04670  0.80100  1.0000
  O   O6        1.0  0.80700  0.81400  0.80300  1.0000
