data_image0
_chemical_formula_structural       Mn2Na2O8
_chemical_formula_sum              "Mn2 Na2 O8"
_cell_length_a       5.17331
_cell_length_b       5.17331
_cell_length_c       6.6478
_cell_angle_alpha    90
_cell_angle_beta     90
_cell_angle_gamma    112.67

_space_group_name_H-M_alt    "P 1"
_space_group_IT_number       1

loop_
  _space_group_symop_operation_xyz
  'x, y, z'

loop_
  _atom_site_type_symbol
  _atom_site_label
  _atom_site_symmetry_multiplicity
  _atom_site_fract_x
  _atom_site_fract_y
  _atom_site_fract_z
  _atom_site_occupancy
  Mn  Mn1       1.0  0.36800  0.63200  0.25000  1.0000
  Mn  Mn2       1.0  0.63200  0.36800  0.75000  1.0000
  Na  Na1       1.0  0.00000  0.00000  0.00000  1.0000
  Na  Na2       1.0  0.00000  0.00000  0.50000  1.0000
  O   O1        1.0  0.26400  0.73600  0.04920  1.0000
  O   O2        1.0  0.25100  0.29200  0.25000  1.0000
  O   O3        1.0  0.70800  0.74900  0.25000  1.0000
  O   O4        1.0  0.26400  0.73600  0.45100  1.0000
  O   O5        1.0  0.73600  0.26400  0.54900  1.0000
  O   O6        1.0  0.29200  0.25100  0.75000  1.0000
  O   O7        1.0  0.74900  0.70800  0.75000  1.0000
  O   O8        1.0  0.73600  0.26400  0.95100  1.0000
