data_image0
_chemical_formula_structural       H8Mn2Na4O20Se4
_chemical_formula_sum              "H8 Mn2 Na4 O20 Se4"
_cell_length_a       5.83823
_cell_length_b       13.1171
_cell_length_c       5.66346
_cell_angle_alpha    90
_cell_angle_beta     105.936
_cell_angle_gamma    90

_space_group_name_H-M_alt    "P 1"
_space_group_IT_number       1

loop_
  _space_group_symop_operation_xyz
  'x, y, z'

loop_
  _atom_site_type_symbol
  _atom_site_label
  _atom_site_symmetry_multiplicity
  _atom_site_fract_x
  _atom_site_fract_y
  _atom_site_fract_z
  _atom_site_occupancy
  H   H1        1.0  0.09620  0.79400  0.00110  1.0000
  H   H2        1.0  0.30900  0.84500  0.19500  1.0000
  H   H3        1.0  0.69100  0.34500  0.30500  1.0000
  H   H4        1.0  0.90400  0.29400  0.49900  1.0000
  H   H5        1.0  0.09620  0.70600  0.50100  1.0000
  H   H6        1.0  0.30900  0.65500  0.69500  1.0000
  H   H7        1.0  0.69100  0.15500  0.80500  1.0000
  H   H8        1.0  0.90400  0.20600  0.99900  1.0000
  Mn  Mn1       1.0  0.00000  0.00000  0.00000  1.0000
  Mn  Mn2       1.0  0.00000  0.50000  0.50000  1.0000
  Na  Na1       1.0  0.57400  0.12300  0.23400  1.0000
  Na  Na2       1.0  0.42600  0.62300  0.26600  1.0000
  Na  Na3       1.0  0.57400  0.37700  0.73400  1.0000
  Na  Na4       1.0  0.42600  0.87700  0.76600  1.0000
  O   O1        1.0  0.96600  0.32500  0.00488  1.0000
  O   O2        1.0  0.18800  0.85900  0.03550  1.0000
  O   O3        1.0  0.45300  0.29700  0.08450  1.0000
  O   O4        1.0  0.75600  0.53700  0.15000  1.0000
  O   O5        1.0  0.71600  0.94400  0.16200  1.0000
  O   O6        1.0  0.28400  0.44400  0.33800  1.0000
  O   O7        1.0  0.24400  0.03660  0.35000  1.0000
  O   O8        1.0  0.54700  0.79700  0.41600  1.0000
  O   O9        1.0  0.81200  0.35900  0.46400  1.0000
  O   O10       1.0  0.03350  0.82500  0.49500  1.0000
  O   O11       1.0  0.96600  0.17500  0.50500  1.0000
  O   O12       1.0  0.18800  0.64100  0.53600  1.0000
  O   O13       1.0  0.45300  0.20300  0.58400  1.0000
  O   O14       1.0  0.75600  0.96300  0.65000  1.0000
  O   O15       1.0  0.71600  0.55600  0.66200  1.0000
  O   O16       1.0  0.28400  0.05590  0.83800  1.0000
  O   O17       1.0  0.24400  0.46300  0.85000  1.0000
  O   O18       1.0  0.54700  0.70300  0.91600  1.0000
  O   O19       1.0  0.81200  0.14100  0.96400  1.0000
  O   O20       1.0  0.03350  0.67500  0.99500  1.0000
  Se  Se1       1.0  0.23200  0.38000  0.07110  1.0000
  Se  Se2       1.0  0.76800  0.88000  0.42900  1.0000
  Se  Se3       1.0  0.23200  0.12000  0.57100  1.0000
  Se  Se4       1.0  0.76800  0.62000  0.92900  1.0000
