data_image0
_chemical_formula_structural       Co3Fe4O24P6
_chemical_formula_sum              "Co3 Fe4 O24 P6"
_cell_length_a       7.85174
_cell_length_b       9.2613
_cell_length_c       6.33205
_cell_angle_alpha    108.715
_cell_angle_beta     101.46
_cell_angle_gamma    104.853

_space_group_name_H-M_alt    "P 1"
_space_group_IT_number       1

loop_
  _space_group_symop_operation_xyz
  'x, y, z'

loop_
  _atom_site_type_symbol
  _atom_site_label
  _atom_site_symmetry_multiplicity
  _atom_site_fract_x
  _atom_site_fract_y
  _atom_site_fract_z
  _atom_site_occupancy
  Co  Co1       1.0  0.00000  0.00000  0.00000  1.0000
  Co  Co2       1.0  0.81200  0.28800  0.29200  1.0000
  Co  Co3       1.0  0.18800  0.71200  0.70800  1.0000
  Fe  Fe1       1.0  0.72200  0.52400  0.04800  1.0000
  Fe  Fe2       1.0  0.45300  0.11600  0.38600  1.0000
  Fe  Fe3       1.0  0.54700  0.88400  0.61400  1.0000
  Fe  Fe4       1.0  0.27800  0.47600  0.95200  1.0000
  O   O1        1.0  0.18200  0.66100  0.01230  1.0000
  O   O2        1.0  0.54900  0.65300  0.06220  1.0000
  O   O3        1.0  0.79300  0.92300  0.11900  1.0000
  O   O4        1.0  0.53700  0.16100  0.12400  1.0000
  O   O5        1.0  0.94300  0.71200  0.21600  1.0000
  O   O6        1.0  0.19600  0.94800  0.22900  1.0000
  O   O7        1.0  0.27500  0.46800  0.24700  1.0000
  O   O8        1.0  0.03740  0.23000  0.26300  1.0000
  O   O9        1.0  0.53800  0.91600  0.31100  1.0000
  O   O10       1.0  0.77700  0.50800  0.37400  1.0000
  O   O11       1.0  0.37400  0.29500  0.45300  1.0000
  O   O12       1.0  0.26400  0.77400  0.45500  1.0000
  O   O13       1.0  0.73600  0.22600  0.54500  1.0000
  O   O14       1.0  0.62600  0.70500  0.54700  1.0000
  O   O15       1.0  0.22300  0.49200  0.62600  1.0000
  O   O16       1.0  0.46200  0.08400  0.68900  1.0000
  O   O17       1.0  0.96300  0.77000  0.73700  1.0000
  O   O18       1.0  0.72500  0.53200  0.75300  1.0000
  O   O19       1.0  0.80400  0.05160  0.77100  1.0000
  O   O20       1.0  0.05730  0.28800  0.78400  1.0000
  O   O21       1.0  0.46300  0.83900  0.87600  1.0000
  O   O22       1.0  0.20700  0.07720  0.88100  1.0000
  O   O23       1.0  0.45100  0.34700  0.93800  1.0000
  O   O24       1.0  0.81800  0.33900  0.98800  1.0000
  P   P1        1.0  0.59600  0.83400  0.09150  1.0000
  P   P2        1.0  0.14400  0.77300  0.22700  1.0000
  P   P3        1.0  0.22800  0.37000  0.39200  1.0000
  P   P4        1.0  0.77200  0.63000  0.60800  1.0000
  P   P5        1.0  0.85600  0.22700  0.77300  1.0000
  P   P6        1.0  0.40400  0.16600  0.90900  1.0000
