data_image0
_chemical_formula_structural       Fe34Tm4
_chemical_formula_sum              "Fe34 Tm4"
_cell_length_a       8.3226
_cell_length_b       8.32164
_cell_length_c       8.21761
_cell_angle_alpha    90
_cell_angle_beta     90
_cell_angle_gamma    120.004

_space_group_name_H-M_alt    "P 1"
_space_group_IT_number       1

loop_
  _space_group_symop_operation_xyz
  'x, y, z'

loop_
  _atom_site_type_symbol
  _atom_site_label
  _atom_site_symmetry_multiplicity
  _atom_site_fract_x
  _atom_site_fract_y
  _atom_site_fract_z
  _atom_site_occupancy
  Fe  Fe1       1.0  0.50000  0.00000  0.00000  1.0000
  Fe  Fe2       1.0  0.00000  0.50000  0.00000  1.0000
  Fe  Fe3       1.0  0.50000  0.50000  0.00000  1.0000
  Fe  Fe4       1.0  0.33100  0.16500  0.01380  1.0000
  Fe  Fe5       1.0  0.83400  0.16500  0.01380  1.0000
  Fe  Fe6       1.0  0.83500  0.66900  0.01380  1.0000
  Fe  Fe7       1.0  0.33300  0.66700  0.10800  1.0000
  Fe  Fe8       1.0  0.03410  0.36300  0.25000  1.0000
  Fe  Fe9       1.0  0.32900  0.36300  0.25000  1.0000
  Fe  Fe10      1.0  0.03410  0.67100  0.25000  1.0000
  Fe  Fe11      1.0  0.63700  0.67100  0.25000  1.0000
  Fe  Fe12      1.0  0.32900  0.96600  0.25000  1.0000
  Fe  Fe13      1.0  0.63700  0.96600  0.25000  1.0000
  Fe  Fe14      1.0  0.33300  0.66700  0.39200  1.0000
  Fe  Fe15      1.0  0.83500  0.66900  0.48600  1.0000
  Fe  Fe16      1.0  0.33100  0.16500  0.48600  1.0000
  Fe  Fe17      1.0  0.83400  0.16500  0.48600  1.0000
  Fe  Fe18      1.0  0.50000  0.00000  0.50000  1.0000
  Fe  Fe19      1.0  0.00000  0.50000  0.50000  1.0000
  Fe  Fe20      1.0  0.50000  0.50000  0.50000  1.0000
  Fe  Fe21      1.0  0.16600  0.83500  0.51400  1.0000
  Fe  Fe22      1.0  0.66900  0.83500  0.51400  1.0000
  Fe  Fe23      1.0  0.16500  0.33100  0.51400  1.0000
  Fe  Fe24      1.0  0.66700  0.33300  0.60800  1.0000
  Fe  Fe25      1.0  0.36300  0.03410  0.75000  1.0000
  Fe  Fe26      1.0  0.67100  0.03410  0.75000  1.0000
  Fe  Fe27      1.0  0.36300  0.32900  0.75000  1.0000
  Fe  Fe28      1.0  0.96600  0.32900  0.75000  1.0000
  Fe  Fe29      1.0  0.67100  0.63700  0.75000  1.0000
  Fe  Fe30      1.0  0.96600  0.63700  0.75000  1.0000
  Fe  Fe31      1.0  0.66700  0.33300  0.89200  1.0000
  Fe  Fe32      1.0  0.16500  0.33100  0.98600  1.0000
  Fe  Fe33      1.0  0.16600  0.83500  0.98600  1.0000
  Fe  Fe34      1.0  0.66900  0.83500  0.98600  1.0000
  Tm  Tm1       1.0  0.00000  0.00000  0.25000  1.0000
  Tm  Tm2       1.0  0.66700  0.33300  0.25000  1.0000
  Tm  Tm3       1.0  0.00000  0.00000  0.75000  1.0000
  Tm  Tm4       1.0  0.33300  0.66700  0.75000  1.0000
