data_image0
_chemical_formula_structural       Mn2Na11O8
_chemical_formula_sum              "Mn2 Na11 O8"
_cell_length_a       7.44731
_cell_length_b       7.45036
_cell_length_c       5.34463
_cell_angle_alpha    90
_cell_angle_beta     90
_cell_angle_gamma    90

_space_group_name_H-M_alt    "P 1"
_space_group_IT_number       1

loop_
  _space_group_symop_operation_xyz
  'x, y, z'

loop_
  _atom_site_type_symbol
  _atom_site_label
  _atom_site_symmetry_multiplicity
  _atom_site_fract_x
  _atom_site_fract_y
  _atom_site_fract_z
  _atom_site_occupancy
  Mn  Mn1       1.0  0.25000  0.75000  0.24000  1.0000
  Mn  Mn2       1.0  0.75000  0.25000  0.76600  1.0000
  Na  Na1       1.0  0.25000  0.25000  0.16700  1.0000
  Na  Na2       1.0  0.55200  0.01070  0.25700  1.0000
  Na  Na3       1.0  0.94800  0.01070  0.25700  1.0000
  Na  Na4       1.0  0.55200  0.48900  0.25700  1.0000
  Na  Na5       1.0  0.94800  0.48900  0.25700  1.0000
  Na  Na6       1.0  0.25000  0.25000  0.66100  1.0000
  Na  Na7       1.0  0.04170  0.54000  0.74700  1.0000
  Na  Na8       1.0  0.45800  0.54000  0.74700  1.0000
  Na  Na9       1.0  0.04170  0.96000  0.74700  1.0000
  Na  Na10      1.0  0.45800  0.96000  0.74700  1.0000
  Na  Na11      1.0  0.75000  0.75000  0.83700  1.0000
  O   O1        1.0  0.01150  0.75000  0.04530  1.0000
  O   O2        1.0  0.48900  0.75000  0.04530  1.0000
  O   O3        1.0  0.25000  0.00000  0.43100  1.0000
  O   O4        1.0  0.25000  0.50000  0.43100  1.0000
  O   O5        1.0  0.75000  0.01850  0.60600  1.0000
  O   O6        1.0  0.75000  0.48200  0.60600  1.0000
  O   O7        1.0  0.51100  0.25000  0.92700  1.0000
  O   O8        1.0  0.98900  0.25000  0.92700  1.0000
