data_image0
_chemical_formula_structural       B16Ru22
_chemical_formula_sum              "B16 Ru22"
_cell_length_a       11.6517
_cell_length_b       11.9377
_cell_length_c       2.88162
_cell_angle_alpha    90
_cell_angle_beta     90
_cell_angle_gamma    90

_space_group_name_H-M_alt    "P 1"
_space_group_IT_number       1

loop_
  _space_group_symop_operation_xyz
  'x, y, z'

loop_
  _atom_site_type_symbol
  _atom_site_label
  _atom_site_symmetry_multiplicity
  _atom_site_fract_x
  _atom_site_fract_y
  _atom_site_fract_z
  _atom_site_occupancy
  B   B1        1.0  0.37700  0.18800  0.00000  1.0000
  B   B2        1.0  0.87700  0.31200  0.00000  1.0000
  B   B3        1.0  0.12300  0.68800  0.00000  1.0000
  B   B4        1.0  0.62300  0.81200  0.00000  1.0000
  B   B5        1.0  0.14700  0.01800  0.50000  1.0000
  B   B6        1.0  0.64600  0.18600  0.50000  1.0000
  B   B7        1.0  0.29700  0.23200  0.50000  1.0000
  B   B8        1.0  0.79700  0.26800  0.50000  1.0000
  B   B9        1.0  0.14600  0.31400  0.50000  1.0000
  B   B10       1.0  0.64700  0.48200  0.50000  1.0000
  B   B11       1.0  0.35300  0.51800  0.50000  1.0000
  B   B12       1.0  0.85400  0.68600  0.50000  1.0000
  B   B13       1.0  0.20300  0.73200  0.50000  1.0000
  B   B14       1.0  0.70300  0.76800  0.50000  1.0000
  B   B15       1.0  0.35400  0.81400  0.50000  1.0000
  B   B16       1.0  0.85300  0.98200  0.50000  1.0000
  Ru  Ru1       1.0  0.00000  0.00000  0.00000  1.0000
  Ru  Ru2       1.0  0.54300  0.10300  0.00000  1.0000
  Ru  Ru3       1.0  0.78300  0.11700  0.00000  1.0000
  Ru  Ru4       1.0  0.16800  0.16900  0.00000  1.0000
  Ru  Ru5       1.0  0.66800  0.33100  0.00000  1.0000
  Ru  Ru6       1.0  0.28300  0.38300  0.00000  1.0000
  Ru  Ru7       1.0  0.04320  0.39700  0.00000  1.0000
  Ru  Ru8       1.0  0.50000  0.50000  0.00000  1.0000
  Ru  Ru9       1.0  0.95700  0.60300  0.00000  1.0000
  Ru  Ru10      1.0  0.71700  0.61700  0.00000  1.0000
  Ru  Ru11      1.0  0.33200  0.66900  0.00000  1.0000
  Ru  Ru12      1.0  0.83200  0.83100  0.00000  1.0000
  Ru  Ru13      1.0  0.21700  0.88300  0.00000  1.0000
  Ru  Ru14      1.0  0.45700  0.89700  0.00000  1.0000
  Ru  Ru15      1.0  0.33700  0.04570  0.50000  1.0000
  Ru  Ru16      1.0  0.96900  0.20000  0.50000  1.0000
  Ru  Ru17      1.0  0.46900  0.30000  0.50000  1.0000
  Ru  Ru18      1.0  0.83700  0.45400  0.50000  1.0000
  Ru  Ru19      1.0  0.16300  0.54600  0.50000  1.0000
  Ru  Ru20      1.0  0.53100  0.70000  0.50000  1.0000
  Ru  Ru21      1.0  0.03130  0.80000  0.50000  1.0000
  Ru  Ru22      1.0  0.66300  0.95400  0.50000  1.0000
