data_image0
_chemical_formula_structural       Co3Cr4O24P6
_chemical_formula_sum              "Co3 Cr4 O24 P6"
_cell_length_a       7.85417
_cell_length_b       9.25517
_cell_length_c       6.29789
_cell_angle_alpha    108.646
_cell_angle_beta     101.785
_cell_angle_gamma    105.16

_space_group_name_H-M_alt    "P 1"
_space_group_IT_number       1

loop_
  _space_group_symop_operation_xyz
  'x, y, z'

loop_
  _atom_site_type_symbol
  _atom_site_label
  _atom_site_symmetry_multiplicity
  _atom_site_fract_x
  _atom_site_fract_y
  _atom_site_fract_z
  _atom_site_occupancy
  Co  Co1       1.0  0.00000  0.00000  0.00000  1.0000
  Co  Co2       1.0  0.81800  0.29200  0.29600  1.0000
  Co  Co3       1.0  0.18200  0.70800  0.70400  1.0000
  Cr  Cr1       1.0  0.71700  0.52200  0.05370  1.0000
  Cr  Cr2       1.0  0.45900  0.11100  0.38100  1.0000
  Cr  Cr3       1.0  0.54100  0.88900  0.61900  1.0000
  Cr  Cr4       1.0  0.28300  0.47800  0.94600  1.0000
  O   O1        1.0  0.17600  0.65400  0.00539  1.0000
  O   O2        1.0  0.54800  0.65400  0.06990  1.0000
  O   O3        1.0  0.53900  0.16100  0.12000  1.0000
  O   O4        1.0  0.79300  0.92100  0.12300  1.0000
  O   O5        1.0  0.94300  0.71100  0.21800  1.0000
  O   O6        1.0  0.19700  0.94400  0.22500  1.0000
  O   O7        1.0  0.28400  0.46800  0.24600  1.0000
  O   O8        1.0  0.03970  0.23100  0.26200  1.0000
  O   O9        1.0  0.53900  0.91700  0.31600  1.0000
  O   O10       1.0  0.76800  0.50700  0.37400  1.0000
  O   O11       1.0  0.26400  0.76900  0.45300  1.0000
  O   O12       1.0  0.37700  0.29300  0.45500  1.0000
  O   O13       1.0  0.62300  0.70700  0.54500  1.0000
  O   O14       1.0  0.73600  0.23100  0.54700  1.0000
  O   O15       1.0  0.23200  0.49300  0.62600  1.0000
  O   O16       1.0  0.46100  0.08260  0.68400  1.0000
  O   O17       1.0  0.96000  0.76900  0.73800  1.0000
  O   O18       1.0  0.71600  0.53200  0.75400  1.0000
  O   O19       1.0  0.80300  0.05570  0.77500  1.0000
  O   O20       1.0  0.05710  0.28900  0.78200  1.0000
  O   O21       1.0  0.20700  0.07870  0.87700  1.0000
  O   O22       1.0  0.46100  0.83900  0.88000  1.0000
  O   O23       1.0  0.45200  0.34600  0.93000  1.0000
  O   O24       1.0  0.82400  0.34600  0.99500  1.0000
  P   P1        1.0  0.59600  0.83400  0.09530  1.0000
  P   P2        1.0  0.14300  0.76800  0.22300  1.0000
  P   P3        1.0  0.23500  0.36800  0.38900  1.0000
  P   P4        1.0  0.76500  0.63200  0.61100  1.0000
  P   P5        1.0  0.85700  0.23200  0.77700  1.0000
  P   P6        1.0  0.40400  0.16600  0.90500  1.0000
