data_image0
_chemical_formula_structural       Cd2H8K4O20Se4
_chemical_formula_sum              "Cd2 H8 K4 O20 Se4"
_cell_length_a       6.52916
_cell_length_b       7.42861
_cell_length_c       11.3147
_cell_angle_alpha    72.1014
_cell_angle_beta     74.5917
_cell_angle_gamma    70.5618

_space_group_name_H-M_alt    "P 1"
_space_group_IT_number       1

loop_
  _space_group_symop_operation_xyz
  'x, y, z'

loop_
  _atom_site_type_symbol
  _atom_site_label
  _atom_site_symmetry_multiplicity
  _atom_site_fract_x
  _atom_site_fract_y
  _atom_site_fract_z
  _atom_site_occupancy
  Cd  Cd1       1.0  0.24700  0.02900  0.25200  1.0000
  Cd  Cd2       1.0  0.75300  0.97100  0.74800  1.0000
  H   H1        1.0  0.34400  0.68600  0.19600  1.0000
  H   H2        1.0  0.16900  0.43100  0.20800  1.0000
  H   H3        1.0  0.36100  0.34000  0.29200  1.0000
  H   H4        1.0  0.30200  0.62500  0.34300  1.0000
  H   H5        1.0  0.69800  0.37500  0.65700  1.0000
  H   H6        1.0  0.63900  0.66000  0.70800  1.0000
  H   H7        1.0  0.83100  0.56900  0.79200  1.0000
  H   H8        1.0  0.65600  0.31400  0.80400  1.0000
  K   K1        1.0  0.73000  0.26900  0.07630  1.0000
  K   K2        1.0  0.80100  0.74800  0.40300  1.0000
  K   K3        1.0  0.19900  0.25200  0.59700  1.0000
  K   K4        1.0  0.27000  0.73100  0.92400  1.0000
  O   O1        1.0  0.17900  0.08720  0.05200  1.0000
  O   O2        1.0  0.55500  0.66200  0.07490  1.0000
  O   O3        1.0  0.96100  0.59000  0.13000  1.0000
  O   O4        1.0  0.62800  0.90500  0.19100  1.0000
  O   O5        1.0  0.30500  0.32400  0.22300  1.0000
  O   O6        1.0  0.23000  0.71500  0.27200  1.0000
  O   O7        1.0  0.86900  0.12400  0.30400  1.0000
  O   O8        1.0  0.49400  0.38400  0.38600  1.0000
  O   O9        1.0  0.32500  0.94600  0.45100  1.0000
  O   O10       1.0  0.88300  0.35100  0.45300  1.0000
  O   O11       1.0  0.11700  0.64900  0.54700  1.0000
  O   O12       1.0  0.67500  0.05370  0.54900  1.0000
  O   O13       1.0  0.50600  0.61600  0.61400  1.0000
  O   O14       1.0  0.13100  0.87600  0.69600  1.0000
  O   O15       1.0  0.77000  0.28500  0.72800  1.0000
  O   O16       1.0  0.69500  0.67600  0.77700  1.0000
  O   O17       1.0  0.37200  0.09540  0.80900  1.0000
  O   O18       1.0  0.03930  0.41000  0.87000  1.0000
  O   O19       1.0  0.44500  0.33800  0.92500  1.0000
  O   O20       1.0  0.82100  0.91300  0.94800  1.0000
  Se  Se1       1.0  0.74100  0.76400  0.08570  1.0000
  Se  Se2       1.0  0.73500  0.23300  0.42400  1.0000
  Se  Se3       1.0  0.26500  0.76700  0.57600  1.0000
  Se  Se4       1.0  0.25900  0.23600  0.91400  1.0000
