data_image0
_chemical_formula_structural       Mn4Na8O11
_chemical_formula_sum              "Mn4 Na8 O11"
_cell_length_a       10.5696
_cell_length_b       5.35328
_cell_length_c       5.64145
_cell_angle_alpha    99.8537
_cell_angle_beta     100.7
_cell_angle_gamma    119.173

_space_group_name_H-M_alt    "P 1"
_space_group_IT_number       1

loop_
  _space_group_symop_operation_xyz
  'x, y, z'

loop_
  _atom_site_type_symbol
  _atom_site_label
  _atom_site_symmetry_multiplicity
  _atom_site_fract_x
  _atom_site_fract_y
  _atom_site_fract_z
  _atom_site_occupancy
  Mn  Mn1       1.0  0.08150  0.82800  0.00019  1.0000
  Mn  Mn2       1.0  0.40500  0.12500  0.00029  1.0000
  Mn  Mn3       1.0  0.59200  0.85600  0.97500  1.0000
  Mn  Mn4       1.0  0.91900  0.17400  0.98800  1.0000
  Na  Na1       1.0  0.25500  0.49800  0.00524  1.0000
  Na  Na2       1.0  0.68200  0.67700  0.47500  1.0000
  Na  Na3       1.0  0.83300  0.34800  0.49200  1.0000
  Na  Na4       1.0  0.99800  0.00000  0.49300  1.0000
  Na  Na5       1.0  0.17000  0.64700  0.49800  1.0000
  Na  Na6       1.0  0.31100  0.30200  0.53100  1.0000
  Na  Na7       1.0  0.50800  0.05470  0.53300  1.0000
  Na  Na8       1.0  0.75000  0.50400  0.99600  1.0000
  O   O1        1.0  0.79000  0.95800  0.18700  1.0000
  O   O2        1.0  0.97200  0.57000  0.19400  1.0000
  O   O3        1.0  0.10100  0.19400  0.20200  1.0000
  O   O4        1.0  0.59300  0.19200  0.21500  1.0000
  O   O5        1.0  0.28400  0.93900  0.21700  1.0000
  O   O6        1.0  0.72800  0.07680  0.76400  1.0000
  O   O7        1.0  0.40100  0.76900  0.76900  1.0000
  O   O8        1.0  0.90200  0.80500  0.78900  1.0000
  O   O9        1.0  0.03430  0.43600  0.79900  1.0000
  O   O10       1.0  0.20800  0.04220  0.80400  1.0000
  O   O11       1.0  0.51900  0.42900  0.84600  1.0000
