data_image0
_chemical_formula_structural       F24K8Mn6
_chemical_formula_sum              "F24 K8 Mn6"
_cell_length_a       8.07363
_cell_length_b       8.07363
_cell_length_c       9.81991
_cell_angle_alpha    114.273
_cell_angle_beta     114.273
_cell_angle_gamma    90

_space_group_name_H-M_alt    "P 1"
_space_group_IT_number       1

loop_
  _space_group_symop_operation_xyz
  'x, y, z'

loop_
  _atom_site_type_symbol
  _atom_site_label
  _atom_site_symmetry_multiplicity
  _atom_site_fract_x
  _atom_site_fract_y
  _atom_site_fract_z
  _atom_site_occupancy
  F   F1        1.0  0.00111  0.75100  0.00221  1.0000
  F   F2        1.0  0.50900  0.75900  0.01860  1.0000
  F   F3        1.0  0.35000  0.36800  0.23700  1.0000
  F   F4        1.0  0.88700  0.36800  0.23700  1.0000
  F   F5        1.0  0.12000  0.11600  0.24000  1.0000
  F   F6        1.0  0.12000  0.62400  0.24000  1.0000
  F   F7        1.0  0.37600  0.88000  0.26000  1.0000
  F   F8        1.0  0.88400  0.88000  0.26000  1.0000
  F   F9        1.0  0.63200  0.11300  0.26300  1.0000
  F   F10       1.0  0.63200  0.65000  0.26300  1.0000
  F   F11       1.0  0.24100  0.49100  0.48100  1.0000
  F   F12       1.0  0.24900  0.99900  0.49800  1.0000
  F   F13       1.0  0.75100  0.00110  0.50200  1.0000
  F   F14       1.0  0.75900  0.50900  0.51900  1.0000
  F   F15       1.0  0.36800  0.35000  0.73700  1.0000
  F   F16       1.0  0.36800  0.88700  0.73700  1.0000
  F   F17       1.0  0.11600  0.12000  0.74000  1.0000
  F   F18       1.0  0.62400  0.12000  0.74000  1.0000
  F   F19       1.0  0.88000  0.37600  0.76000  1.0000
  F   F20       1.0  0.88000  0.88400  0.76000  1.0000
  F   F21       1.0  0.11300  0.63200  0.76300  1.0000
  F   F22       1.0  0.65000  0.63200  0.76300  1.0000
  F   F23       1.0  0.49100  0.24100  0.98100  1.0000
  F   F24       1.0  0.99900  0.24900  0.99800  1.0000
  K   K1        1.0  0.27900  0.00000  0.00000  1.0000
  K   K2        1.0  0.72100  0.00000  0.00000  1.0000
  K   K3        1.0  0.27900  0.50000  0.00000  1.0000
  K   K4        1.0  0.72100  0.50000  0.00000  1.0000
  K   K5        1.0  0.00000  0.27900  0.50000  1.0000
  K   K6        1.0  0.00000  0.72100  0.50000  1.0000
  K   K7        1.0  0.50000  0.27900  0.50000  1.0000
  K   K8        1.0  0.50000  0.72100  0.50000  1.0000
  Mn  Mn1       1.0  0.12200  0.37200  0.24300  1.0000
  Mn  Mn2       1.0  0.12500  0.87500  0.25000  1.0000
  Mn  Mn3       1.0  0.62800  0.87800  0.25700  1.0000
  Mn  Mn4       1.0  0.37200  0.12200  0.74300  1.0000
  Mn  Mn5       1.0  0.87500  0.12500  0.75000  1.0000
  Mn  Mn6       1.0  0.87800  0.62800  0.75700  1.0000
