data_image0
_chemical_formula_structural       Fe4Mg3O24V6
_chemical_formula_sum              "Fe4 Mg3 O24 V6"
_cell_length_a       6.64997
_cell_length_b       8.00025
_cell_length_c       9.73514
_cell_angle_alpha    105.265
_cell_angle_beta     105.87
_cell_angle_gamma    102.287

_space_group_name_H-M_alt    "P 1"
_space_group_IT_number       1

loop_
  _space_group_symop_operation_xyz
  'x, y, z'

loop_
  _atom_site_type_symbol
  _atom_site_label
  _atom_site_symmetry_multiplicity
  _atom_site_fract_x
  _atom_site_fract_y
  _atom_site_fract_z
  _atom_site_occupancy
  Fe  Fe1       1.0  0.04910  0.21200  0.01460  1.0000
  Fe  Fe2       1.0  0.62000  0.04430  0.38900  1.0000
  Fe  Fe3       1.0  0.38000  0.95600  0.61100  1.0000
  Fe  Fe4       1.0  0.95100  0.78800  0.98500  1.0000
  Mg  Mg1       1.0  0.72300  0.70200  0.21100  1.0000
  Mg  Mg2       1.0  0.00000  0.50000  0.50000  1.0000
  Mg  Mg3       1.0  0.27700  0.29800  0.78900  1.0000
  O   O1        1.0  0.64300  0.72900  0.00316  1.0000
  O   O2        1.0  0.76700  0.21700  0.02790  1.0000
  O   O3        1.0  0.07290  0.05310  0.14200  1.0000
  O   O4        1.0  0.00984  0.71100  0.16600  1.0000
  O   O5        1.0  0.18900  0.43400  0.19300  1.0000
  O   O6        1.0  0.55100  0.11800  0.21800  1.0000
  O   O7        1.0  0.74500  0.48200  0.26900  1.0000
  O   O8        1.0  0.47600  0.76700  0.27100  1.0000
  O   O9        1.0  0.87000  0.96600  0.35000  1.0000
  O   O10       1.0  0.13300  0.31100  0.42000  1.0000
  O   O11       1.0  0.33500  0.03500  0.42300  1.0000
  O   O12       1.0  0.21900  0.69900  0.46300  1.0000
  O   O13       1.0  0.78100  0.30100  0.53700  1.0000
  O   O14       1.0  0.66500  0.96500  0.57700  1.0000
  O   O15       1.0  0.86700  0.68900  0.58000  1.0000
  O   O16       1.0  0.13000  0.03390  0.65000  1.0000
  O   O17       1.0  0.52400  0.23300  0.72900  1.0000
  O   O18       1.0  0.25500  0.51800  0.73100  1.0000
  O   O19       1.0  0.44900  0.88200  0.78200  1.0000
  O   O20       1.0  0.81100  0.56600  0.80700  1.0000
  O   O21       1.0  0.99000  0.28900  0.83400  1.0000
  O   O22       1.0  0.92700  0.94700  0.85800  1.0000
  O   O23       1.0  0.23300  0.78300  0.97200  1.0000
  O   O24       1.0  0.35700  0.27100  0.99700  1.0000
  V   V1        1.0  0.60300  0.27100  0.12800  1.0000
  V   V2        1.0  0.22500  0.65500  0.27600  1.0000
  V   V3        1.0  0.10500  0.09490  0.33400  1.0000
  V   V4        1.0  0.89500  0.90500  0.66600  1.0000
  V   V5        1.0  0.77500  0.34500  0.72400  1.0000
  V   V6        1.0  0.39700  0.72900  0.87200  1.0000
