data_image0
_chemical_formula_structural       Bi4Cu2O24Se8
_chemical_formula_sum              "Bi4 Cu2 O24 Se8"
_cell_length_a       4.38339
_cell_length_b       15.8137
_cell_length_c       8.04452
_cell_angle_alpha    90
_cell_angle_beta     94.7188
_cell_angle_gamma    90

_space_group_name_H-M_alt    "P 1"
_space_group_IT_number       1

loop_
  _space_group_symop_operation_xyz
  'x, y, z'

loop_
  _atom_site_type_symbol
  _atom_site_label
  _atom_site_symmetry_multiplicity
  _atom_site_fract_x
  _atom_site_fract_y
  _atom_site_fract_z
  _atom_site_occupancy
  Bi  Bi1       1.0  0.48700  0.22300  0.03610  1.0000
  Bi  Bi2       1.0  0.51300  0.72300  0.46400  1.0000
  Bi  Bi3       1.0  0.48700  0.27700  0.53600  1.0000
  Bi  Bi4       1.0  0.51300  0.77700  0.96400  1.0000
  Cu  Cu1       1.0  0.00000  0.00000  0.00000  1.0000
  Cu  Cu2       1.0  0.00000  0.50000  0.50000  1.0000
  O   O1        1.0  0.05060  0.72300  0.03390  1.0000
  O   O2        1.0  0.66600  0.93100  0.05630  1.0000
  O   O3        1.0  0.58800  0.64700  0.12200  1.0000
  O   O4        1.0  0.92400  0.14300  0.16000  1.0000
  O   O5        1.0  0.19700  0.97800  0.23000  1.0000
  O   O6        1.0  0.46400  0.82400  0.24900  1.0000
  O   O7        1.0  0.53600  0.32400  0.25100  1.0000
  O   O8        1.0  0.80300  0.47800  0.27000  1.0000
  O   O9        1.0  0.07590  0.64300  0.34000  1.0000
  O   O10       1.0  0.41200  0.14700  0.37800  1.0000
  O   O11       1.0  0.33400  0.43100  0.44400  1.0000
  O   O12       1.0  0.94900  0.22300  0.46600  1.0000
  O   O13       1.0  0.05060  0.77700  0.53400  1.0000
  O   O14       1.0  0.66600  0.56900  0.55600  1.0000
  O   O15       1.0  0.58800  0.85300  0.62200  1.0000
  O   O16       1.0  0.92400  0.35700  0.66000  1.0000
  O   O17       1.0  0.19700  0.52200  0.73000  1.0000
  O   O18       1.0  0.46400  0.67600  0.74900  1.0000
  O   O19       1.0  0.53600  0.17600  0.75100  1.0000
  O   O20       1.0  0.80300  0.02250  0.77000  1.0000
  O   O21       1.0  0.07590  0.85700  0.84000  1.0000
  O   O22       1.0  0.41200  0.35300  0.87800  1.0000
  O   O23       1.0  0.33400  0.06940  0.94400  1.0000
  O   O24       1.0  0.94900  0.27700  0.96600  1.0000
  Se  Se1       1.0  0.97900  0.62600  0.13200  1.0000
  Se  Se2       1.0  0.44900  0.43200  0.24300  1.0000
  Se  Se3       1.0  0.55100  0.93200  0.25700  1.0000
  Se  Se4       1.0  0.02120  0.12600  0.36800  1.0000
  Se  Se5       1.0  0.97900  0.87400  0.63200  1.0000
  Se  Se6       1.0  0.44900  0.06810  0.74300  1.0000
  Se  Se7       1.0  0.55100  0.56800  0.75700  1.0000
  Se  Se8       1.0  0.02120  0.37400  0.86800  1.0000
