data_image0
_chemical_formula_structural       Co6H8O20P4
_chemical_formula_sum              "Co6 H8 O20 P4"
_cell_length_a       7.47584
_cell_length_b       7.47204
_cell_length_c       7.33947
_cell_angle_alpha    90
_cell_angle_beta     118.167
_cell_angle_gamma    90

_space_group_name_H-M_alt    "P 1"
_space_group_IT_number       1

loop_
  _space_group_symop_operation_xyz
  'x, y, z'

loop_
  _atom_site_type_symbol
  _atom_site_label
  _atom_site_symmetry_multiplicity
  _atom_site_fract_x
  _atom_site_fract_y
  _atom_site_fract_z
  _atom_site_occupancy
  Co  Co1       1.0  0.00000  0.00000  0.00000  1.0000
  Co  Co2       1.0  0.74000  0.27300  0.01450  1.0000
  Co  Co3       1.0  0.26000  0.77300  0.48600  1.0000
  Co  Co4       1.0  0.00000  0.50000  0.50000  1.0000
  Co  Co5       1.0  0.74000  0.22700  0.51400  1.0000
  Co  Co6       1.0  0.26000  0.72700  0.98600  1.0000
  H   H1        1.0  0.63300  0.66500  0.02180  1.0000
  H   H2        1.0  0.62500  0.45000  0.23400  1.0000
  H   H3        1.0  0.37500  0.95000  0.26600  1.0000
  H   H4        1.0  0.36700  0.16500  0.47800  1.0000
  H   H5        1.0  0.63300  0.83500  0.52200  1.0000
  H   H6        1.0  0.62500  0.05030  0.73400  1.0000
  H   H7        1.0  0.37500  0.55000  0.76600  1.0000
  H   H8        1.0  0.36700  0.33500  0.97800  1.0000
  O   O1        1.0  0.05320  0.26700  0.09930  1.0000
  O   O2        1.0  0.58900  0.75100  0.10400  1.0000
  O   O3        1.0  0.33400  0.47000  0.11500  1.0000
  O   O4        1.0  0.81600  0.01780  0.14200  1.0000
  O   O5        1.0  0.25600  0.87400  0.22600  1.0000
  O   O6        1.0  0.74400  0.37400  0.27400  1.0000
  O   O7        1.0  0.18400  0.51800  0.35800  1.0000
  O   O8        1.0  0.66600  0.97000  0.38500  1.0000
  O   O9        1.0  0.41100  0.25100  0.39600  1.0000
  O   O10       1.0  0.94700  0.76700  0.40100  1.0000
  O   O11       1.0  0.05320  0.23300  0.59900  1.0000
  O   O12       1.0  0.58900  0.74900  0.60400  1.0000
  O   O13       1.0  0.33400  0.02980  0.61500  1.0000
  O   O14       1.0  0.81600  0.48200  0.64200  1.0000
  O   O15       1.0  0.25600  0.62600  0.72600  1.0000
  O   O16       1.0  0.74400  0.12600  0.77400  1.0000
  O   O17       1.0  0.18400  0.98200  0.85800  1.0000
  O   O18       1.0  0.66600  0.53000  0.88500  1.0000
  O   O19       1.0  0.41100  0.24900  0.89600  1.0000
  O   O20       1.0  0.94700  0.73300  0.90100  1.0000
  P   P1        1.0  0.23600  0.38100  0.23700  1.0000
  P   P2        1.0  0.76400  0.88100  0.26300  1.0000
  P   P3        1.0  0.23600  0.11900  0.73700  1.0000
  P   P4        1.0  0.76400  0.61900  0.76300  1.0000
