data_image0
_chemical_formula_structural       As4F24N4S2Se4
_chemical_formula_sum              "As4 F24 N4 S2 Se4"
_cell_length_a       7.3864
_cell_length_b       7.3864
_cell_length_c       10.0374
_cell_angle_alpha    93.1757
_cell_angle_beta     93.1757
_cell_angle_gamma    68.4276

_space_group_name_H-M_alt    "P 1"
_space_group_IT_number       1

loop_
  _space_group_symop_operation_xyz
  'x, y, z'

loop_
  _atom_site_type_symbol
  _atom_site_label
  _atom_site_symmetry_multiplicity
  _atom_site_fract_x
  _atom_site_fract_y
  _atom_site_fract_z
  _atom_site_occupancy
  As  As1       1.0  0.01030  0.99000  0.00000  1.0000
  As  As2       1.0  0.34200  0.39100  0.25400  1.0000
  As  As3       1.0  0.00713  0.99300  0.50000  1.0000
  As  As4       1.0  0.60900  0.65800  0.74600  1.0000
  F   F1        1.0  0.88800  0.85700  0.07370  1.0000
  F   F2        1.0  0.91400  0.18800  0.11200  1.0000
  F   F3        1.0  0.20900  0.88400  0.11200  1.0000
  F   F4        1.0  0.15800  0.47900  0.12700  1.0000
  F   F5        1.0  0.51900  0.29800  0.13200  1.0000
  F   F6        1.0  0.30200  0.16600  0.24300  1.0000
  F   F7        1.0  0.37500  0.61300  0.27000  1.0000
  F   F8        1.0  0.93600  0.92500  0.34000  1.0000
  F   F9        1.0  0.16100  0.47200  0.37300  1.0000
  F   F10       1.0  0.52600  0.29500  0.37800  1.0000
  F   F11       1.0  0.24500  0.93300  0.44500  1.0000
  F   F12       1.0  0.94900  0.23300  0.44700  1.0000
  F   F13       1.0  0.76700  0.05110  0.55300  1.0000
  F   F14       1.0  0.06700  0.75500  0.55500  1.0000
  F   F15       1.0  0.70500  0.47400  0.62200  1.0000
  F   F16       1.0  0.52800  0.83900  0.62700  1.0000
  F   F17       1.0  0.07480  0.06430  0.66000  1.0000
  F   F18       1.0  0.38700  0.62500  0.73000  1.0000
  F   F19       1.0  0.83400  0.69800  0.75700  1.0000
  F   F20       1.0  0.70200  0.48100  0.86800  1.0000
  F   F21       1.0  0.52100  0.84200  0.87300  1.0000
  F   F22       1.0  0.11600  0.79100  0.88800  1.0000
  F   F23       1.0  0.81200  0.08580  0.88800  1.0000
  F   F24       1.0  0.14300  0.11200  0.92600  1.0000
  N   N1        1.0  0.71000  0.61200  0.12900  1.0000
  N   N2        1.0  0.73700  0.64400  0.38600  1.0000
  N   N3        1.0  0.35600  0.26300  0.61400  1.0000
  N   N4        1.0  0.38800  0.29000  0.87100  1.0000
  S   S1        1.0  0.79800  0.49900  0.26100  1.0000
  S   S2        1.0  0.50100  0.20200  0.73900  1.0000
  Se  Se1       1.0  0.56100  0.85800  0.13600  1.0000
  Se  Se2       1.0  0.58300  0.88500  0.36800  1.0000
  Se  Se3       1.0  0.11500  0.41700  0.63200  1.0000
  Se  Se4       1.0  0.14200  0.43900  0.86400  1.0000
