data_image0
_chemical_formula_structural       Al4H20Ni2Zr12
_chemical_formula_sum              "Al4 H20 Ni2 Zr12"
_cell_length_a       8.04012
_cell_length_b       8.04012
_cell_length_c       7.17462
_cell_angle_alpha    90
_cell_angle_beta     90
_cell_angle_gamma    120

_space_group_name_H-M_alt    "P 1"
_space_group_IT_number       1

loop_
  _space_group_symop_operation_xyz
  'x, y, z'

loop_
  _atom_site_type_symbol
  _atom_site_label
  _atom_site_symmetry_multiplicity
  _atom_site_fract_x
  _atom_site_fract_y
  _atom_site_fract_z
  _atom_site_occupancy
  Al  Al1       1.0  0.33300  0.66700  0.05120  1.0000
  Al  Al2       1.0  0.33300  0.66700  0.44900  1.0000
  Al  Al3       1.0  0.66700  0.33300  0.55100  1.0000
  Al  Al4       1.0  0.66700  0.33300  0.94900  1.0000
  H   H1        1.0  0.00000  0.00000  0.00000  1.0000
  H   H2        1.0  0.27800  0.00000  0.00000  1.0000
  H   H3        1.0  0.00000  0.27800  0.00000  1.0000
  H   H4        1.0  0.72200  0.72200  0.00000  1.0000
  H   H5        1.0  0.70500  0.11300  0.25000  1.0000
  H   H6        1.0  0.12200  0.24200  0.25000  1.0000
  H   H7        1.0  0.40800  0.29500  0.25000  1.0000
  H   H8        1.0  0.88700  0.59200  0.25000  1.0000
  H   H9        1.0  0.12100  0.87800  0.25000  1.0000
  H   H10       1.0  0.75800  0.88000  0.25000  1.0000
  H   H11       1.0  0.00000  0.00000  0.50000  1.0000
  H   H12       1.0  0.27800  0.00000  0.50000  1.0000
  H   H13       1.0  0.00000  0.27800  0.50000  1.0000
  H   H14       1.0  0.72200  0.72200  0.50000  1.0000
  H   H15       1.0  0.87800  0.12100  0.75000  1.0000
  H   H16       1.0  0.24200  0.12200  0.75000  1.0000
  H   H17       1.0  0.29500  0.40800  0.75000  1.0000
  H   H18       1.0  0.11300  0.70500  0.75000  1.0000
  H   H19       1.0  0.88000  0.75800  0.75000  1.0000
  H   H20       1.0  0.59200  0.88700  0.75000  1.0000
  Ni  Ni1       1.0  0.00000  0.00000  0.25000  1.0000
  Ni  Ni2       1.0  0.00000  0.00000  0.75000  1.0000
  Zr  Zr1       1.0  0.73600  0.00000  0.00000  1.0000
  Zr  Zr2       1.0  0.26400  0.26400  0.00000  1.0000
  Zr  Zr3       1.0  0.00000  0.73600  0.00000  1.0000
  Zr  Zr4       1.0  0.42100  0.04770  0.25000  1.0000
  Zr  Zr5       1.0  0.95200  0.37300  0.25000  1.0000
  Zr  Zr6       1.0  0.62700  0.57900  0.25000  1.0000
  Zr  Zr7       1.0  0.73600  0.00000  0.50000  1.0000
  Zr  Zr8       1.0  0.26400  0.26400  0.50000  1.0000
  Zr  Zr9       1.0  0.00000  0.73600  0.50000  1.0000
  Zr  Zr10      1.0  0.04770  0.42100  0.75000  1.0000
  Zr  Zr11      1.0  0.57900  0.62700  0.75000  1.0000
  Zr  Zr12      1.0  0.37300  0.95200  0.75000  1.0000
