data_image0
_chemical_formula_structural       Be6H8O20P4
_chemical_formula_sum              "Be6 H8 O20 P4"
_cell_length_a       4.51569
_cell_length_b       8.20064
_cell_length_c       9.41658
_cell_angle_alpha    93.5146
_cell_angle_beta     90
_cell_angle_gamma    105.981

_space_group_name_H-M_alt    "P 1"
_space_group_IT_number       1

loop_
  _space_group_symop_operation_xyz
  'x, y, z'

loop_
  _atom_site_type_symbol
  _atom_site_label
  _atom_site_symmetry_multiplicity
  _atom_site_fract_x
  _atom_site_fract_y
  _atom_site_fract_z
  _atom_site_occupancy
  Be  Be1       1.0  0.19500  0.49600  0.15800  1.0000
  Be  Be2       1.0  0.80000  0.00000  0.25000  1.0000
  Be  Be3       1.0  0.69900  0.50400  0.34200  1.0000
  Be  Be4       1.0  0.30100  0.49600  0.65800  1.0000
  Be  Be5       1.0  0.20000  0.00000  0.75000  1.0000
  Be  Be6       1.0  0.80500  0.50400  0.84200  1.0000
  H   H1        1.0  0.75700  0.18800  0.09410  1.0000
  H   H2        1.0  0.44800  0.13200  0.18900  1.0000
  H   H3        1.0  0.31600  0.86800  0.31100  1.0000
  H   H4        1.0  0.56800  0.81200  0.40600  1.0000
  H   H5        1.0  0.43200  0.18800  0.59400  1.0000
  H   H6        1.0  0.68400  0.13200  0.68900  1.0000
  H   H7        1.0  0.55200  0.86800  0.81100  1.0000
  H   H8        1.0  0.24300  0.81200  0.90600  1.0000
  O   O1        1.0  0.08640  0.32900  0.05020  1.0000
  O   O2        1.0  0.44700  0.65300  0.10200  1.0000
  O   O3        1.0  0.61700  0.09410  0.14500  1.0000
  O   O4        1.0  0.95600  0.87200  0.16500  1.0000
  O   O5        1.0  0.88800  0.56000  0.19600  1.0000
  O   O6        1.0  0.32800  0.44000  0.30400  1.0000
  O   O7        1.0  0.08400  0.12800  0.33500  1.0000
  O   O8        1.0  0.52200  0.90600  0.35500  1.0000
  O   O9        1.0  0.79500  0.34700  0.39800  1.0000
  O   O10       1.0  0.75700  0.67100  0.45000  1.0000
  O   O11       1.0  0.24300  0.32900  0.55000  1.0000
  O   O12       1.0  0.20500  0.65300  0.60200  1.0000
  O   O13       1.0  0.47800  0.09410  0.64500  1.0000
  O   O14       1.0  0.91600  0.87200  0.66500  1.0000
  O   O15       1.0  0.67200  0.56000  0.69600  1.0000
  O   O16       1.0  0.11200  0.44000  0.80400  1.0000
  O   O17       1.0  0.04450  0.12800  0.83500  1.0000
  O   O18       1.0  0.38300  0.90600  0.85500  1.0000
  O   O19       1.0  0.55300  0.34700  0.89800  1.0000
  O   O20       1.0  0.91400  0.67100  0.95000  1.0000
  P   P1        1.0  0.79700  0.69300  0.10100  1.0000
  P   P2        1.0  0.10400  0.30700  0.39900  1.0000
  P   P3        1.0  0.89600  0.69300  0.60100  1.0000
  P   P4        1.0  0.20300  0.30700  0.89900  1.0000
