data_image0
_chemical_formula_structural       N8Na4O24Pd2
_chemical_formula_sum              "N8 Na4 O24 Pd2"
_cell_length_a       6.80263
_cell_length_b       7.65262
_cell_length_c       8.69982
_cell_angle_alpha    90
_cell_angle_beta     91.5955
_cell_angle_gamma    90

_space_group_name_H-M_alt    "P 1"
_space_group_IT_number       1

loop_
  _space_group_symop_operation_xyz
  'x, y, z'

loop_
  _atom_site_type_symbol
  _atom_site_label
  _atom_site_symmetry_multiplicity
  _atom_site_fract_x
  _atom_site_fract_y
  _atom_site_fract_z
  _atom_site_occupancy
  N   N1        1.0  0.83200  0.21500  0.06560  1.0000
  N   N2        1.0  0.66200  0.61100  0.21600  1.0000
  N   N3        1.0  0.33800  0.11100  0.28400  1.0000
  N   N4        1.0  0.16800  0.71500  0.43400  1.0000
  N   N5        1.0  0.83200  0.28500  0.56600  1.0000
  N   N6        1.0  0.66200  0.88900  0.71600  1.0000
  N   N7        1.0  0.33800  0.38900  0.78400  1.0000
  N   N8        1.0  0.16800  0.78500  0.93400  1.0000
  Na  Na1       1.0  0.23400  0.45100  0.12100  1.0000
  Na  Na2       1.0  0.76600  0.95100  0.37900  1.0000
  Na  Na3       1.0  0.23400  0.04950  0.62100  1.0000
  Na  Na4       1.0  0.76600  0.54900  0.87900  1.0000
  O   O1        1.0  0.31400  0.80000  0.03680  1.0000
  O   O2        1.0  0.92600  0.35400  0.05870  1.0000
  O   O3        1.0  0.76200  0.70700  0.13400  1.0000
  O   O4        1.0  0.34400  0.15600  0.13800  1.0000
  O   O5        1.0  0.86800  0.09650  0.15900  1.0000
  O   O6        1.0  0.57000  0.48000  0.17000  1.0000
  O   O7        1.0  0.43000  0.98000  0.33000  1.0000
  O   O8        1.0  0.13200  0.59600  0.34100  1.0000
  O   O9        1.0  0.65600  0.65600  0.36200  1.0000
  O   O10       1.0  0.23800  0.20700  0.36600  1.0000
  O   O11       1.0  0.07420  0.85400  0.44100  1.0000
  O   O12       1.0  0.68600  0.30000  0.46300  1.0000
  O   O13       1.0  0.31400  0.70000  0.53700  1.0000
  O   O14       1.0  0.92600  0.14600  0.55900  1.0000
  O   O15       1.0  0.76200  0.79300  0.63400  1.0000
  O   O16       1.0  0.34400  0.34400  0.63800  1.0000
  O   O17       1.0  0.86800  0.40400  0.65900  1.0000
  O   O18       1.0  0.57000  0.02040  0.67000  1.0000
  O   O19       1.0  0.43000  0.52000  0.83000  1.0000
  O   O20       1.0  0.13200  0.90400  0.84100  1.0000
  O   O21       1.0  0.65600  0.84400  0.86200  1.0000
  O   O22       1.0  0.23800  0.29300  0.86600  1.0000
  O   O23       1.0  0.07420  0.64600  0.94100  1.0000
  O   O24       1.0  0.68600  0.20000  0.96300  1.0000
  Pd  Pd1       1.0  0.50000  0.00000  0.00000  1.0000
  Pd  Pd2       1.0  0.50000  0.50000  0.50000  1.0000
