data_image0
_chemical_formula_structural       B8Ba4O22Sc4
_chemical_formula_sum              "B8 Ba4 O22 Sc4"
_cell_length_a       6.30062
_cell_length_b       9.27916
_cell_length_c       9.27916
_cell_angle_alpha    60.4489
_cell_angle_beta     99.1357
_cell_angle_gamma    99.1357

_space_group_name_H-M_alt    "P 1"
_space_group_IT_number       1

loop_
  _space_group_symop_operation_xyz
  'x, y, z'

loop_
  _atom_site_type_symbol
  _atom_site_label
  _atom_site_symmetry_multiplicity
  _atom_site_fract_x
  _atom_site_fract_y
  _atom_site_fract_z
  _atom_site_occupancy
  B   B1        1.0  0.25500  0.17100  0.17000  1.0000
  B   B2        1.0  0.75500  0.17000  0.17100  1.0000
  B   B3        1.0  0.08740  0.61700  0.28100  1.0000
  B   B4        1.0  0.41300  0.71900  0.38300  1.0000
  B   B5        1.0  0.58700  0.28100  0.61700  1.0000
  B   B6        1.0  0.91300  0.38300  0.71900  1.0000
  B   B7        1.0  0.24500  0.83000  0.82900  1.0000
  B   B8        1.0  0.74500  0.82900  0.83000  1.0000
  Ba  Ba1       1.0  0.57400  0.52700  0.19800  1.0000
  Ba  Ba2       1.0  0.92600  0.80200  0.47300  1.0000
  Ba  Ba3       1.0  0.07450  0.19800  0.52700  1.0000
  Ba  Ba4       1.0  0.42600  0.47300  0.80200  1.0000
  O   O1        1.0  0.72800  0.33400  0.06870  1.0000
  O   O2        1.0  0.29700  0.10300  0.07290  1.0000
  O   O3        1.0  0.23900  0.33800  0.09650  1.0000
  O   O4        1.0  0.79700  0.07290  0.10300  1.0000
  O   O5        1.0  0.00099  0.76400  0.21500  1.0000
  O   O6        1.0  0.49900  0.78500  0.23600  1.0000
  O   O7        1.0  0.02000  0.49500  0.23800  1.0000
  O   O8        1.0  0.22800  0.06870  0.33400  1.0000
  O   O9        1.0  0.73900  0.09650  0.33800  1.0000
  O   O10       1.0  0.25000  0.58000  0.42000  1.0000
  O   O11       1.0  0.52000  0.23800  0.49500  1.0000
  O   O12       1.0  0.48000  0.76200  0.50500  1.0000
  O   O13       1.0  0.75000  0.42000  0.58000  1.0000
  O   O14       1.0  0.26100  0.90400  0.66200  1.0000
  O   O15       1.0  0.77200  0.93100  0.66600  1.0000
  O   O16       1.0  0.98000  0.50500  0.76200  1.0000
  O   O17       1.0  0.50100  0.21500  0.76400  1.0000
  O   O18       1.0  0.99900  0.23600  0.78500  1.0000
  O   O19       1.0  0.20300  0.92700  0.89700  1.0000
  O   O20       1.0  0.76100  0.66200  0.90400  1.0000
  O   O21       1.0  0.70300  0.89700  0.92700  1.0000
  O   O22       1.0  0.27200  0.66600  0.93100  1.0000
  Sc  Sc1       1.0  0.00000  0.00000  0.00000  1.0000
  Sc  Sc2       1.0  0.50000  0.00000  0.00000  1.0000
  Sc  Sc3       1.0  0.00000  0.50000  0.00000  1.0000
  Sc  Sc4       1.0  0.50000  0.00000  0.50000  1.0000
