data_image0
_chemical_formula_structural       Ca2H4O24P8
_chemical_formula_sum              "Ca2 H4 O24 P8"
_cell_length_a       5.55071
_cell_length_b       9.55187
_cell_length_c       8.79303
_cell_angle_alpha    90
_cell_angle_beta     91.9632
_cell_angle_gamma    90

_space_group_name_H-M_alt    "P 1"
_space_group_IT_number       1

loop_
  _space_group_symop_operation_xyz
  'x, y, z'

loop_
  _atom_site_type_symbol
  _atom_site_label
  _atom_site_symmetry_multiplicity
  _atom_site_fract_x
  _atom_site_fract_y
  _atom_site_fract_z
  _atom_site_occupancy
  Ca  Ca1       1.0  0.00000  0.00000  0.00000  1.0000
  Ca  Ca2       1.0  0.00000  0.50000  0.50000  1.0000
  H   H1        1.0  0.82100  0.54100  0.17200  1.0000
  H   H2        1.0  0.17900  0.04090  0.32800  1.0000
  H   H3        1.0  0.82100  0.95900  0.67200  1.0000
  H   H4        1.0  0.17900  0.45900  0.82800  1.0000
  O   O1        1.0  0.66400  0.87200  0.04390  1.0000
  O   O2        1.0  0.49100  0.34800  0.09450  1.0000
  O   O3        1.0  0.83500  0.62800  0.10300  1.0000
  O   O4        1.0  0.87300  0.19700  0.11000  1.0000
  O   O5        1.0  0.41300  0.68900  0.17900  1.0000
  O   O6        1.0  0.18200  0.91900  0.22600  1.0000
  O   O7        1.0  0.81800  0.41900  0.27400  1.0000
  O   O8        1.0  0.58700  0.18900  0.32100  1.0000
  O   O9        1.0  0.12700  0.69700  0.39000  1.0000
  O   O10       1.0  0.16500  0.12800  0.39700  1.0000
  O   O11       1.0  0.50900  0.84800  0.40500  1.0000
  O   O12       1.0  0.33600  0.37200  0.45600  1.0000
  O   O13       1.0  0.66400  0.62800  0.54400  1.0000
  O   O14       1.0  0.49100  0.15200  0.59500  1.0000
  O   O15       1.0  0.83500  0.87200  0.60300  1.0000
  O   O16       1.0  0.87300  0.30300  0.61000  1.0000
  O   O17       1.0  0.41300  0.81100  0.67900  1.0000
  O   O18       1.0  0.18200  0.58100  0.72600  1.0000
  O   O19       1.0  0.81800  0.08110  0.77400  1.0000
  O   O20       1.0  0.58700  0.31100  0.82100  1.0000
  O   O21       1.0  0.12700  0.80300  0.89000  1.0000
  O   O22       1.0  0.16500  0.37200  0.89700  1.0000
  O   O23       1.0  0.50900  0.65200  0.90500  1.0000
  O   O24       1.0  0.33600  0.12800  0.95600  1.0000
  P   P1        1.0  0.61700  0.72100  0.05930  1.0000
  P   P2        1.0  0.71600  0.28900  0.19900  1.0000
  P   P3        1.0  0.28400  0.78900  0.30100  1.0000
  P   P4        1.0  0.38300  0.22100  0.44100  1.0000
  P   P5        1.0  0.61700  0.77900  0.55900  1.0000
  P   P6        1.0  0.71600  0.21100  0.69900  1.0000
  P   P7        1.0  0.28400  0.71100  0.80100  1.0000
  P   P8        1.0  0.38300  0.27900  0.94100  1.0000
