data_image0
_chemical_formula_structural       Al4Co2H20Zr12
_chemical_formula_sum              "Al4 Co2 H20 Zr12"
_cell_length_a       8.06543
_cell_length_b       8.06543
_cell_length_c       7.12519
_cell_angle_alpha    90
_cell_angle_beta     90
_cell_angle_gamma    120

_space_group_name_H-M_alt    "P 1"
_space_group_IT_number       1

loop_
  _space_group_symop_operation_xyz
  'x, y, z'

loop_
  _atom_site_type_symbol
  _atom_site_label
  _atom_site_symmetry_multiplicity
  _atom_site_fract_x
  _atom_site_fract_y
  _atom_site_fract_z
  _atom_site_occupancy
  Al  Al1       1.0  0.33300  0.66700  0.05150  1.0000
  Al  Al2       1.0  0.33300  0.66700  0.44800  1.0000
  Al  Al3       1.0  0.66700  0.33300  0.55200  1.0000
  Al  Al4       1.0  0.66700  0.33300  0.94800  1.0000
  Co  Co1       1.0  0.00000  0.00000  0.25000  1.0000
  Co  Co2       1.0  0.00000  0.00000  0.75000  1.0000
  H   H1        1.0  0.00000  0.00000  0.00000  1.0000
  H   H2        1.0  0.28000  0.00000  0.00000  1.0000
  H   H3        1.0  0.00000  0.28000  0.00000  1.0000
  H   H4        1.0  0.72000  0.72000  0.00000  1.0000
  H   H5        1.0  0.70700  0.11600  0.25000  1.0000
  H   H6        1.0  0.11700  0.23700  0.25000  1.0000
  H   H7        1.0  0.40800  0.29300  0.25000  1.0000
  H   H8        1.0  0.88400  0.59200  0.25000  1.0000
  H   H9        1.0  0.76300  0.88000  0.25000  1.0000
  H   H10       1.0  0.12000  0.88300  0.25000  1.0000
  H   H11       1.0  0.00000  0.00000  0.50000  1.0000
  H   H12       1.0  0.28000  0.00000  0.50000  1.0000
  H   H13       1.0  0.00000  0.28000  0.50000  1.0000
  H   H14       1.0  0.72000  0.72000  0.50000  1.0000
  H   H15       1.0  0.23700  0.11700  0.75000  1.0000
  H   H16       1.0  0.88300  0.12000  0.75000  1.0000
  H   H17       1.0  0.29300  0.40800  0.75000  1.0000
  H   H18       1.0  0.11600  0.70700  0.75000  1.0000
  H   H19       1.0  0.88000  0.76300  0.75000  1.0000
  H   H20       1.0  0.59200  0.88400  0.75000  1.0000
  Zr  Zr1       1.0  0.73800  0.00000  0.00000  1.0000
  Zr  Zr2       1.0  0.26200  0.26200  0.00000  1.0000
  Zr  Zr3       1.0  0.00000  0.73800  0.00000  1.0000
  Zr  Zr4       1.0  0.42400  0.04750  0.25000  1.0000
  Zr  Zr5       1.0  0.95200  0.37600  0.25000  1.0000
  Zr  Zr6       1.0  0.62400  0.57600  0.25000  1.0000
  Zr  Zr7       1.0  0.73800  0.00000  0.50000  1.0000
  Zr  Zr8       1.0  0.26200  0.26200  0.50000  1.0000
  Zr  Zr9       1.0  0.00000  0.73800  0.50000  1.0000
  Zr  Zr10      1.0  0.04750  0.42400  0.75000  1.0000
  Zr  Zr11      1.0  0.57600  0.62400  0.75000  1.0000
  Zr  Zr12      1.0  0.37600  0.95200  0.75000  1.0000
