data_image0
_chemical_formula_structural       C6K6Na2O22U2
_chemical_formula_sum              "C6 K6 Na2 O22 U2"
_cell_length_a       9.17345
_cell_length_b       9.17345
_cell_length_c       8.10883
_cell_angle_alpha    90
_cell_angle_beta     90
_cell_angle_gamma    120.008

_space_group_name_H-M_alt    "P 1"
_space_group_IT_number       1

loop_
  _space_group_symop_operation_xyz
  'x, y, z'

loop_
  _atom_site_type_symbol
  _atom_site_label
  _atom_site_symmetry_multiplicity
  _atom_site_fract_x
  _atom_site_fract_y
  _atom_site_fract_z
  _atom_site_occupancy
  C   C1        1.0  0.64300  0.00500  0.25000  1.0000
  C   C2        1.0  0.36200  0.35700  0.25000  1.0000
  C   C3        1.0  0.99500  0.63800  0.25000  1.0000
  C   C4        1.0  0.35700  0.36200  0.75000  1.0000
  C   C5        1.0  0.00500  0.64300  0.75000  1.0000
  C   C6        1.0  0.63800  0.99500  0.75000  1.0000
  K   K1        1.0  0.29100  0.00000  0.00000  1.0000
  K   K2        1.0  0.00000  0.29100  0.00000  1.0000
  K   K3        1.0  0.70900  0.70900  0.00000  1.0000
  K   K4        1.0  0.29100  0.00000  0.50000  1.0000
  K   K5        1.0  0.70900  0.70900  0.50000  1.0000
  K   K6        1.0  0.00000  0.29100  0.50000  1.0000
  Na  Na1       1.0  0.33300  0.66700  0.25000  1.0000
  Na  Na2       1.0  0.66700  0.33300  0.75000  1.0000
  O   O1        1.0  0.66700  0.33300  0.02650  1.0000
  O   O2        1.0  0.51000  0.02430  0.25000  1.0000
  O   O3        1.0  0.78700  0.14700  0.25000  1.0000
  O   O4        1.0  0.36000  0.21300  0.25000  1.0000
  O   O5        1.0  0.23000  0.36800  0.25000  1.0000
  O   O6        1.0  0.97600  0.48500  0.25000  1.0000
  O   O7        1.0  0.51500  0.49000  0.25000  1.0000
  O   O8        1.0  0.85300  0.64000  0.25000  1.0000
  O   O9        1.0  0.13700  0.76900  0.25000  1.0000
  O   O10       1.0  0.63200  0.86300  0.25000  1.0000
  O   O11       1.0  0.66700  0.33300  0.47300  1.0000
  O   O12       1.0  0.33300  0.66700  0.52700  1.0000
  O   O13       1.0  0.76900  0.13700  0.75000  1.0000
  O   O14       1.0  0.36800  0.23000  0.75000  1.0000
  O   O15       1.0  0.21300  0.36000  0.75000  1.0000
  O   O16       1.0  0.02430  0.51000  0.75000  1.0000
  O   O17       1.0  0.49000  0.51500  0.75000  1.0000
  O   O18       1.0  0.86300  0.63200  0.75000  1.0000
  O   O19       1.0  0.14700  0.78700  0.75000  1.0000
  O   O20       1.0  0.64000  0.85300  0.75000  1.0000
  O   O21       1.0  0.48500  0.97600  0.75000  1.0000
  O   O22       1.0  0.33300  0.66700  0.97300  1.0000
  U   U1        1.0  0.66700  0.33300  0.25000  1.0000
  U   U2        1.0  0.33300  0.66700  0.75000  1.0000
