data_image0
_chemical_formula_structural       C6K8O22U2
_chemical_formula_sum              "C6 K8 O22 U2"
_cell_length_a       6.79329
_cell_length_b       6.79329
_cell_length_c       12.1147
_cell_angle_alpha    94.4256
_cell_angle_beta     85.5744
_cell_angle_gamma    95.2146

_space_group_name_H-M_alt    "P 1"
_space_group_IT_number       1

loop_
  _space_group_symop_operation_xyz
  'x, y, z'

loop_
  _atom_site_type_symbol
  _atom_site_label
  _atom_site_symmetry_multiplicity
  _atom_site_fract_x
  _atom_site_fract_y
  _atom_site_fract_z
  _atom_site_occupancy
  C   C1        1.0  0.91000  0.16400  0.08300  1.0000
  C   C2        1.0  0.51100  0.51100  0.25000  1.0000
  C   C3        1.0  0.16400  0.91000  0.41700  1.0000
  C   C4        1.0  0.83600  0.09010  0.58300  1.0000
  C   C5        1.0  0.48900  0.48900  0.75000  1.0000
  C   C6        1.0  0.09010  0.83600  0.91700  1.0000
  K   K1        1.0  0.58000  0.77900  0.04370  1.0000
  K   K2        1.0  0.03000  0.66100  0.15400  1.0000
  K   K3        1.0  0.66100  0.03000  0.34600  1.0000
  K   K4        1.0  0.77900  0.58000  0.45600  1.0000
  K   K5        1.0  0.22100  0.42000  0.54400  1.0000
  K   K6        1.0  0.33900  0.97000  0.65400  1.0000
  K   K7        1.0  0.97000  0.33900  0.84600  1.0000
  K   K8        1.0  0.42000  0.22100  0.95600  1.0000
  O   O1        1.0  0.76800  0.17400  0.02360  1.0000
  O   O2        1.0  0.07450  0.28300  0.07490  1.0000
  O   O3        1.0  0.90700  0.03600  0.15900  1.0000
  O   O4        1.0  0.39400  0.47300  0.16800  1.0000
  O   O5        1.0  0.36700  0.02840  0.18100  1.0000
  O   O6        1.0  0.64900  0.64900  0.25000  1.0000
  O   O7        1.0  0.02840  0.36700  0.31900  1.0000
  O   O8        1.0  0.47300  0.39400  0.33200  1.0000
  O   O9        1.0  0.03600  0.90700  0.34100  1.0000
  O   O10       1.0  0.28300  0.07450  0.42500  1.0000
  O   O11       1.0  0.17400  0.76800  0.47600  1.0000
  O   O12       1.0  0.82600  0.23200  0.52400  1.0000
  O   O13       1.0  0.71700  0.92600  0.57500  1.0000
  O   O14       1.0  0.96400  0.09330  0.65900  1.0000
  O   O15       1.0  0.52700  0.60600  0.66800  1.0000
  O   O16       1.0  0.97200  0.63300  0.68100  1.0000
  O   O17       1.0  0.35100  0.35100  0.75000  1.0000
  O   O18       1.0  0.63300  0.97200  0.81900  1.0000
  O   O19       1.0  0.60600  0.52700  0.83200  1.0000
  O   O20       1.0  0.09330  0.96400  0.84100  1.0000
  O   O21       1.0  0.92600  0.71700  0.92500  1.0000
  O   O22       1.0  0.23200  0.82600  0.97600  1.0000
  U   U1        1.0  0.19600  0.19600  0.25000  1.0000
  U   U2        1.0  0.80400  0.80400  0.75000  1.0000
