data_image0
_chemical_formula_structural       H20Ni2Sn4Zr12
_chemical_formula_sum              "H20 Ni2 Sn4 Zr12"
_cell_length_a       8.12236
_cell_length_b       8.12236
_cell_length_c       7.34471
_cell_angle_alpha    90
_cell_angle_beta     90
_cell_angle_gamma    120

_space_group_name_H-M_alt    "P 1"
_space_group_IT_number       1

loop_
  _space_group_symop_operation_xyz
  'x, y, z'

loop_
  _atom_site_type_symbol
  _atom_site_label
  _atom_site_symmetry_multiplicity
  _atom_site_fract_x
  _atom_site_fract_y
  _atom_site_fract_z
  _atom_site_occupancy
  H   H1        1.0  0.00000  0.00000  0.00000  1.0000
  H   H2        1.0  0.27300  0.00000  0.00000  1.0000
  H   H3        1.0  0.00000  0.27300  0.00000  1.0000
  H   H4        1.0  0.72700  0.72700  0.00000  1.0000
  H   H5        1.0  0.70300  0.10500  0.25000  1.0000
  H   H6        1.0  0.12300  0.24200  0.25000  1.0000
  H   H7        1.0  0.40200  0.29700  0.25000  1.0000
  H   H8        1.0  0.89500  0.59800  0.25000  1.0000
  H   H9        1.0  0.11900  0.87700  0.25000  1.0000
  H   H10       1.0  0.75800  0.88100  0.25000  1.0000
  H   H11       1.0  0.00000  0.00000  0.50000  1.0000
  H   H12       1.0  0.27300  0.00000  0.50000  1.0000
  H   H13       1.0  0.00000  0.27300  0.50000  1.0000
  H   H14       1.0  0.72700  0.72700  0.50000  1.0000
  H   H15       1.0  0.87700  0.11900  0.75000  1.0000
  H   H16       1.0  0.24200  0.12300  0.75000  1.0000
  H   H17       1.0  0.29700  0.40200  0.75000  1.0000
  H   H18       1.0  0.10500  0.70300  0.75000  1.0000
  H   H19       1.0  0.88100  0.75800  0.75000  1.0000
  H   H20       1.0  0.59800  0.89500  0.75000  1.0000
  Ni  Ni1       1.0  0.00000  0.00000  0.25000  1.0000
  Ni  Ni2       1.0  0.00000  0.00000  0.75000  1.0000
  Sn  Sn1       1.0  0.33300  0.66700  0.04050  1.0000
  Sn  Sn2       1.0  0.33300  0.66700  0.46000  1.0000
  Sn  Sn3       1.0  0.66700  0.33300  0.54000  1.0000
  Sn  Sn4       1.0  0.66700  0.33300  0.96000  1.0000
  Zr  Zr1       1.0  0.74100  0.00000  0.00000  1.0000
  Zr  Zr2       1.0  0.25900  0.25900  0.00000  1.0000
  Zr  Zr3       1.0  0.00000  0.74100  0.00000  1.0000
  Zr  Zr4       1.0  0.41600  0.04710  0.25000  1.0000
  Zr  Zr5       1.0  0.95300  0.36800  0.25000  1.0000
  Zr  Zr6       1.0  0.63200  0.58400  0.25000  1.0000
  Zr  Zr7       1.0  0.74100  0.00000  0.50000  1.0000
  Zr  Zr8       1.0  0.25900  0.25900  0.50000  1.0000
  Zr  Zr9       1.0  0.00000  0.74100  0.50000  1.0000
  Zr  Zr10      1.0  0.04710  0.41600  0.75000  1.0000
  Zr  Zr11      1.0  0.58400  0.63200  0.75000  1.0000
  Zr  Zr12      1.0  0.36800  0.95300  0.75000  1.0000
