data_image0
_chemical_formula_structural       As4F24N4Se6
_chemical_formula_sum              "As4 F24 N4 Se6"
_cell_length_a       7.36444
_cell_length_b       7.36444
_cell_length_c       10.2304
_cell_angle_alpha    90.851
_cell_angle_beta     90.851
_cell_angle_gamma    67.5088

_space_group_name_H-M_alt    "P 1"
_space_group_IT_number       1

loop_
  _space_group_symop_operation_xyz
  'x, y, z'

loop_
  _atom_site_type_symbol
  _atom_site_label
  _atom_site_symmetry_multiplicity
  _atom_site_fract_x
  _atom_site_fract_y
  _atom_site_fract_z
  _atom_site_occupancy
  As  As1       1.0  0.08700  0.91300  0.00000  1.0000
  As  As2       1.0  0.75600  0.50300  0.24900  1.0000
  As  As3       1.0  0.08190  0.91800  0.50000  1.0000
  As  As4       1.0  0.49700  0.24400  0.75100  1.0000
  F   F1        1.0  0.15100  0.67000  0.05790  1.0000
  F   F2        1.0  0.85100  0.97700  0.06410  1.0000
  F   F3        1.0  0.57100  0.59500  0.12800  1.0000
  F   F4        1.0  0.94000  0.42000  0.12900  1.0000
  F   F5        1.0  0.16400  0.98200  0.14800  1.0000
  F   F6        1.0  0.73300  0.27600  0.24500  1.0000
  F   F7        1.0  0.78900  0.73100  0.25000  1.0000
  F   F8        1.0  0.57200  0.59900  0.36800  1.0000
  F   F9        1.0  0.93800  0.42200  0.37300  1.0000
  F   F10       1.0  0.17600  0.01600  0.37600  1.0000
  F   F11       1.0  0.85800  0.99500  0.41400  1.0000
  F   F12       1.0  0.15600  0.68600  0.42200  1.0000
  F   F13       1.0  0.31400  0.84400  0.57800  1.0000
  F   F14       1.0  0.00508  0.14200  0.58600  1.0000
  F   F15       1.0  0.98400  0.82400  0.62400  1.0000
  F   F16       1.0  0.57800  0.06160  0.62700  1.0000
  F   F17       1.0  0.40100  0.42800  0.63200  1.0000
  F   F18       1.0  0.26900  0.21100  0.75000  1.0000
  F   F19       1.0  0.72400  0.26700  0.75500  1.0000
  F   F20       1.0  0.01780  0.83600  0.85200  1.0000
  F   F21       1.0  0.58000  0.05990  0.87100  1.0000
  F   F22       1.0  0.40500  0.42900  0.87200  1.0000
  F   F23       1.0  0.02340  0.14900  0.93600  1.0000
  F   F24       1.0  0.33000  0.84900  0.94200  1.0000
  N   N1        1.0  0.36900  0.27000  0.11200  1.0000
  N   N2        1.0  0.37700  0.28200  0.38200  1.0000
  N   N3        1.0  0.71800  0.62300  0.61800  1.0000
  N   N4        1.0  0.73000  0.63100  0.88800  1.0000
  Se  Se1       1.0  0.50700  0.02530  0.13400  1.0000
  Se  Se2       1.0  0.29200  0.43500  0.24500  1.0000
  Se  Se3       1.0  0.51200  0.03560  0.36500  1.0000
  Se  Se4       1.0  0.96400  0.48800  0.63500  1.0000
  Se  Se5       1.0  0.56500  0.70800  0.75500  1.0000
  Se  Se6       1.0  0.97500  0.49300  0.86600  1.0000
