data_image0
_chemical_formula_structural       Ba5Ni4O21Yb8
_chemical_formula_sum              "Ba5 Ni4 O21 Yb8"
_cell_length_a       5.58824
_cell_length_b       9.89881
_cell_length_c       9.89881
_cell_angle_alpha    94.5699
_cell_angle_beta     106.396
_cell_angle_gamma    73.6044

_space_group_name_H-M_alt    "P 1"
_space_group_IT_number       1

loop_
  _space_group_symop_operation_xyz
  'x, y, z'

loop_
  _atom_site_type_symbol
  _atom_site_label
  _atom_site_symmetry_multiplicity
  _atom_site_fract_x
  _atom_site_fract_y
  _atom_site_fract_z
  _atom_site_occupancy
  Ba  Ba1       1.0  0.00000  0.00000  0.00000  1.0000
  Ba  Ba2       1.0  0.85500  0.61300  0.32300  1.0000
  Ba  Ba3       1.0  0.53200  0.32300  0.38700  1.0000
  Ba  Ba4       1.0  0.46800  0.67700  0.61300  1.0000
  Ba  Ba5       1.0  0.14500  0.38700  0.67700  1.0000
  Ni  Ni1       1.0  0.95700  0.28500  0.20000  1.0000
  Ni  Ni2       1.0  0.24200  0.80000  0.28500  1.0000
  Ni  Ni3       1.0  0.75800  0.20000  0.71500  1.0000
  Ni  Ni4       1.0  0.04250  0.71500  0.80000  1.0000
  O   O1        1.0  0.50000  0.00000  0.00000  1.0000
  O   O2        1.0  0.09070  0.40600  0.12700  1.0000
  O   O3        1.0  0.63100  0.40600  0.12700  1.0000
  O   O4        1.0  0.41800  0.77700  0.14400  1.0000
  O   O5        1.0  0.94900  0.77700  0.14400  1.0000
  O   O6        1.0  0.27400  0.14400  0.22300  1.0000
  O   O7        1.0  0.80500  0.14400  0.22300  1.0000
  O   O8        1.0  0.36600  0.60600  0.33800  1.0000
  O   O9        1.0  0.02810  0.33800  0.39400  1.0000
  O   O10       1.0  0.03670  0.87300  0.40600  1.0000
  O   O11       1.0  0.49600  0.87300  0.40600  1.0000
  O   O12       1.0  0.50400  0.12700  0.59400  1.0000
  O   O13       1.0  0.96300  0.12700  0.59400  1.0000
  O   O14       1.0  0.97200  0.66200  0.60600  1.0000
  O   O15       1.0  0.63400  0.39400  0.66200  1.0000
  O   O16       1.0  0.19500  0.85600  0.77700  1.0000
  O   O17       1.0  0.72600  0.85600  0.77700  1.0000
  O   O18       1.0  0.05140  0.22300  0.85600  1.0000
  O   O19       1.0  0.58200  0.22300  0.85600  1.0000
  O   O20       1.0  0.36900  0.59400  0.87300  1.0000
  O   O21       1.0  0.90900  0.59400  0.87300  1.0000
  Yb  Yb1       1.0  0.40600  0.23400  0.04610  1.0000
  Yb  Yb2       1.0  0.25100  0.58000  0.08330  1.0000
  Yb  Yb3       1.0  0.64000  0.95400  0.23400  1.0000
  Yb  Yb4       1.0  0.16800  0.08330  0.42000  1.0000
  Yb  Yb5       1.0  0.83200  0.91700  0.58000  1.0000
  Yb  Yb6       1.0  0.36000  0.04610  0.76600  1.0000
  Yb  Yb7       1.0  0.74900  0.42000  0.91700  1.0000
  Yb  Yb8       1.0  0.59400  0.76600  0.95400  1.0000
