data_image0
_chemical_formula_structural       Cl4CoCsH18N6O8
_chemical_formula_sum              "Cl4 Co1 Cs1 H18 N6 O8"
_cell_length_a       7.1019
_cell_length_b       7.1019
_cell_length_c       9.71379
_cell_angle_alpha    111.442
_cell_angle_beta     90
_cell_angle_gamma    120

_space_group_name_H-M_alt    "P 1"
_space_group_IT_number       1

loop_
  _space_group_symop_operation_xyz
  'x, y, z'

loop_
  _atom_site_type_symbol
  _atom_site_label
  _atom_site_symmetry_multiplicity
  _atom_site_fract_x
  _atom_site_fract_y
  _atom_site_fract_z
  _atom_site_occupancy
  Cl  Cl1       1.0  0.36800  0.73600  0.10500  1.0000
  Cl  Cl2       1.0  0.80800  0.61600  0.42400  1.0000
  Cl  Cl3       1.0  0.19200  0.38400  0.57600  1.0000
  Cl  Cl4       1.0  0.63200  0.26400  0.89500  1.0000
  Co  Co1       1.0  0.00000  0.00000  0.00000  1.0000
  Cs  Cs1       1.0  0.50000  0.00000  0.50000  1.0000
  H   H1        1.0  0.82700  0.65400  0.07670  1.0000
  H   H2        1.0  0.42300  0.24900  0.07670  1.0000
  H   H3        1.0  0.82700  0.25000  0.07670  1.0000
  H   H4        1.0  0.09670  0.82100  0.14800  1.0000
  H   H5        1.0  0.32700  0.42400  0.14800  1.0000
  H   H6        1.0  0.72400  0.05140  0.14800  1.0000
  H   H7        1.0  0.93500  0.90900  0.23300  1.0000
  H   H8        1.0  0.32500  0.26000  0.23300  1.0000
  H   H9        1.0  0.97300  0.29800  0.23300  1.0000
  H   H10       1.0  0.02660  0.70200  0.76700  1.0000
  H   H11       1.0  0.67500  0.74000  0.76700  1.0000
  H   H12       1.0  0.06490  0.09140  0.76700  1.0000
  H   H13       1.0  0.27600  0.94900  0.85200  1.0000
  H   H14       1.0  0.67300  0.57600  0.85200  1.0000
  H   H15       1.0  0.90300  0.17900  0.85200  1.0000
  H   H16       1.0  0.17300  0.75000  0.92300  1.0000
  H   H17       1.0  0.57700  0.75100  0.92300  1.0000
  H   H18       1.0  0.17300  0.34600  0.92300  1.0000
  N   N1        1.0  0.29800  0.25700  0.12900  1.0000
  N   N2        1.0  0.95900  0.83000  0.12900  1.0000
  N   N3        1.0  0.87100  0.16900  0.12900  1.0000
  N   N4        1.0  0.12900  0.83100  0.87100  1.0000
  N   N5        1.0  0.04080  0.17000  0.87100  1.0000
  N   N6        1.0  0.70200  0.74300  0.87100  1.0000
  O   O1        1.0  0.00949  0.65500  0.36900  1.0000
  O   O2        1.0  0.71400  0.72300  0.36900  1.0000
  O   O3        1.0  0.64600  0.35900  0.36900  1.0000
  O   O4        1.0  0.13700  0.27300  0.41000  1.0000
  O   O5        1.0  0.86300  0.72700  0.59000  1.0000
  O   O6        1.0  0.35400  0.64100  0.63100  1.0000
  O   O7        1.0  0.28600  0.27700  0.63100  1.0000
  O   O8        1.0  0.99100  0.34500  0.63100  1.0000
