data_image0
_chemical_formula_structural       Ca4O24Si8Zr2
_chemical_formula_sum              "Ca4 O24 Si8 Zr2"
_cell_length_a       7.39052
_cell_length_b       13.6676
_cell_length_c       5.28701
_cell_angle_alpha    90
_cell_angle_beta     109.031
_cell_angle_gamma    90

_space_group_name_H-M_alt    "P 1"
_space_group_IT_number       1

loop_
  _space_group_symop_operation_xyz
  'x, y, z'

loop_
  _atom_site_type_symbol
  _atom_site_label
  _atom_site_symmetry_multiplicity
  _atom_site_fract_x
  _atom_site_fract_y
  _atom_site_fract_z
  _atom_site_occupancy
  Ca  Ca1       1.0  0.50000  0.00000  0.00000  1.0000
  Ca  Ca2       1.0  0.50000  0.50000  0.00000  1.0000
  Ca  Ca3       1.0  0.81100  0.75000  0.15600  1.0000
  Ca  Ca4       1.0  0.18900  0.25000  0.84400  1.0000
  O   O1        1.0  0.84000  0.06350  0.21200  1.0000
  O   O2        1.0  0.84000  0.43700  0.21200  1.0000
  O   O3        1.0  0.25900  0.06130  0.22800  1.0000
  O   O4        1.0  0.25900  0.43900  0.22800  1.0000
  O   O5        1.0  0.61600  0.63400  0.25700  1.0000
  O   O6        1.0  0.61600  0.86600  0.25700  1.0000
  O   O7        1.0  0.04270  0.62300  0.25900  1.0000
  O   O8        1.0  0.04270  0.87700  0.25900  1.0000
  O   O9        1.0  0.30000  0.25000  0.31300  1.0000
  O   O10       1.0  0.86900  0.25000  0.35400  1.0000
  O   O11       1.0  0.59400  0.12900  0.40600  1.0000
  O   O12       1.0  0.59400  0.37100  0.40600  1.0000
  O   O13       1.0  0.40600  0.62900  0.59400  1.0000
  O   O14       1.0  0.40600  0.87100  0.59400  1.0000
  O   O15       1.0  0.13100  0.75000  0.64600  1.0000
  O   O16       1.0  0.70000  0.75000  0.68700  1.0000
  O   O17       1.0  0.95700  0.12300  0.74100  1.0000
  O   O18       1.0  0.95700  0.37700  0.74100  1.0000
  O   O19       1.0  0.38400  0.13400  0.74300  1.0000
  O   O20       1.0  0.38400  0.36600  0.74300  1.0000
  O   O21       1.0  0.74100  0.56100  0.77200  1.0000
  O   O22       1.0  0.74100  0.93900  0.77200  1.0000
  O   O23       1.0  0.16000  0.56300  0.78800  1.0000
  O   O24       1.0  0.16000  0.93700  0.78800  1.0000
  Si  Si1       1.0  0.82000  0.13900  0.43400  1.0000
  Si  Si2       1.0  0.82000  0.36100  0.43400  1.0000
  Si  Si3       1.0  0.38400  0.14000  0.44200  1.0000
  Si  Si4       1.0  0.38400  0.36000  0.44200  1.0000
  Si  Si5       1.0  0.61600  0.64000  0.55800  1.0000
  Si  Si6       1.0  0.61600  0.86000  0.55800  1.0000
  Si  Si7       1.0  0.18000  0.63900  0.56600  1.0000
  Si  Si8       1.0  0.18000  0.86100  0.56600  1.0000
  Zr  Zr1       1.0  0.00000  0.00000  0.00000  1.0000
  Zr  Zr2       1.0  0.00000  0.50000  0.00000  1.0000
