data_image0
_chemical_formula_structural       C6Cr2H18N12
_chemical_formula_sum              "C6 Cr2 H18 N12"
_cell_length_a       7.22992
_cell_length_b       7.22992
_cell_length_c       7.22992
_cell_angle_alpha    97.7967
_cell_angle_beta     97.7967
_cell_angle_gamma    97.7967

_space_group_name_H-M_alt    "P 1"
_space_group_IT_number       1

loop_
  _space_group_symop_operation_xyz
  'x, y, z'

loop_
  _atom_site_type_symbol
  _atom_site_label
  _atom_site_symmetry_multiplicity
  _atom_site_fract_x
  _atom_site_fract_y
  _atom_site_fract_z
  _atom_site_occupancy
  C   C1        1.0  0.75100  0.87800  0.05200  1.0000
  C   C2        1.0  0.94800  0.24900  0.12200  1.0000
  C   C3        1.0  0.12200  0.94800  0.24900  1.0000
  C   C4        1.0  0.87800  0.05200  0.75100  1.0000
  C   C5        1.0  0.05200  0.75100  0.87800  1.0000
  C   C6        1.0  0.24900  0.12200  0.94800  1.0000
  Cr  Cr1       1.0  0.00000  0.00000  0.00000  1.0000
  Cr  Cr2       1.0  0.50000  0.50000  0.50000  1.0000
  H   H1        1.0  0.32300  0.43400  0.14500  1.0000
  H   H2        1.0  0.43600  0.65200  0.18500  1.0000
  H   H3        1.0  0.60100  0.25900  0.23100  1.0000
  H   H4        1.0  0.23100  0.60100  0.25900  1.0000
  H   H5        1.0  0.43400  0.14500  0.32300  1.0000
  H   H6        1.0  0.81500  0.56400  0.34800  1.0000
  H   H7        1.0  0.74100  0.76900  0.39900  1.0000
  H   H8        1.0  0.14500  0.32300  0.43400  1.0000
  H   H9        1.0  0.65200  0.18500  0.43600  1.0000
  H   H10       1.0  0.34800  0.81500  0.56400  1.0000
  H   H11       1.0  0.85500  0.67700  0.56600  1.0000
  H   H12       1.0  0.25900  0.23100  0.60100  1.0000
  H   H13       1.0  0.18500  0.43600  0.65200  1.0000
  H   H14       1.0  0.56600  0.85500  0.67700  1.0000
  H   H15       1.0  0.76900  0.39900  0.74100  1.0000
  H   H16       1.0  0.39900  0.74100  0.76900  1.0000
  H   H17       1.0  0.56400  0.34800  0.81500  1.0000
  H   H18       1.0  0.67700  0.56600  0.85500  1.0000
  N   N1        1.0  0.60400  0.80300  0.07800  1.0000
  N   N2        1.0  0.92200  0.39600  0.19700  1.0000
  N   N3        1.0  0.35600  0.55300  0.24600  1.0000
  N   N4        1.0  0.55300  0.24600  0.35600  1.0000
  N   N5        1.0  0.19700  0.92200  0.39600  1.0000
  N   N6        1.0  0.75400  0.64400  0.44700  1.0000
  N   N7        1.0  0.24600  0.35600  0.55300  1.0000
  N   N8        1.0  0.80300  0.07800  0.60400  1.0000
  N   N9        1.0  0.44700  0.75400  0.64400  1.0000
  N   N10       1.0  0.64400  0.44700  0.75400  1.0000
  N   N11       1.0  0.07800  0.60400  0.80300  1.0000
  N   N12       1.0  0.39600  0.19700  0.92200  1.0000
