data_image0
_chemical_formula_structural       C6CoCrH18N12
_chemical_formula_sum              "C6 Co1 Cr1 H18 N12"
_cell_length_a       7.136
_cell_length_b       7.136
_cell_length_c       7.136
_cell_angle_alpha    97.6142
_cell_angle_beta     97.6142
_cell_angle_gamma    97.6142

_space_group_name_H-M_alt    "P 1"
_space_group_IT_number       1

loop_
  _space_group_symop_operation_xyz
  'x, y, z'

loop_
  _atom_site_type_symbol
  _atom_site_label
  _atom_site_symmetry_multiplicity
  _atom_site_fract_x
  _atom_site_fract_y
  _atom_site_fract_z
  _atom_site_occupancy
  C   C1        1.0  0.87900  0.74400  0.05180  1.0000
  C   C2        1.0  0.25600  0.94800  0.12100  1.0000
  C   C3        1.0  0.94800  0.12100  0.25600  1.0000
  C   C4        1.0  0.05180  0.87900  0.74400  1.0000
  C   C5        1.0  0.74400  0.05180  0.87900  1.0000
  C   C6        1.0  0.12100  0.25600  0.94800  1.0000
  Co  Co1       1.0  0.50000  0.50000  0.50000  1.0000
  Cr  Cr1       1.0  0.00000  0.00000  0.00000  1.0000
  H   H1        1.0  0.43300  0.30500  0.16600  1.0000
  H   H2        1.0  0.64800  0.43200  0.19500  1.0000
  H   H3        1.0  0.28900  0.61300  0.23300  1.0000
  H   H4        1.0  0.61300  0.23300  0.28900  1.0000
  H   H5        1.0  0.16600  0.43300  0.30500  1.0000
  H   H6        1.0  0.56800  0.80500  0.35200  1.0000
  H   H7        1.0  0.76700  0.71100  0.38700  1.0000
  H   H8        1.0  0.19500  0.64800  0.43200  1.0000
  H   H9        1.0  0.30500  0.16600  0.43300  1.0000
  H   H10       1.0  0.69500  0.83400  0.56700  1.0000
  H   H11       1.0  0.80500  0.35200  0.56800  1.0000
  H   H12       1.0  0.23300  0.28900  0.61300  1.0000
  H   H13       1.0  0.43200  0.19500  0.64800  1.0000
  H   H14       1.0  0.83400  0.56700  0.69500  1.0000
  H   H15       1.0  0.38700  0.76700  0.71100  1.0000
  H   H16       1.0  0.71100  0.38700  0.76700  1.0000
  H   H17       1.0  0.35200  0.56800  0.80500  1.0000
  H   H18       1.0  0.56700  0.69500  0.83400  1.0000
  N   N1        1.0  0.80500  0.59500  0.08050  1.0000
  N   N2        1.0  0.40500  0.92000  0.19500  1.0000
  N   N3        1.0  0.55400  0.35300  0.26500  1.0000
  N   N4        1.0  0.26500  0.55400  0.35300  1.0000
  N   N5        1.0  0.92000  0.19500  0.40500  1.0000
  N   N6        1.0  0.64700  0.73500  0.44600  1.0000
  N   N7        1.0  0.35300  0.26500  0.55400  1.0000
  N   N8        1.0  0.08050  0.80500  0.59500  1.0000
  N   N9        1.0  0.73500  0.44600  0.64700  1.0000
  N   N10       1.0  0.44600  0.64700  0.73500  1.0000
  N   N11       1.0  0.59500  0.08050  0.80500  1.0000
  N   N12       1.0  0.19500  0.40500  0.92000  1.0000
