data_image0
_chemical_formula_structural       Ba4Fe8O22Sm4
_chemical_formula_sum              "Ba4 Fe8 O22 Sm4"
_cell_length_a       15.5193
_cell_length_b       3.89881
_cell_length_c       7.98114
_cell_angle_alpha    90
_cell_angle_beta     90
_cell_angle_gamma    90

_space_group_name_H-M_alt    "P 1"
_space_group_IT_number       1

loop_
  _space_group_symop_operation_xyz
  'x, y, z'

loop_
  _atom_site_type_symbol
  _atom_site_label
  _atom_site_symmetry_multiplicity
  _atom_site_fract_x
  _atom_site_fract_y
  _atom_site_fract_z
  _atom_site_occupancy
  Ba  Ba1       1.0  0.25000  0.50100  0.25000  1.0000
  Ba  Ba2       1.0  0.75000  0.50100  0.25000  1.0000
  Ba  Ba3       1.0  0.25000  0.49900  0.75000  1.0000
  Ba  Ba4       1.0  0.75000  0.49900  0.75000  1.0000
  Fe  Fe1       1.0  0.12300  0.00000  0.00000  1.0000
  Fe  Fe2       1.0  0.37600  0.00000  0.00000  1.0000
  Fe  Fe3       1.0  0.62400  0.00000  0.00000  1.0000
  Fe  Fe4       1.0  0.87700  0.00000  0.00000  1.0000
  Fe  Fe5       1.0  0.12400  0.00000  0.50000  1.0000
  Fe  Fe6       1.0  0.37700  0.00000  0.50000  1.0000
  Fe  Fe7       1.0  0.62300  0.00000  0.50000  1.0000
  Fe  Fe8       1.0  0.87600  0.00000  0.50000  1.0000
  O   O1        1.0  0.24600  0.00000  0.00000  1.0000
  O   O2        1.0  0.50000  0.00000  0.00000  1.0000
  O   O3        1.0  0.75400  0.00000  0.00000  1.0000
  O   O4        1.0  0.08870  0.50000  0.00000  1.0000
  O   O5        1.0  0.38200  0.50000  0.00000  1.0000
  O   O6        1.0  0.61800  0.50000  0.00000  1.0000
  O   O7        1.0  0.91100  0.50000  0.00000  1.0000
  O   O8        1.0  0.10300  0.00000  0.24100  1.0000
  O   O9        1.0  0.89700  0.00000  0.24100  1.0000
  O   O10       1.0  0.39700  0.00000  0.25900  1.0000
  O   O11       1.0  0.60300  0.00000  0.25900  1.0000
  O   O12       1.0  0.00000  0.00000  0.50000  1.0000
  O   O13       1.0  0.25400  0.00000  0.50000  1.0000
  O   O14       1.0  0.74600  0.00000  0.50000  1.0000
  O   O15       1.0  0.11800  0.50000  0.50000  1.0000
  O   O16       1.0  0.41100  0.50000  0.50000  1.0000
  O   O17       1.0  0.58900  0.50000  0.50000  1.0000
  O   O18       1.0  0.88200  0.50000  0.50000  1.0000
  O   O19       1.0  0.39700  0.00015  0.74100  1.0000
  O   O20       1.0  0.60300  0.00015  0.74100  1.0000
  O   O21       1.0  0.10300  0.00015  0.75900  1.0000
  O   O22       1.0  0.89700  0.00015  0.75900  1.0000
  Sm  Sm1       1.0  0.50000  0.49800  0.23000  1.0000
  Sm  Sm2       1.0  0.00000  0.49800  0.27000  1.0000
  Sm  Sm3       1.0  0.00000  0.50200  0.73000  1.0000
  Sm  Sm4       1.0  0.50000  0.50200  0.77000  1.0000
