data_image0
_chemical_formula_structural       Cl12O2S16Ti8
_chemical_formula_sum              "Cl12 O2 S16 Ti8"
_cell_length_a       9.64004
_cell_length_b       9.79839
_cell_length_c       13.2494
_cell_angle_alpha    98.5379
_cell_angle_beta     107.566
_cell_angle_gamma    60.5332

_space_group_name_H-M_alt    "P 1"
_space_group_IT_number       1

loop_
  _space_group_symop_operation_xyz
  'x, y, z'

loop_
  _atom_site_type_symbol
  _atom_site_label
  _atom_site_symmetry_multiplicity
  _atom_site_fract_x
  _atom_site_fract_y
  _atom_site_fract_z
  _atom_site_occupancy
  Cl  Cl1       1.0  0.31300  0.49100  0.00740  1.0000
  Cl  Cl2       1.0  0.93200  0.78200  0.04450  1.0000
  Cl  Cl3       1.0  0.59400  0.06870  0.13700  1.0000
  Cl  Cl4       1.0  0.33700  0.06870  0.36300  1.0000
  Cl  Cl5       1.0  0.28600  0.78200  0.45500  1.0000
  Cl  Cl6       1.0  0.19700  0.49100  0.49300  1.0000
  Cl  Cl7       1.0  0.80300  0.50900  0.50700  1.0000
  Cl  Cl8       1.0  0.71400  0.21800  0.54500  1.0000
  Cl  Cl9       1.0  0.66300  0.93100  0.63700  1.0000
  Cl  Cl10      1.0  0.40600  0.93100  0.86300  1.0000
  Cl  Cl11      1.0  0.06760  0.21800  0.95500  1.0000
  Cl  Cl12      1.0  0.68700  0.50900  0.99300  1.0000
  O   O1        1.0  0.11000  0.78000  0.25000  1.0000
  O   O2        1.0  0.89000  0.22000  0.75000  1.0000
  S   S1        1.0  0.27600  0.85900  0.11900  1.0000
  S   S2        1.0  0.95100  0.11900  0.17500  1.0000
  S   S3        1.0  0.17000  0.44200  0.21000  1.0000
  S   S4        1.0  0.45200  0.69900  0.23400  1.0000
  S   S5        1.0  0.84900  0.69900  0.26600  1.0000
  S   S6        1.0  0.38800  0.44200  0.29000  1.0000
  S   S7        1.0  0.93000  0.11900  0.32500  1.0000
  S   S8        1.0  0.86500  0.85900  0.38100  1.0000
  S   S9        1.0  0.13500  0.14100  0.61900  1.0000
  S   S10       1.0  0.06960  0.88100  0.67500  1.0000
  S   S11       1.0  0.61200  0.55800  0.71000  1.0000
  S   S12       1.0  0.15100  0.30100  0.73400  1.0000
  S   S13       1.0  0.54800  0.30100  0.76600  1.0000
  S   S14       1.0  0.83000  0.55800  0.79000  1.0000
  S   S15       1.0  0.04920  0.88100  0.82500  1.0000
  S   S16       1.0  0.72400  0.14100  0.88100  1.0000
  Ti  Ti1       1.0  0.23500  0.63100  0.14800  1.0000
  Ti  Ti2       1.0  0.86300  0.93000  0.21300  1.0000
  Ti  Ti3       1.0  0.20700  0.93000  0.28700  1.0000
  Ti  Ti4       1.0  0.13400  0.63100  0.35200  1.0000
  Ti  Ti5       1.0  0.86600  0.36900  0.64800  1.0000
  Ti  Ti6       1.0  0.79300  0.07020  0.71300  1.0000
  Ti  Ti7       1.0  0.13700  0.07020  0.78700  1.0000
  Ti  Ti8       1.0  0.76500  0.36900  0.85200  1.0000
