data_image0
_chemical_formula_structural       Ba5O21Yb8Zn4
_chemical_formula_sum              "Ba5 O21 Yb8 Zn4"
_cell_length_a       5.62126
_cell_length_b       10.0388
_cell_length_c       10.0388
_cell_angle_alpha    94.4958
_cell_angle_beta     106.259
_cell_angle_gamma    73.7412

_space_group_name_H-M_alt    "P 1"
_space_group_IT_number       1

loop_
  _space_group_symop_operation_xyz
  'x, y, z'

loop_
  _atom_site_type_symbol
  _atom_site_label
  _atom_site_symmetry_multiplicity
  _atom_site_fract_x
  _atom_site_fract_y
  _atom_site_fract_z
  _atom_site_occupancy
  Ba  Ba1       1.0  0.00000  0.00000  0.00000  1.0000
  Ba  Ba2       1.0  0.85700  0.61000  0.32400  1.0000
  Ba  Ba3       1.0  0.53300  0.32400  0.39000  1.0000
  Ba  Ba4       1.0  0.46700  0.67600  0.61000  1.0000
  Ba  Ba5       1.0  0.14300  0.39000  0.67600  1.0000
  O   O1        1.0  0.50000  0.00000  0.00000  1.0000
  O   O2        1.0  0.09410  0.40800  0.11800  1.0000
  O   O3        1.0  0.61700  0.40800  0.11800  1.0000
  O   O4        1.0  0.42100  0.78000  0.13900  1.0000
  O   O5        1.0  0.93800  0.78000  0.13900  1.0000
  O   O6        1.0  0.28200  0.13900  0.22000  1.0000
  O   O7        1.0  0.79900  0.13900  0.22000  1.0000
  O   O8        1.0  0.37300  0.59500  0.34100  1.0000
  O   O9        1.0  0.03220  0.34100  0.40500  1.0000
  O   O10       1.0  0.02440  0.88200  0.40800  1.0000
  O   O11       1.0  0.50200  0.88200  0.40800  1.0000
  O   O12       1.0  0.49800  0.11800  0.59200  1.0000
  O   O13       1.0  0.97600  0.11800  0.59200  1.0000
  O   O14       1.0  0.96800  0.65900  0.59500  1.0000
  O   O15       1.0  0.62700  0.40500  0.65900  1.0000
  O   O16       1.0  0.20100  0.86100  0.78000  1.0000
  O   O17       1.0  0.71800  0.86100  0.78000  1.0000
  O   O18       1.0  0.06200  0.22000  0.86100  1.0000
  O   O19       1.0  0.57900  0.22000  0.86100  1.0000
  O   O20       1.0  0.38300  0.59200  0.88200  1.0000
  O   O21       1.0  0.90600  0.59200  0.88200  1.0000
  Yb  Yb1       1.0  0.40800  0.23200  0.04860  1.0000
  Yb  Yb2       1.0  0.25000  0.58400  0.08400  1.0000
  Yb  Yb3       1.0  0.64000  0.95100  0.23200  1.0000
  Yb  Yb4       1.0  0.16600  0.08400  0.41600  1.0000
  Yb  Yb5       1.0  0.83400  0.91600  0.58400  1.0000
  Yb  Yb6       1.0  0.36000  0.04860  0.76800  1.0000
  Yb  Yb7       1.0  0.75000  0.41600  0.91600  1.0000
  Yb  Yb8       1.0  0.59200  0.76800  0.95100  1.0000
  Zn  Zn1       1.0  0.95700  0.28700  0.20100  1.0000
  Zn  Zn2       1.0  0.24400  0.79900  0.28700  1.0000
  Zn  Zn3       1.0  0.75600  0.20100  0.71300  1.0000
  Zn  Zn4       1.0  0.04320  0.71300  0.79900  1.0000
