data_image0
_chemical_formula_structural       Ce2H16O14P6
_chemical_formula_sum              "Ce2 H16 O14 P6"
_cell_length_a       7.11599
_cell_length_b       7.7838
_cell_length_c       8.75953
_cell_angle_alpha    109.586
_cell_angle_beta     98.3973
_cell_angle_gamma    104.798

_space_group_name_H-M_alt    "P 1"
_space_group_IT_number       1

loop_
  _space_group_symop_operation_xyz
  'x, y, z'

loop_
  _atom_site_type_symbol
  _atom_site_label
  _atom_site_symmetry_multiplicity
  _atom_site_fract_x
  _atom_site_fract_y
  _atom_site_fract_z
  _atom_site_occupancy
  Ce  Ce1       1.0  0.34600  0.18500  0.12800  1.0000
  Ce  Ce2       1.0  0.65400  0.81500  0.87200  1.0000
  H   H1        1.0  0.31400  0.71000  0.02980  1.0000
  H   H2        1.0  0.67600  0.50300  0.05600  1.0000
  H   H3        1.0  0.04910  0.60900  0.22600  1.0000
  H   H4        1.0  0.86600  0.38600  0.33200  1.0000
  H   H5        1.0  0.04880  0.90700  0.36900  1.0000
  H   H6        1.0  0.54800  0.86500  0.37700  1.0000
  H   H7        1.0  0.72400  0.67600  0.41600  1.0000
  H   H8        1.0  0.85100  0.14900  0.42400  1.0000
  H   H9        1.0  0.14900  0.85100  0.57600  1.0000
  H   H10       1.0  0.27600  0.32400  0.58400  1.0000
  H   H11       1.0  0.45200  0.13500  0.62300  1.0000
  H   H12       1.0  0.95100  0.09340  0.63100  1.0000
  H   H13       1.0  0.13400  0.61300  0.66800  1.0000
  H   H14       1.0  0.95100  0.39100  0.77400  1.0000
  H   H15       1.0  0.32400  0.49700  0.94400  1.0000
  H   H16       1.0  0.68600  0.29000  0.97000  1.0000
  O   O1        1.0  0.62800  0.37000  0.05280  1.0000
  O   O2        1.0  0.82800  0.73200  0.09360  1.0000
  O   O3        1.0  0.65100  0.06540  0.14800  1.0000
  O   O4        1.0  0.21900  0.86100  0.14900  1.0000
  O   O5        1.0  0.03550  0.16200  0.21800  1.0000
  O   O6        1.0  0.37700  0.52600  0.26200  1.0000
  O   O7        1.0  0.51100  0.27000  0.41900  1.0000
  O   O8        1.0  0.48900  0.73000  0.58100  1.0000
  O   O9        1.0  0.62300  0.47400  0.73800  1.0000
  O   O10       1.0  0.96500  0.83800  0.78200  1.0000
  O   O11       1.0  0.78100  0.13900  0.85100  1.0000
  O   O12       1.0  0.34900  0.93500  0.85200  1.0000
  O   O13       1.0  0.17200  0.26800  0.90600  1.0000
  O   O14       1.0  0.37200  0.63000  0.94700  1.0000
  P   P1        1.0  0.03500  0.77900  0.20400  1.0000
  P   P2        1.0  0.85100  0.19000  0.27800  1.0000
  P   P3        1.0  0.53000  0.69500  0.40900  1.0000
  P   P4        1.0  0.47000  0.30500  0.59100  1.0000
  P   P5        1.0  0.14900  0.81000  0.72200  1.0000
  P   P6        1.0  0.96500  0.22100  0.79600  1.0000
