data_image0
_chemical_formula_structural       H12Hf2O20P4
_chemical_formula_sum              "H12 Hf2 O20 P4"
_cell_length_a       5.27005
_cell_length_b       6.50804
_cell_length_c       11.8347
_cell_angle_alpha    90
_cell_angle_beta     99.7288
_cell_angle_gamma    90

_space_group_name_H-M_alt    "P 1"
_space_group_IT_number       1

loop_
  _space_group_symop_operation_xyz
  'x, y, z'

loop_
  _atom_site_type_symbol
  _atom_site_label
  _atom_site_symmetry_multiplicity
  _atom_site_fract_x
  _atom_site_fract_y
  _atom_site_fract_z
  _atom_site_occupancy
  H   H1        1.0  0.83100  0.69600  0.28100  1.0000
  H   H2        1.0  0.50200  0.84100  0.32400  1.0000
  H   H3        1.0  0.86400  0.85600  0.38600  1.0000
  H   H4        1.0  0.97300  0.17000  0.40800  1.0000
  H   H5        1.0  0.95300  0.60400  0.46200  1.0000
  H   H6        1.0  0.64300  0.17600  0.47100  1.0000
  H   H7        1.0  0.35700  0.67600  0.52900  1.0000
  H   H8        1.0  0.04700  0.10400  0.53800  1.0000
  H   H9        1.0  0.02680  0.67000  0.59200  1.0000
  H   H10       1.0  0.13600  0.35600  0.61400  1.0000
  H   H11       1.0  0.49800  0.34100  0.67600  1.0000
  H   H12       1.0  0.16900  0.19600  0.71900  1.0000
  Hf  Hf1       1.0  0.81600  0.26100  0.13400  1.0000
  Hf  Hf2       1.0  0.18400  0.76100  0.86600  1.0000
  O   O1        1.0  0.45700  0.75900  0.00965  1.0000
  O   O2        1.0  0.09850  0.25600  0.03870  1.0000
  O   O3        1.0  0.81300  0.95000  0.13500  1.0000
  O   O4        1.0  0.81500  0.57600  0.14000  1.0000
  O   O5        1.0  0.54900  0.25200  0.24200  1.0000
  O   O6        1.0  0.09320  0.25500  0.28600  1.0000
  O   O7        1.0  0.33800  0.92800  0.30600  1.0000
  O   O8        1.0  0.77300  0.73000  0.35400  1.0000
  O   O9        1.0  0.46000  0.23100  0.44400  1.0000
  O   O10       1.0  0.91500  0.08210  0.46700  1.0000
  O   O11       1.0  0.08510  0.58200  0.53300  1.0000
  O   O12       1.0  0.54000  0.73100  0.55600  1.0000
  O   O13       1.0  0.22700  0.23000  0.64600  1.0000
  O   O14       1.0  0.66200  0.42800  0.69400  1.0000
  O   O15       1.0  0.90700  0.75500  0.71400  1.0000
  O   O16       1.0  0.45100  0.75200  0.75800  1.0000
  O   O17       1.0  0.18500  0.07560  0.86000  1.0000
  O   O18       1.0  0.18700  0.45000  0.86500  1.0000
  O   O19       1.0  0.90100  0.75600  0.96100  1.0000
  O   O20       1.0  0.54300  0.25900  0.99000  1.0000
  P   P1        1.0  0.74500  0.76100  0.05930  1.0000
  P   P2        1.0  0.36600  0.16700  0.31700  1.0000
  P   P3        1.0  0.63400  0.66700  0.68300  1.0000
  P   P4        1.0  0.25500  0.26100  0.94100  1.0000
