data_image0
_chemical_formula_structural       H16O16Sn2Sr4
_chemical_formula_sum              "H16 O16 Sn2 Sr4"
_cell_length_a       6.83299
_cell_length_b       9.50778
_cell_length_c       5.97139
_cell_angle_alpha    90
_cell_angle_beta     110.15
_cell_angle_gamma    90

_space_group_name_H-M_alt    "P 1"
_space_group_IT_number       1

loop_
  _space_group_symop_operation_xyz
  'x, y, z'

loop_
  _atom_site_type_symbol
  _atom_site_label
  _atom_site_symmetry_multiplicity
  _atom_site_fract_x
  _atom_site_fract_y
  _atom_site_fract_z
  _atom_site_occupancy
  H   H1        1.0  0.67200  0.14700  0.14200  1.0000
  H   H2        1.0  0.44200  0.10900  0.14700  1.0000
  H   H3        1.0  0.68900  0.38400  0.19000  1.0000
  H   H4        1.0  0.04530  0.70200  0.20000  1.0000
  H   H5        1.0  0.95500  0.20200  0.30000  1.0000
  H   H6        1.0  0.31100  0.88400  0.31000  1.0000
  H   H7        1.0  0.55800  0.60900  0.35300  1.0000
  H   H8        1.0  0.32800  0.64700  0.35800  1.0000
  H   H9        1.0  0.67200  0.35300  0.64200  1.0000
  H   H10       1.0  0.44200  0.39100  0.64700  1.0000
  H   H11       1.0  0.68900  0.11600  0.69000  1.0000
  H   H12       1.0  0.04530  0.79800  0.70000  1.0000
  H   H13       1.0  0.95500  0.29800  0.80000  1.0000
  H   H14       1.0  0.31100  0.61600  0.81000  1.0000
  H   H15       1.0  0.55800  0.89100  0.85300  1.0000
  H   H16       1.0  0.32800  0.85300  0.85800  1.0000
  O   O1        1.0  0.51400  0.17700  0.07670  1.0000
  O   O2        1.0  0.91800  0.81700  0.10600  1.0000
  O   O3        1.0  0.69200  0.48500  0.22800  1.0000
  O   O4        1.0  0.11300  0.59800  0.24800  1.0000
  O   O5        1.0  0.88700  0.09820  0.25200  1.0000
  O   O6        1.0  0.30800  0.98500  0.27200  1.0000
  O   O7        1.0  0.08180  0.31700  0.39400  1.0000
  O   O8        1.0  0.48600  0.67700  0.42300  1.0000
  O   O9        1.0  0.51400  0.32300  0.57700  1.0000
  O   O10       1.0  0.91800  0.68300  0.60600  1.0000
  O   O11       1.0  0.69200  0.01530  0.72800  1.0000
  O   O12       1.0  0.11300  0.90200  0.74800  1.0000
  O   O13       1.0  0.88700  0.40200  0.75200  1.0000
  O   O14       1.0  0.30800  0.51500  0.77200  1.0000
  O   O15       1.0  0.08180  0.18300  0.89400  1.0000
  O   O16       1.0  0.48600  0.82300  0.92300  1.0000
  Sn  Sn1       1.0  0.00000  0.00000  0.00000  1.0000
  Sn  Sn2       1.0  0.00000  0.50000  0.50000  1.0000
  Sr  Sr1       1.0  0.27400  0.38200  0.13100  1.0000
  Sr  Sr2       1.0  0.72600  0.88200  0.36900  1.0000
  Sr  Sr3       1.0  0.27400  0.11800  0.63100  1.0000
  Sr  Sr4       1.0  0.72600  0.61800  0.86900  1.0000
