data_image0
_chemical_formula_structural       Na8O11Ti4
_chemical_formula_sum              "Na8 O11 Ti4"
_cell_length_a       10.7109
_cell_length_b       5.36258
_cell_length_c       5.6991
_cell_angle_alpha    99.2064
_cell_angle_beta     100.071
_cell_angle_gamma    119.857

_space_group_name_H-M_alt    "P 1"
_space_group_IT_number       1

loop_
  _space_group_symop_operation_xyz
  'x, y, z'

loop_
  _atom_site_type_symbol
  _atom_site_label
  _atom_site_symmetry_multiplicity
  _atom_site_fract_x
  _atom_site_fract_y
  _atom_site_fract_z
  _atom_site_occupancy
  Na  Na1       1.0  0.25400  0.49900  0.00975  1.0000
  Na  Na2       1.0  0.66800  0.66300  0.47400  1.0000
  Na  Na3       1.0  0.83100  0.34100  0.50000  1.0000
  Na  Na4       1.0  0.16800  0.65000  0.50100  1.0000
  Na  Na5       1.0  0.00101  0.00203  0.50200  1.0000
  Na  Na6       1.0  0.50100  0.02550  0.50500  1.0000
  Na  Na7       1.0  0.32200  0.32900  0.51000  1.0000
  Na  Na8       1.0  0.74900  0.50200  0.99900  1.0000
  O   O1        1.0  0.97400  0.57300  0.20400  1.0000
  O   O2        1.0  0.79200  0.95200  0.20400  1.0000
  O   O3        1.0  0.28700  0.95100  0.20700  1.0000
  O   O4        1.0  0.09990  0.19600  0.20700  1.0000
  O   O5        1.0  0.60000  0.18500  0.20900  1.0000
  O   O6        1.0  0.71800  0.05490  0.78200  1.0000
  O   O7        1.0  0.40200  0.79200  0.78500  1.0000
  O   O8        1.0  0.90200  0.80300  0.79000  1.0000
  O   O9        1.0  0.21600  0.05820  0.79400  1.0000
  O   O10       1.0  0.03190  0.43600  0.79800  1.0000
  O   O11       1.0  0.52200  0.43200  0.81500  1.0000
  Ti  Ti1       1.0  0.08080  0.82000  0.00555  1.0000
  Ti  Ti2       1.0  0.40700  0.14200  0.98400  1.0000
  Ti  Ti3       1.0  0.59100  0.85600  0.98400  1.0000
  Ti  Ti4       1.0  0.91800  0.15900  0.99900  1.0000
