data_image0
_chemical_formula_structural       Mo2Na4O24Te8
_chemical_formula_sum              "Mo2 Na4 O24 Te8"
_cell_length_a       5.72015
_cell_length_b       9.0638
_cell_length_c       11.077
_cell_angle_alpha    104.49
_cell_angle_beta     90
_cell_angle_gamma    108.394

_space_group_name_H-M_alt    "P 1"
_space_group_IT_number       1

loop_
  _space_group_symop_operation_xyz
  'x, y, z'

loop_
  _atom_site_type_symbol
  _atom_site_label
  _atom_site_symmetry_multiplicity
  _atom_site_fract_x
  _atom_site_fract_y
  _atom_site_fract_z
  _atom_site_occupancy
  Mo  Mo1       1.0  0.33000  0.00000  0.25000  1.0000
  Mo  Mo2       1.0  0.67000  0.00000  0.75000  1.0000
  Na  Na1       1.0  0.01990  0.57300  0.23100  1.0000
  Na  Na2       1.0  0.44700  0.42700  0.26900  1.0000
  Na  Na3       1.0  0.55300  0.57300  0.73100  1.0000
  Na  Na4       1.0  0.98000  0.42700  0.76900  1.0000
  O   O1        1.0  0.31400  0.48200  0.06990  1.0000
  O   O2        1.0  0.67200  0.32800  0.09580  1.0000
  O   O3        1.0  0.63300  0.01920  0.13100  1.0000
  O   O4        1.0  0.15900  0.04460  0.13800  1.0000
  O   O5        1.0  0.28100  0.77800  0.16000  1.0000
  O   O6        1.0  0.70000  0.68300  0.24400  1.0000
  O   O7        1.0  0.01750  0.31700  0.25600  1.0000
  O   O8        1.0  0.50300  0.22200  0.34000  1.0000
  O   O9        1.0  0.11400  0.95500  0.36200  1.0000
  O   O10       1.0  0.61300  0.98100  0.36900  1.0000
  O   O11       1.0  0.34400  0.67200  0.40400  1.0000
  O   O12       1.0  0.83100  0.51800  0.43000  1.0000
  O   O13       1.0  0.16900  0.48200  0.57000  1.0000
  O   O14       1.0  0.65600  0.32800  0.59600  1.0000
  O   O15       1.0  0.38700  0.01920  0.63100  1.0000
  O   O16       1.0  0.88600  0.04460  0.63800  1.0000
  O   O17       1.0  0.49700  0.77800  0.66000  1.0000
  O   O18       1.0  0.98300  0.68300  0.74400  1.0000
  O   O19       1.0  0.30000  0.31700  0.75600  1.0000
  O   O20       1.0  0.71900  0.22200  0.84000  1.0000
  O   O21       1.0  0.84100  0.95500  0.86200  1.0000
  O   O22       1.0  0.36700  0.98100  0.86900  1.0000
  O   O23       1.0  0.32800  0.67200  0.90400  1.0000
  O   O24       1.0  0.68600  0.51800  0.93000  1.0000
  Te  Te1       1.0  0.53200  0.69000  0.06280  1.0000
  Te  Te2       1.0  0.87900  0.18900  0.09230  1.0000
  Te  Te3       1.0  0.69000  0.81100  0.40800  1.0000
  Te  Te4       1.0  0.84200  0.31000  0.43700  1.0000
  Te  Te5       1.0  0.15800  0.69000  0.56300  1.0000
  Te  Te6       1.0  0.31000  0.18900  0.59200  1.0000
  Te  Te7       1.0  0.12100  0.81100  0.90800  1.0000
  Te  Te8       1.0  0.46800  0.31000  0.93700  1.0000
