data_image0
_chemical_formula_structural       B12C4Cs2H6I12N2
_chemical_formula_sum              "B12 C4 Cs2 H6 I12 N2"
_cell_length_a       10.1869
_cell_length_b       10.1869
_cell_length_c       10.6456
_cell_angle_alpha    113.659
_cell_angle_beta     66.3411
_cell_angle_gamma    101.816

_space_group_name_H-M_alt    "P 1"
_space_group_IT_number       1

loop_
  _space_group_symop_operation_xyz
  'x, y, z'

loop_
  _atom_site_type_symbol
  _atom_site_label
  _atom_site_symmetry_multiplicity
  _atom_site_fract_x
  _atom_site_fract_y
  _atom_site_fract_z
  _atom_site_occupancy
  B   B1        1.0  0.43600  0.33800  0.01950  1.0000
  B   B2        1.0  0.66200  0.56400  0.01950  1.0000
  B   B3        1.0  0.37600  0.62400  0.06530  1.0000
  B   B4        1.0  0.53500  0.46500  0.12700  1.0000
  B   B5        1.0  0.35800  0.50300  0.15500  1.0000
  B   B6        1.0  0.49700  0.64200  0.15500  1.0000
  B   B7        1.0  0.50300  0.35800  0.84500  1.0000
  B   B8        1.0  0.64200  0.49700  0.84500  1.0000
  B   B9        1.0  0.46500  0.53500  0.87300  1.0000
  B   B10       1.0  0.62400  0.37600  0.93500  1.0000
  B   B11       1.0  0.33800  0.43600  0.98000  1.0000
  B   B12       1.0  0.56400  0.66200  0.98000  1.0000
  C   C1        1.0  0.85300  0.14700  0.22300  1.0000
  C   C2        1.0  0.90700  0.09290  0.29900  1.0000
  C   C3        1.0  0.09290  0.90700  0.70100  1.0000
  C   C4        1.0  0.14700  0.85300  0.77700  1.0000
  Cs  Cs1       1.0  0.20100  0.20100  0.50000  1.0000
  Cs  Cs2       1.0  0.79900  0.79900  0.50000  1.0000
  H   H1        1.0  0.90500  0.09550  0.10400  1.0000
  H   H2        1.0  0.73700  0.12400  0.25300  1.0000
  H   H3        1.0  0.87600  0.26300  0.25300  1.0000
  H   H4        1.0  0.12400  0.73700  0.74700  1.0000
  H   H5        1.0  0.26300  0.87600  0.74700  1.0000
  H   H6        1.0  0.09550  0.90500  0.89600  1.0000
  I   I1        1.0  0.35300  0.13300  0.04740  1.0000
  I   I2        1.0  0.86700  0.64700  0.04740  1.0000
  I   I3        1.0  0.21700  0.78300  0.15000  1.0000
  I   I4        1.0  0.58000  0.42000  0.28900  1.0000
  I   I5        1.0  0.17700  0.50900  0.35700  1.0000
  I   I6        1.0  0.49100  0.82300  0.35700  1.0000
  I   I7        1.0  0.50900  0.17700  0.64300  1.0000
  I   I8        1.0  0.82300  0.49100  0.64300  1.0000
  I   I9        1.0  0.42000  0.58000  0.71100  1.0000
  I   I10       1.0  0.78300  0.21700  0.85000  1.0000
  I   I11       1.0  0.13300  0.35300  0.95300  1.0000
  I   I12       1.0  0.64700  0.86700  0.95300  1.0000
  N   N1        1.0  0.95100  0.04930  0.36000  1.0000
  N   N2        1.0  0.04930  0.95100  0.64000  1.0000
