data_image0
_chemical_formula_structural       B4C4Cl2H20N2O6
_chemical_formula_sum              "B4 C4 Cl2 H20 N2 O6"
_cell_length_a       5.31249
_cell_length_b       8.38903
_cell_length_c       8.92617
_cell_angle_alpha    117.307
_cell_angle_beta     97.091
_cell_angle_gamma    93.6608

_space_group_name_H-M_alt    "P 1"
_space_group_IT_number       1

loop_
  _space_group_symop_operation_xyz
  'x, y, z'

loop_
  _atom_site_type_symbol
  _atom_site_label
  _atom_site_symmetry_multiplicity
  _atom_site_fract_x
  _atom_site_fract_y
  _atom_site_fract_z
  _atom_site_occupancy
  B   B1        1.0  0.17700  0.53500  0.40000  1.0000
  B   B2        1.0  0.11600  0.33500  0.40700  1.0000
  B   B3        1.0  0.88400  0.66500  0.59300  1.0000
  B   B4        1.0  0.82300  0.46500  0.60000  1.0000
  C   C1        1.0  0.91700  0.72500  0.12200  1.0000
  C   C2        1.0  0.66100  0.92000  0.33100  1.0000
  C   C3        1.0  0.33900  0.08040  0.66900  1.0000
  C   C4        1.0  0.08350  0.27500  0.87800  1.0000
  Cl  Cl1       1.0  0.62400  0.24800  0.13300  1.0000
  Cl  Cl2       1.0  0.37600  0.75200  0.86700  1.0000
  H   H1        1.0  0.01420  0.71500  0.01740  1.0000
  H   H2        1.0  0.76800  0.60800  0.07650  1.0000
  H   H3        1.0  0.66100  0.88500  0.08620  1.0000
  H   H4        1.0  0.93600  0.00328  0.22500  1.0000
  H   H5        1.0  0.05440  0.73000  0.22600  1.0000
  H   H6        1.0  0.33500  0.18900  0.24100  1.0000
  H   H7        1.0  0.44300  0.46800  0.25200  1.0000
  H   H8        1.0  0.50900  0.80600  0.28700  1.0000
  H   H9        1.0  0.58300  0.04810  0.37600  1.0000
  H   H10       1.0  0.79600  0.92000  0.43400  1.0000
  H   H11       1.0  0.20400  0.07990  0.56600  1.0000
  H   H12       1.0  0.41700  0.95200  0.62400  1.0000
  H   H13       1.0  0.49100  0.19400  0.71300  1.0000
  H   H14       1.0  0.55700  0.53200  0.74800  1.0000
  H   H15       1.0  0.66500  0.81100  0.75900  1.0000
  H   H16       1.0  0.94600  0.27000  0.77400  1.0000
  H   H17       1.0  0.06390  0.99700  0.77500  1.0000
  H   H18       1.0  0.33900  0.11500  0.91400  1.0000
  H   H19       1.0  0.23200  0.39200  0.92300  1.0000
  H   H20       1.0  0.98600  0.28500  0.98300  1.0000
  N   N1        1.0  0.79500  0.89300  0.18700  1.0000
  N   N2        1.0  0.20500  0.10700  0.81300  1.0000
  O   O1        1.0  0.20800  0.17600  0.31000  1.0000
  O   O2        1.0  0.34600  0.57000  0.31200  1.0000
  O   O3        1.0  0.04340  0.67800  0.48700  1.0000
  O   O4        1.0  0.95700  0.32200  0.51300  1.0000
  O   O5        1.0  0.65400  0.43000  0.68800  1.0000
  O   O6        1.0  0.79200  0.82400  0.69000  1.0000
