data_image0
_chemical_formula_structural       O24Pb4V10
_chemical_formula_sum              "O24 Pb4 V10"
_cell_length_a       8.43225
_cell_length_b       4.96157
_cell_length_c       11.9722
_cell_angle_alpha    90
_cell_angle_beta     98.5244
_cell_angle_gamma    90

_space_group_name_H-M_alt    "P 1"
_space_group_IT_number       1

loop_
  _space_group_symop_operation_xyz
  'x, y, z'

loop_
  _atom_site_type_symbol
  _atom_site_label
  _atom_site_symmetry_multiplicity
  _atom_site_fract_x
  _atom_site_fract_y
  _atom_site_fract_z
  _atom_site_occupancy
  O   O1        1.0  0.83300  0.53700  0.01650  1.0000
  O   O2        1.0  0.36300  0.97500  0.03080  1.0000
  O   O3        1.0  0.06260  0.98800  0.10600  1.0000
  O   O4        1.0  0.54900  0.45000  0.13100  1.0000
  O   O5        1.0  0.78800  0.99300  0.17200  1.0000
  O   O6        1.0  0.00000  0.45700  0.25000  1.0000
  O   O7        1.0  0.50000  0.95600  0.25000  1.0000
  O   O8        1.0  0.21200  0.99300  0.32800  1.0000
  O   O9        1.0  0.45100  0.45000  0.36900  1.0000
  O   O10       1.0  0.93700  0.98800  0.39400  1.0000
  O   O11       1.0  0.63700  0.97500  0.46900  1.0000
  O   O12       1.0  0.16700  0.53700  0.48300  1.0000
  O   O13       1.0  0.83300  0.46300  0.51700  1.0000
  O   O14       1.0  0.36300  0.02490  0.53100  1.0000
  O   O15       1.0  0.06260  0.01220  0.60600  1.0000
  O   O16       1.0  0.54900  0.55000  0.63100  1.0000
  O   O17       1.0  0.78800  0.00691  0.67200  1.0000
  O   O18       1.0  0.50000  0.04450  0.75000  1.0000
  O   O19       1.0  0.00000  0.54300  0.75000  1.0000
  O   O20       1.0  0.21200  0.00691  0.82800  1.0000
  O   O21       1.0  0.45100  0.55000  0.86900  1.0000
  O   O22       1.0  0.93700  0.01220  0.89400  1.0000
  O   O23       1.0  0.63700  0.02490  0.96900  1.0000
  O   O24       1.0  0.16700  0.46300  0.98300  1.0000
  Pb  Pb1       1.0  0.28000  0.64500  0.17900  1.0000
  Pb  Pb2       1.0  0.72000  0.64500  0.32100  1.0000
  Pb  Pb3       1.0  0.28000  0.35500  0.67900  1.0000
  Pb  Pb4       1.0  0.72000  0.35500  0.82100  1.0000
  V   V1        1.0  0.85000  0.86900  0.02810  1.0000
  V   V2        1.0  0.56500  0.11600  0.11500  1.0000
  V   V3        1.0  0.00000  0.12200  0.25000  1.0000
  V   V4        1.0  0.43500  0.11600  0.38500  1.0000
  V   V5        1.0  0.15000  0.86900  0.47200  1.0000
  V   V6        1.0  0.85000  0.13100  0.52800  1.0000
  V   V7        1.0  0.56500  0.88400  0.61500  1.0000
  V   V8        1.0  0.00000  0.87800  0.75000  1.0000
  V   V9        1.0  0.43500  0.88400  0.88500  1.0000
  V   V10       1.0  0.15000  0.13100  0.97200  1.0000
