data_image0
_chemical_formula_structural       ClO3Tl
_chemical_formula_sum              "Cl1 O3 Tl1"
_cell_length_a       4.37476
_cell_length_b       4.37476
_cell_length_c       4.37476
_cell_angle_alpha    86.4245
_cell_angle_beta     86.4245
_cell_angle_gamma    86.4245

_space_group_name_H-M_alt    "P 1"
_space_group_IT_number       1

loop_
  _space_group_symop_operation_xyz
  'x, y, z'

loop_
  _atom_site_type_symbol
  _atom_site_label
  _atom_site_symmetry_multiplicity
  _atom_site_fract_x
  _atom_site_fract_y
  _atom_site_fract_z
  _atom_site_occupancy
  Cl  Cl1       1.0  0.49100  0.49100  0.49100  1.0000
  O   O1        1.0  0.55300  0.55300  0.15000  1.0000
  O   O2        1.0  0.55300  0.15000  0.55300  1.0000
  O   O3        1.0  0.15000  0.55300  0.55300  1.0000
  Tl  Tl1       1.0  0.01190  0.01190  0.01190  1.0000
