data_image0
_chemical_formula_structural       C6Cl2H20N2O8
_chemical_formula_sum              "C6 Cl2 H20 N2 O8"
_cell_length_a       5.43902
_cell_length_b       8.40159
_cell_length_c       7.33282
_cell_angle_alpha    90
_cell_angle_beta     103.141
_cell_angle_gamma    90

_space_group_name_H-M_alt    "P 1"
_space_group_IT_number       1

loop_
  _space_group_symop_operation_xyz
  'x, y, z'

loop_
  _atom_site_type_symbol
  _atom_site_label
  _atom_site_symmetry_multiplicity
  _atom_site_fract_x
  _atom_site_fract_y
  _atom_site_fract_z
  _atom_site_occupancy
  C   C1        1.0  0.20100  0.75000  0.10500  1.0000
  C   C2        1.0  0.91800  0.89400  0.26500  1.0000
  C   C3        1.0  0.92400  0.60100  0.26600  1.0000
  C   C4        1.0  0.07600  0.10100  0.73400  1.0000
  C   C5        1.0  0.08240  0.39400  0.73500  1.0000
  C   C6        1.0  0.79900  0.25000  0.89500  1.0000
  Cl  Cl1       1.0  0.50800  0.25100  0.29000  1.0000
  Cl  Cl2       1.0  0.49200  0.75100  0.71000  1.0000
  H   H1        1.0  0.94400  0.24600  0.02520  1.0000
  H   H2        1.0  0.31200  0.85900  0.11300  1.0000
  H   H3        1.0  0.32200  0.64500  0.11700  1.0000
  H   H4        1.0  0.77700  0.89900  0.13200  1.0000
  H   H5        1.0  0.77900  0.59600  0.13600  1.0000
  H   H6        1.0  0.05050  0.49900  0.27400  1.0000
  H   H7        1.0  0.04060  0.99800  0.27800  1.0000
  H   H8        1.0  0.82500  0.88700  0.38200  1.0000
  H   H9        1.0  0.21600  0.75000  0.38600  1.0000
  H   H10       1.0  0.83700  0.60500  0.38700  1.0000
  H   H11       1.0  0.16300  0.10500  0.61300  1.0000
  H   H12       1.0  0.78400  0.25000  0.61400  1.0000
  H   H13       1.0  0.17500  0.38700  0.61800  1.0000
  H   H14       1.0  0.95900  0.49800  0.72200  1.0000
  H   H15       1.0  0.95000  0.99900  0.72600  1.0000
  H   H16       1.0  0.22100  0.09650  0.86400  1.0000
  H   H17       1.0  0.22300  0.39900  0.86800  1.0000
  H   H18       1.0  0.67800  0.14500  0.88300  1.0000
  H   H19       1.0  0.68800  0.35900  0.88700  1.0000
  H   H20       1.0  0.05620  0.74600  0.97500  1.0000
  N   N1        1.0  0.07400  0.74900  0.26500  1.0000
  N   N2        1.0  0.92600  0.24900  0.73500  1.0000
  O   O1        1.0  0.39500  0.11200  0.18400  1.0000
  O   O2        1.0  0.40900  0.39400  0.18800  1.0000
  O   O3        1.0  0.78200  0.24500  0.31800  1.0000
  O   O4        1.0  0.44400  0.25100  0.47400  1.0000
  O   O5        1.0  0.55600  0.75100  0.52600  1.0000
  O   O6        1.0  0.21800  0.74500  0.68200  1.0000
  O   O7        1.0  0.59100  0.89400  0.81200  1.0000
  O   O8        1.0  0.60500  0.61200  0.81600  1.0000
