data_image0
_chemical_formula_structural       Ce4Co34
_chemical_formula_sum              "Ce4 Co34"
_cell_length_a       8.32901
_cell_length_b       8.32766
_cell_length_c       8.07732
_cell_angle_alpha    89.9989
_cell_angle_beta     89.9979
_cell_angle_gamma    120.004

_space_group_name_H-M_alt    "P 1"
_space_group_IT_number       1

loop_
  _space_group_symop_operation_xyz
  'x, y, z'

loop_
  _atom_site_type_symbol
  _atom_site_label
  _atom_site_symmetry_multiplicity
  _atom_site_fract_x
  _atom_site_fract_y
  _atom_site_fract_z
  _atom_site_occupancy
  Ce  Ce1       1.0  0.33300  0.66700  0.75000  1.0000
  Ce  Ce2       1.0  0.00015  0.00017  0.75000  1.0000
  Ce  Ce3       1.0  0.00000  0.00000  0.25000  1.0000
  Ce  Ce4       1.0  0.66700  0.33300  0.25000  1.0000
  Co  Co1       1.0  0.16700  0.33500  0.51900  1.0000
  Co  Co2       1.0  0.16800  0.83300  0.51900  1.0000
  Co  Co3       1.0  0.66500  0.83300  0.51900  1.0000
  Co  Co4       1.0  0.33500  0.16700  0.01910  1.0000
  Co  Co5       1.0  0.83300  0.16700  0.48100  1.0000
  Co  Co6       1.0  0.16700  0.83300  0.98100  1.0000
  Co  Co7       1.0  0.66500  0.83300  0.98100  1.0000
  Co  Co8       1.0  0.83300  0.66600  0.48100  1.0000
  Co  Co9       1.0  0.16700  0.33500  0.98100  1.0000
  Co  Co10      1.0  0.00000  0.50000  0.50000  1.0000
  Co  Co11      1.0  0.50000  0.00015  1.00000  1.0000
  Co  Co12      1.0  0.62000  0.94900  0.25000  1.0000
  Co  Co13      1.0  0.32900  0.37900  0.25000  1.0000
  Co  Co14      1.0  0.05030  0.67000  0.25000  1.0000
  Co  Co15      1.0  0.95000  0.32900  0.75000  1.0000
  Co  Co16      1.0  0.67000  0.62100  0.75000  1.0000
  Co  Co17      1.0  0.62000  0.67000  0.25000  1.0000
  Co  Co18      1.0  0.04970  0.37900  0.25000  1.0000
  Co  Co19      1.0  0.67100  0.05060  0.75000  1.0000
  Co  Co20      1.0  0.32900  0.94900  0.25000  1.0000
  Co  Co21      1.0  0.33300  0.66600  0.39200  1.0000
  Co  Co22      1.0  0.66700  0.33500  0.89200  1.0000
  Co  Co23      1.0  0.66700  0.33500  0.60800  1.0000
  Co  Co24      1.0  0.33300  0.66500  0.10800  1.0000
  Co  Co25      1.0  0.38000  0.05090  0.75000  1.0000
  Co  Co26      1.0  0.95000  0.62100  0.75000  1.0000
  Co  Co27      1.0  0.37900  0.33000  0.75000  1.0000
  Co  Co28      1.0  0.50000  0.50000  0.50000  1.0000
  Co  Co29      1.0  0.50000  0.50000  0.00000  1.0000
  Co  Co30      1.0  0.00000  0.50000  0.00000  1.0000
  Co  Co31      1.0  0.50000  0.00017  0.50000  1.0000
  Co  Co32      1.0  0.83300  0.16700  0.01920  1.0000
  Co  Co33      1.0  0.83300  0.66600  0.01900  1.0000
  Co  Co34      1.0  0.33500  0.16700  0.48100  1.0000
