data_image0
_chemical_formula_structural       O26P8Y4
_chemical_formula_sum              "O26 P8 Y4"
_cell_length_a       6.95943
_cell_length_b       8.51425
_cell_length_c       9.31489
_cell_angle_alpha    90
_cell_angle_beta     111.936
_cell_angle_gamma    90

_space_group_name_H-M_alt    "P 1"
_space_group_IT_number       1

loop_
  _space_group_symop_operation_xyz
  'x, y, z'

loop_
  _atom_site_type_symbol
  _atom_site_label
  _atom_site_symmetry_multiplicity
  _atom_site_fract_x
  _atom_site_fract_y
  _atom_site_fract_z
  _atom_site_occupancy
  O   O1        1.0  0.74200  0.05640  0.04540  1.0000
  O   O2        1.0  0.30300  0.94400  0.04540  1.0000
  O   O3        1.0  0.06390  0.50000  0.12800  1.0000
  O   O4        1.0  0.78100  0.64800  0.16000  1.0000
  O   O5        1.0  0.37900  0.35200  0.16000  1.0000
  O   O6        1.0  0.84000  0.35900  0.24000  1.0000
  O   O7        1.0  0.39900  0.64100  0.24000  1.0000
  O   O8        1.0  0.22300  0.15100  0.29200  1.0000
  O   O9        1.0  0.06940  0.84900  0.29200  1.0000
  O   O10       1.0  0.74000  0.86400  0.32500  1.0000
  O   O11       1.0  0.58500  0.13600  0.32500  1.0000
  O   O12       1.0  0.97900  0.63100  0.44900  1.0000
  O   O13       1.0  0.47000  0.36900  0.44900  1.0000
  O   O14       1.0  0.53000  0.86900  0.55100  1.0000
  O   O15       1.0  0.02120  0.13100  0.55100  1.0000
  O   O16       1.0  0.41500  0.63600  0.67500  1.0000
  O   O17       1.0  0.26000  0.36400  0.67500  1.0000
  O   O18       1.0  0.93100  0.34900  0.70800  1.0000
  O   O19       1.0  0.77700  0.65100  0.70800  1.0000
  O   O20       1.0  0.60100  0.14100  0.76000  1.0000
  O   O21       1.0  0.16000  0.85900  0.76000  1.0000
  O   O22       1.0  0.62100  0.85200  0.84000  1.0000
  O   O23       1.0  0.21900  0.14800  0.84000  1.0000
  O   O24       1.0  0.93600  0.00000  0.87200  1.0000
  O   O25       1.0  0.69700  0.44400  0.95500  1.0000
  O   O26       1.0  0.25800  0.55600  0.95500  1.0000
  P   P1        1.0  0.83500  0.47600  0.11800  1.0000
  P   P2        1.0  0.28300  0.52400  0.11800  1.0000
  P   P3        1.0  0.90100  0.74600  0.31700  1.0000
  P   P4        1.0  0.41600  0.25400  0.31700  1.0000
  P   P5        1.0  0.58400  0.75400  0.68300  1.0000
  P   P6        1.0  0.09870  0.24600  0.68300  1.0000
  P   P7        1.0  0.71700  0.02440  0.88200  1.0000
  P   P8        1.0  0.16500  0.97600  0.88200  1.0000
  Y   Y1        1.0  0.89700  0.10400  0.29700  1.0000
  Y   Y2        1.0  0.40100  0.89600  0.29700  1.0000
  Y   Y3        1.0  0.59900  0.39600  0.70300  1.0000
  Y   Y4        1.0  0.10300  0.60400  0.70300  1.0000
