data_image0
_chemical_formula_structural       Bi8Cs12O18
_chemical_formula_sum              "Bi8 Cs12 O18"
_cell_length_a       8.12299
_cell_length_b       9.93973
_cell_length_c       12.1225
_cell_angle_alpha    103.996
_cell_angle_beta     93.4569
_cell_angle_gamma    91.9247

_space_group_name_H-M_alt    "P 1"
_space_group_IT_number       1

loop_
  _space_group_symop_operation_xyz
  'x, y, z'

loop_
  _atom_site_type_symbol
  _atom_site_label
  _atom_site_symmetry_multiplicity
  _atom_site_fract_x
  _atom_site_fract_y
  _atom_site_fract_z
  _atom_site_occupancy
  Bi  Bi1       1.0  0.13200  0.35900  0.07190  1.0000
  Bi  Bi2       1.0  0.38800  0.06690  0.14500  1.0000
  Bi  Bi3       1.0  0.88900  0.45600  0.36600  1.0000
  Bi  Bi4       1.0  0.66300  0.16500  0.41800  1.0000
  Bi  Bi5       1.0  0.33700  0.83500  0.58200  1.0000
  Bi  Bi6       1.0  0.11100  0.54400  0.63400  1.0000
  Bi  Bi7       1.0  0.61200  0.93300  0.85500  1.0000
  Bi  Bi8       1.0  0.86800  0.64100  0.92800  1.0000
  Cs  Cs1       1.0  0.62200  0.36400  0.05720  1.0000
  Cs  Cs2       1.0  0.88200  0.03740  0.13600  1.0000
  Cs  Cs3       1.0  0.06490  0.75300  0.25100  1.0000
  Cs  Cs4       1.0  0.55600  0.76300  0.26000  1.0000
  Cs  Cs5       1.0  0.38100  0.44900  0.36100  1.0000
  Cs  Cs6       1.0  0.14800  0.14700  0.44600  1.0000
  Cs  Cs7       1.0  0.85200  0.85300  0.55400  1.0000
  Cs  Cs8       1.0  0.61900  0.55100  0.63900  1.0000
  Cs  Cs9       1.0  0.44400  0.23700  0.74000  1.0000
  Cs  Cs10      1.0  0.93500  0.24700  0.74900  1.0000
  Cs  Cs11      1.0  0.11800  0.96300  0.86400  1.0000
  Cs  Cs12      1.0  0.37800  0.63600  0.94300  1.0000
  O   O1        1.0  0.74600  0.72300  0.06980  1.0000
  O   O2        1.0  0.23100  0.89600  0.10100  1.0000
  O   O3        1.0  0.29000  0.52700  0.14400  1.0000
  O   O4        1.0  0.20500  0.21900  0.17800  1.0000
  O   O5        1.0  0.70600  0.27100  0.29000  1.0000
  O   O6        1.0  0.43800  0.06080  0.31700  1.0000
  O   O7        1.0  0.81500  0.00535  0.37000  1.0000
  O   O8        1.0  0.71000  0.59600  0.39900  1.0000
  O   O9        1.0  0.10300  0.62200  0.48600  1.0000
  O   O10       1.0  0.89700  0.37800  0.51400  1.0000
  O   O11       1.0  0.29000  0.40400  0.60100  1.0000
  O   O12       1.0  0.18500  0.99500  0.63000  1.0000
  O   O13       1.0  0.56200  0.93900  0.68300  1.0000
  O   O14       1.0  0.29400  0.72900  0.71000  1.0000
  O   O15       1.0  0.79500  0.78100  0.82200  1.0000
  O   O16       1.0  0.71000  0.47300  0.85600  1.0000
  O   O17       1.0  0.76900  0.10400  0.89900  1.0000
  O   O18       1.0  0.25400  0.27700  0.93000  1.0000
