data_image0
_chemical_formula_structural       Cs8F24Mn4Pd2
_chemical_formula_sum              "Cs8 F24 Mn4 Pd2"
_cell_length_a       8.36375
_cell_length_b       8.36375
_cell_length_c       10.9416
_cell_angle_alpha    112.47
_cell_angle_beta     112.47
_cell_angle_gamma    90

_space_group_name_H-M_alt    "P 1"
_space_group_IT_number       1

loop_
  _space_group_symop_operation_xyz
  'x, y, z'

loop_
  _atom_site_type_symbol
  _atom_site_label
  _atom_site_symmetry_multiplicity
  _atom_site_fract_x
  _atom_site_fract_y
  _atom_site_fract_z
  _atom_site_occupancy
  Cs  Cs1       1.0  0.26000  0.00000  0.00000  1.0000
  Cs  Cs2       1.0  0.74000  0.00000  0.00000  1.0000
  Cs  Cs3       1.0  0.74000  0.50000  0.00000  1.0000
  Cs  Cs4       1.0  0.26000  0.50000  0.00000  1.0000
  Cs  Cs5       1.0  0.50000  0.74000  0.50000  1.0000
  Cs  Cs6       1.0  0.50000  0.26000  0.50000  1.0000
  Cs  Cs7       1.0  0.00000  0.74000  0.50000  1.0000
  Cs  Cs8       1.0  0.00000  0.26000  0.50000  1.0000
  F   F1        1.0  0.02180  0.27200  0.04370  1.0000
  F   F2        1.0  0.52600  0.77600  0.05200  1.0000
  F   F3        1.0  0.90200  0.37300  0.24500  1.0000
  F   F4        1.0  0.34300  0.37300  0.24500  1.0000
  F   F5        1.0  0.12400  0.63000  0.24800  1.0000
  F   F6        1.0  0.12400  0.11800  0.24800  1.0000
  F   F7        1.0  0.88200  0.87600  0.25200  1.0000
  F   F8        1.0  0.37000  0.87600  0.25200  1.0000
  F   F9        1.0  0.62700  0.65700  0.25500  1.0000
  F   F10       1.0  0.62700  0.09750  0.25500  1.0000
  F   F11       1.0  0.22400  0.47400  0.44800  1.0000
  F   F12       1.0  0.72800  0.97800  0.45600  1.0000
  F   F13       1.0  0.27200  0.02180  0.54400  1.0000
  F   F14       1.0  0.77600  0.52600  0.55200  1.0000
  F   F15       1.0  0.37300  0.90200  0.74500  1.0000
  F   F16       1.0  0.37300  0.34300  0.74500  1.0000
  F   F17       1.0  0.63000  0.12400  0.74800  1.0000
  F   F18       1.0  0.11800  0.12400  0.74800  1.0000
  F   F19       1.0  0.87600  0.88200  0.75200  1.0000
  F   F20       1.0  0.87600  0.37000  0.75200  1.0000
  F   F21       1.0  0.65700  0.62700  0.75500  1.0000
  F   F22       1.0  0.09750  0.62700  0.75500  1.0000
  F   F23       1.0  0.47400  0.22400  0.94800  1.0000
  F   F24       1.0  0.97800  0.72800  0.95600  1.0000
  Mn  Mn1       1.0  0.12300  0.37300  0.24600  1.0000
  Mn  Mn2       1.0  0.62700  0.87700  0.25400  1.0000
  Mn  Mn3       1.0  0.37300  0.12300  0.74600  1.0000
  Mn  Mn4       1.0  0.87700  0.62700  0.75400  1.0000
  Pd  Pd1       1.0  0.12500  0.87500  0.25000  1.0000
  Pd  Pd2       1.0  0.87500  0.12500  0.75000  1.0000
