data_image0
_chemical_formula_structural       Mn2O8
_chemical_formula_sum              "Mn2 O8"
_cell_length_a       4.67758
_cell_length_b       4.67758
_cell_length_c       6.15489
_cell_angle_alpha    90
_cell_angle_beta     90
_cell_angle_gamma    115.11

_space_group_name_H-M_alt    "P 1"
_space_group_IT_number       1

loop_
  _space_group_symop_operation_xyz
  'x, y, z'

loop_
  _atom_site_type_symbol
  _atom_site_label
  _atom_site_symmetry_multiplicity
  _atom_site_fract_x
  _atom_site_fract_y
  _atom_site_fract_z
  _atom_site_occupancy
  Mn  Mn1       1.0  0.37500  0.62500  0.25000  1.0000
  Mn  Mn2       1.0  0.62500  0.37500  0.75000  1.0000
  O   O1        1.0  0.25800  0.74200  0.03010  1.0000
  O   O2        1.0  0.23600  0.24800  0.25000  1.0000
  O   O3        1.0  0.75200  0.76400  0.25000  1.0000
  O   O4        1.0  0.25800  0.74200  0.47000  1.0000
  O   O5        1.0  0.74200  0.25800  0.53000  1.0000
  O   O6        1.0  0.24800  0.23600  0.75000  1.0000
  O   O7        1.0  0.76400  0.75200  0.75000  1.0000
  O   O8        1.0  0.74200  0.25800  0.97000  1.0000
