data_image0
_chemical_formula_structural       H16La2O14P6
_chemical_formula_sum              "H16 La2 O14 P6"
_cell_length_a       7.14117
_cell_length_b       7.75447
_cell_length_c       8.81866
_cell_angle_alpha    109.634
_cell_angle_beta     98.6037
_cell_angle_gamma    104.128

_space_group_name_H-M_alt    "P 1"
_space_group_IT_number       1

loop_
  _space_group_symop_operation_xyz
  'x, y, z'

loop_
  _atom_site_type_symbol
  _atom_site_label
  _atom_site_symmetry_multiplicity
  _atom_site_fract_x
  _atom_site_fract_y
  _atom_site_fract_z
  _atom_site_occupancy
  H   H1        1.0  0.65200  0.37200  0.08530  1.0000
  H   H2        1.0  0.77500  0.82200  0.08540  1.0000
  H   H3        1.0  0.95400  0.63600  0.13000  1.0000
  H   H4        1.0  0.44700  0.61600  0.13800  1.0000
  H   H5        1.0  0.63900  0.11900  0.15700  1.0000
  H   H6        1.0  0.45500  0.91000  0.30000  1.0000
  H   H7        1.0  0.83100  0.99400  0.44200  1.0000
  H   H8        1.0  0.18300  0.79400  0.47500  1.0000
  H   H9        1.0  0.81700  0.20600  0.52500  1.0000
  H   H10       1.0  0.16900  0.00580  0.55800  1.0000
  H   H11       1.0  0.54500  0.08950  0.70000  1.0000
  H   H12       1.0  0.36100  0.88100  0.84300  1.0000
  H   H13       1.0  0.55300  0.38400  0.86200  1.0000
  H   H14       1.0  0.04620  0.36400  0.87000  1.0000
  H   H15       1.0  0.22500  0.17800  0.91500  1.0000
  H   H16       1.0  0.34800  0.62800  0.91500  1.0000
  La  La1       1.0  0.15600  0.31500  0.36900  1.0000
  La  La2       1.0  0.84400  0.68500  0.63100  1.0000
  O   O1        1.0  0.99700  0.24400  0.08230  1.0000
  O   O2        1.0  0.12200  0.97400  0.23200  1.0000
  O   O3        1.0  0.46500  0.33600  0.28200  1.0000
  O   O4        1.0  0.84800  0.43400  0.35400  1.0000
  O   O5        1.0  0.28500  0.64600  0.35900  1.0000
  O   O6        1.0  0.67300  0.76700  0.40800  1.0000
  O   O7        1.0  0.87800  0.12700  0.44500  1.0000
  O   O8        1.0  0.12200  0.87300  0.55500  1.0000
  O   O9        1.0  0.32700  0.23300  0.59200  1.0000
  O   O10       1.0  0.71500  0.35400  0.64100  1.0000
  O   O11       1.0  0.15200  0.56600  0.64600  1.0000
  O   O12       1.0  0.53500  0.66400  0.71800  1.0000
  O   O13       1.0  0.87800  0.02590  0.76800  1.0000
  O   O14       1.0  0.00268  0.75600  0.91800  1.0000
  P   P1        1.0  0.96800  0.80200  0.09090  1.0000
  P   P2        1.0  0.65100  0.31600  0.22300  1.0000
  P   P3        1.0  0.46600  0.73300  0.30600  1.0000
  P   P4        1.0  0.53400  0.26700  0.69400  1.0000
  P   P5        1.0  0.34900  0.68400  0.77700  1.0000
  P   P6        1.0  0.03200  0.19800  0.90900  1.0000
