data_image0
_chemical_formula_structural       NaO6Ti2
_chemical_formula_sum              "Na1 O6 Ti2"
_cell_length_a       5.28093
_cell_length_b       5.28093
_cell_length_c       5.39708
_cell_angle_alpha    101.815
_cell_angle_beta     101.815
_cell_angle_gamma    118.599

_space_group_name_H-M_alt    "P 1"
_space_group_IT_number       1

loop_
  _space_group_symop_operation_xyz
  'x, y, z'

loop_
  _atom_site_type_symbol
  _atom_site_label
  _atom_site_symmetry_multiplicity
  _atom_site_fract_x
  _atom_site_fract_y
  _atom_site_fract_z
  _atom_site_occupancy
  Na  Na1       1.0  0.00000  0.00000  0.50000  1.0000
  O   O1        1.0  0.18500  0.18500  0.16500  1.0000
  O   O2        1.0  0.96500  0.60300  0.21700  1.0000
  O   O3        1.0  0.60300  0.96500  0.21700  1.0000
  O   O4        1.0  0.39700  0.03470  0.78300  1.0000
  O   O5        1.0  0.03470  0.39700  0.78300  1.0000
  O   O6        1.0  0.81500  0.81500  0.83500  1.0000
  Ti  Ti1       1.0  0.80100  0.19900  0.00000  1.0000
  Ti  Ti2       1.0  0.19900  0.80100  0.00000  1.0000
