data_image0
_chemical_formula_structural       Na3O8Ti4
_chemical_formula_sum              "Na3 O8 Ti4"
_cell_length_a       5.25153
_cell_length_b       5.22159
_cell_length_c       5.78939
_cell_angle_alpha    90
_cell_angle_beta     90
_cell_angle_gamma    87.7831

_space_group_name_H-M_alt    "P 1"
_space_group_IT_number       1

loop_
  _space_group_symop_operation_xyz
  'x, y, z'

loop_
  _atom_site_type_symbol
  _atom_site_label
  _atom_site_symmetry_multiplicity
  _atom_site_fract_x
  _atom_site_fract_y
  _atom_site_fract_z
  _atom_site_occupancy
  Na  Na1       1.0  0.50000  0.00000  0.01620  1.0000
  Na  Na2       1.0  0.00000  0.50000  0.26700  1.0000
  Na  Na3       1.0  0.00000  0.50000  0.76400  1.0000
  O   O1        1.0  0.28600  0.34700  0.01590  1.0000
  O   O2        1.0  0.71400  0.65300  0.01590  1.0000
  O   O3        1.0  0.78400  0.16600  0.26500  1.0000
  O   O4        1.0  0.21600  0.83400  0.26500  1.0000
  O   O5        1.0  0.29100  0.32900  0.51600  1.0000
  O   O6        1.0  0.70900  0.67100  0.51600  1.0000
  O   O7        1.0  0.78400  0.16600  0.76600  1.0000
  O   O8        1.0  0.21600  0.83400  0.76600  1.0000
  Ti  Ti1       1.0  0.00000  0.00000  0.01590  1.0000
  Ti  Ti2       1.0  0.50000  0.50000  0.27600  1.0000
  Ti  Ti3       1.0  0.00000  0.00000  0.51600  1.0000
  Ti  Ti4       1.0  0.50000  0.50000  0.75600  1.0000
