data_image0
_chemical_formula_structural       Ca2Na4O24V8
_chemical_formula_sum              "Ca2 Na4 O24 V8"
_cell_length_a       10.3374
_cell_length_b       10.3374
_cell_length_c       4.88441
_cell_angle_alpha    90
_cell_angle_beta     90
_cell_angle_gamma    90

_space_group_name_H-M_alt    "P 1"
_space_group_IT_number       1

loop_
  _space_group_symop_operation_xyz
  'x, y, z'

loop_
  _atom_site_type_symbol
  _atom_site_label
  _atom_site_symmetry_multiplicity
  _atom_site_fract_x
  _atom_site_fract_y
  _atom_site_fract_z
  _atom_site_occupancy
  Ca  Ca1       1.0  0.25000  0.25000  0.50000  1.0000
  Ca  Ca2       1.0  0.75000  0.75000  0.50000  1.0000
  Na  Na1       1.0  0.00000  0.00000  0.50000  1.0000
  Na  Na2       1.0  0.50000  0.00000  0.50000  1.0000
  Na  Na3       1.0  0.00000  0.50000  0.50000  1.0000
  Na  Na4       1.0  0.50000  0.50000  0.50000  1.0000
  O   O1        1.0  0.87100  0.12900  0.16100  1.0000
  O   O2        1.0  0.62900  0.37100  0.16100  1.0000
  O   O3        1.0  0.12900  0.62900  0.16100  1.0000
  O   O4        1.0  0.37100  0.87100  0.16100  1.0000
  O   O5        1.0  0.18100  0.06200  0.24500  1.0000
  O   O6        1.0  0.43800  0.18100  0.24500  1.0000
  O   O7        1.0  0.06200  0.31900  0.24500  1.0000
  O   O8        1.0  0.31900  0.43800  0.24500  1.0000
  O   O9        1.0  0.81900  0.56200  0.24500  1.0000
  O   O10       1.0  0.56200  0.68100  0.24500  1.0000
  O   O11       1.0  0.93800  0.81900  0.24500  1.0000
  O   O12       1.0  0.68100  0.93800  0.24500  1.0000
  O   O13       1.0  0.31900  0.06200  0.75500  1.0000
  O   O14       1.0  0.06200  0.18100  0.75500  1.0000
  O   O15       1.0  0.43800  0.31900  0.75500  1.0000
  O   O16       1.0  0.18100  0.43800  0.75500  1.0000
  O   O17       1.0  0.68100  0.56200  0.75500  1.0000
  O   O18       1.0  0.93800  0.68100  0.75500  1.0000
  O   O19       1.0  0.56200  0.81900  0.75500  1.0000
  O   O20       1.0  0.81900  0.93800  0.75500  1.0000
  O   O21       1.0  0.62900  0.12900  0.83900  1.0000
  O   O22       1.0  0.87100  0.37100  0.83900  1.0000
  O   O23       1.0  0.37100  0.62900  0.83900  1.0000
  O   O24       1.0  0.12900  0.87100  0.83900  1.0000
  V   V1        1.0  0.75000  0.02670  0.00000  1.0000
  V   V2        1.0  0.52700  0.25000  0.00000  1.0000
  V   V3        1.0  0.97300  0.25000  0.00000  1.0000
  V   V4        1.0  0.75000  0.47300  0.00000  1.0000
  V   V5        1.0  0.25000  0.52700  0.00000  1.0000
  V   V6        1.0  0.02670  0.75000  0.00000  1.0000
  V   V7        1.0  0.47300  0.75000  0.00000  1.0000
  V   V8        1.0  0.25000  0.97300  0.00000  1.0000
