data_image0
_chemical_formula_structural       K16Tl20Zn2
_chemical_formula_sum              "K16 Tl20 Zn2"
_cell_length_a       10.4721
_cell_length_b       10.4721
_cell_length_c       13.9911
_cell_angle_alpha    90
_cell_angle_beta     90
_cell_angle_gamma    90

_space_group_name_H-M_alt    "P 1"
_space_group_IT_number       1

loop_
  _space_group_symop_operation_xyz
  'x, y, z'

loop_
  _atom_site_type_symbol
  _atom_site_label
  _atom_site_symmetry_multiplicity
  _atom_site_fract_x
  _atom_site_fract_y
  _atom_site_fract_z
  _atom_site_occupancy
  K   K1        1.0  0.95400  0.17600  0.10500  1.0000
  K   K2        1.0  0.54600  0.32400  0.10500  1.0000
  K   K3        1.0  0.17600  0.54600  0.10500  1.0000
  K   K4        1.0  0.32400  0.95400  0.10500  1.0000
  K   K5        1.0  0.54600  0.17600  0.39500  1.0000
  K   K6        1.0  0.95400  0.32400  0.39500  1.0000
  K   K7        1.0  0.32400  0.54600  0.39500  1.0000
  K   K8        1.0  0.17600  0.95400  0.39500  1.0000
  K   K9        1.0  0.82400  0.04580  0.60500  1.0000
  K   K10       1.0  0.67600  0.45400  0.60500  1.0000
  K   K11       1.0  0.04580  0.67600  0.60500  1.0000
  K   K12       1.0  0.45400  0.82400  0.60500  1.0000
  K   K13       1.0  0.67600  0.04580  0.89500  1.0000
  K   K14       1.0  0.82400  0.45400  0.89500  1.0000
  K   K15       1.0  0.45400  0.67600  0.89500  1.0000
  K   K16       1.0  0.04580  0.82400  0.89500  1.0000
  Tl  Tl1       1.0  0.75000  0.75000  0.03890  1.0000
  Tl  Tl2       1.0  0.84500  0.51000  0.16000  1.0000
  Tl  Tl3       1.0  0.51000  0.65500  0.16000  1.0000
  Tl  Tl4       1.0  0.99000  0.84500  0.16000  1.0000
  Tl  Tl5       1.0  0.65500  0.99000  0.16000  1.0000
  Tl  Tl6       1.0  0.65500  0.51000  0.34000  1.0000
  Tl  Tl7       1.0  0.99000  0.65500  0.34000  1.0000
  Tl  Tl8       1.0  0.51000  0.84500  0.34000  1.0000
  Tl  Tl9       1.0  0.84500  0.99000  0.34000  1.0000
  Tl  Tl10      1.0  0.75000  0.75000  0.46100  1.0000
  Tl  Tl11      1.0  0.25000  0.25000  0.53900  1.0000
  Tl  Tl12      1.0  0.15500  0.00956  0.66000  1.0000
  Tl  Tl13      1.0  0.49000  0.15500  0.66000  1.0000
  Tl  Tl14      1.0  0.00956  0.34500  0.66000  1.0000
  Tl  Tl15      1.0  0.34500  0.49000  0.66000  1.0000
  Tl  Tl16      1.0  0.34500  0.00956  0.84000  1.0000
  Tl  Tl17      1.0  0.00956  0.15500  0.84000  1.0000
  Tl  Tl18      1.0  0.49000  0.34500  0.84000  1.0000
  Tl  Tl19      1.0  0.15500  0.49000  0.84000  1.0000
  Tl  Tl20      1.0  0.25000  0.25000  0.96100  1.0000
  Zn  Zn1       1.0  0.75000  0.75000  0.25000  1.0000
  Zn  Zn2       1.0  0.25000  0.25000  0.75000  1.0000
