data_image0
_chemical_formula_structural       Fe6O24P6Sr2
_chemical_formula_sum              "Fe6 O24 P6 Sr2"
_cell_length_a       6.51758
_cell_length_b       9.0913
_cell_length_c       9.0913
_cell_angle_alpha    94.8675
_cell_angle_beta     111.005
_cell_angle_gamma    111.005

_space_group_name_H-M_alt    "P 1"
_space_group_IT_number       1

loop_
  _space_group_symop_operation_xyz
  'x, y, z'

loop_
  _atom_site_type_symbol
  _atom_site_label
  _atom_site_symmetry_multiplicity
  _atom_site_fract_x
  _atom_site_fract_y
  _atom_site_fract_z
  _atom_site_occupancy
  Fe  Fe1       1.0  0.00000  0.00000  0.00000  1.0000
  Fe  Fe2       1.0  0.50000  0.38300  0.11700  1.0000
  Fe  Fe3       1.0  0.00000  0.11700  0.38300  1.0000
  Fe  Fe4       1.0  0.00000  0.50000  0.50000  1.0000
  Fe  Fe5       1.0  1.00000  0.88300  0.61700  1.0000
  Fe  Fe6       1.0  0.50000  0.61700  0.88300  1.0000
  O   O1        1.0  0.77500  0.34700  0.07170  1.0000
  O   O2        1.0  0.64200  0.63300  0.13300  1.0000
  O   O3        1.0  0.34300  0.13900  0.13600  1.0000
  O   O4        1.0  0.93100  0.13600  0.13900  1.0000
  O   O5        1.0  0.22500  0.42800  0.15300  1.0000
  O   O6        1.0  0.04430  0.84300  0.15700  1.0000
  O   O7        1.0  0.04430  0.65700  0.34300  1.0000
  O   O8        1.0  0.64300  0.07170  0.34700  1.0000
  O   O9        1.0  0.65700  0.36400  0.36100  1.0000
  O   O10       1.0  0.06870  0.36100  0.36400  1.0000
  O   O11       1.0  0.87500  0.86700  0.36700  1.0000
  O   O12       1.0  0.35700  0.15300  0.42800  1.0000
  O   O13       1.0  0.64300  0.84700  0.57200  1.0000
  O   O14       1.0  0.12500  0.13300  0.63300  1.0000
  O   O15       1.0  0.93100  0.63900  0.63600  1.0000
  O   O16       1.0  0.34300  0.63600  0.63900  1.0000
  O   O17       1.0  0.35700  0.92800  0.65300  1.0000
  O   O18       1.0  0.95600  0.34300  0.65700  1.0000
  O   O19       1.0  0.95600  0.15700  0.84300  1.0000
  O   O20       1.0  0.77500  0.57200  0.84700  1.0000
  O   O21       1.0  0.06870  0.86400  0.86100  1.0000
  O   O22       1.0  0.65700  0.86100  0.86400  1.0000
  O   O23       1.0  0.35800  0.36700  0.86700  1.0000
  O   O24       1.0  0.22500  0.65300  0.92800  1.0000
  P   P1        1.0  0.00000  0.32400  0.17600  1.0000
  P   P2        1.0  0.90600  0.75000  0.25000  1.0000
  P   P3        1.0  0.50000  0.17600  0.32400  1.0000
  P   P4        1.0  0.50000  0.82400  0.67600  1.0000
  P   P5        1.0  0.09430  0.25000  0.75000  1.0000
  P   P6        1.0  0.00000  0.67600  0.82400  1.0000
  Sr  Sr1       1.0  0.40000  0.75000  0.25000  1.0000
  Sr  Sr2       1.0  0.60000  0.25000  0.75000  1.0000
