data_image0
_chemical_formula_structural       H8Mn2Na4O20S4
_chemical_formula_sum              "H8 Mn2 Na4 O20 S4"
_cell_length_a       5.7478
_cell_length_b       12.7968
_cell_length_c       5.45836
_cell_angle_alpha    90
_cell_angle_beta     106.233
_cell_angle_gamma    90

_space_group_name_H-M_alt    "P 1"
_space_group_IT_number       1

loop_
  _space_group_symop_operation_xyz
  'x, y, z'

loop_
  _atom_site_type_symbol
  _atom_site_label
  _atom_site_symmetry_multiplicity
  _atom_site_fract_x
  _atom_site_fract_y
  _atom_site_fract_z
  _atom_site_occupancy
  H   H1        1.0  0.91000  0.20900  0.00521  1.0000
  H   H2        1.0  0.32200  0.84200  0.18700  1.0000
  H   H3        1.0  0.67800  0.34200  0.31300  1.0000
  H   H4        1.0  0.09000  0.70900  0.49500  1.0000
  H   H5        1.0  0.91000  0.29100  0.50500  1.0000
  H   H6        1.0  0.32200  0.65800  0.68700  1.0000
  H   H7        1.0  0.67800  0.15800  0.81300  1.0000
  H   H8        1.0  0.09010  0.79100  0.99500  1.0000
  Mn  Mn1       1.0  0.00000  0.00000  0.00000  1.0000
  Mn  Mn2       1.0  0.00000  0.50000  0.50000  1.0000
  Na  Na1       1.0  0.42200  0.62000  0.24700  1.0000
  Na  Na2       1.0  0.57800  0.12000  0.25300  1.0000
  Na  Na3       1.0  0.42200  0.88000  0.74700  1.0000
  Na  Na4       1.0  0.57800  0.38000  0.75300  1.0000
  O   O1        1.0  0.99500  0.33000  0.01820  1.0000
  O   O2        1.0  0.19000  0.85600  0.02740  1.0000
  O   O3        1.0  0.43200  0.30400  0.09230  1.0000
  O   O4        1.0  0.76000  0.54100  0.12700  1.0000
  O   O5        1.0  0.71700  0.93900  0.17400  1.0000
  O   O6        1.0  0.28300  0.43900  0.32600  1.0000
  O   O7        1.0  0.24000  0.04140  0.37300  1.0000
  O   O8        1.0  0.56800  0.80400  0.40800  1.0000
  O   O9        1.0  0.81000  0.35600  0.47300  1.0000
  O   O10       1.0  0.00462  0.83000  0.48200  1.0000
  O   O11       1.0  0.99500  0.17100  0.51800  1.0000
  O   O12       1.0  0.19000  0.64400  0.52700  1.0000
  O   O13       1.0  0.43200  0.19600  0.59200  1.0000
  O   O14       1.0  0.76000  0.95900  0.62700  1.0000
  O   O15       1.0  0.71700  0.56100  0.67400  1.0000
  O   O16       1.0  0.28300  0.06120  0.82600  1.0000
  O   O17       1.0  0.24000  0.45900  0.87300  1.0000
  O   O18       1.0  0.56800  0.69600  0.90800  1.0000
  O   O19       1.0  0.81000  0.14400  0.97300  1.0000
  O   O20       1.0  0.00462  0.67000  0.98200  1.0000
  S   S1        1.0  0.23300  0.38100  0.07770  1.0000
  S   S2        1.0  0.76700  0.88100  0.42200  1.0000
  S   S3        1.0  0.23300  0.11900  0.57800  1.0000
  S   S4        1.0  0.76700  0.61900  0.92200  1.0000
