data_image0
_chemical_formula_structural       Nb4O26Se8
_chemical_formula_sum              "Nb4 O26 Se8"
_cell_length_a       7.54037
_cell_length_b       6.58351
_cell_length_c       11.3327
_cell_angle_alpha    90
_cell_angle_beta     109.551
_cell_angle_gamma    90

_space_group_name_H-M_alt    "P 1"
_space_group_IT_number       1

loop_
  _space_group_symop_operation_xyz
  'x, y, z'

loop_
  _atom_site_type_symbol
  _atom_site_label
  _atom_site_symmetry_multiplicity
  _atom_site_fract_x
  _atom_site_fract_y
  _atom_site_fract_z
  _atom_site_occupancy
  Nb  Nb1       1.0  0.16400  0.99600  0.04780  1.0000
  Nb  Nb2       1.0  0.66400  0.00356  0.04780  1.0000
  Nb  Nb3       1.0  0.07080  0.49900  0.39600  1.0000
  Nb  Nb4       1.0  0.57100  0.50100  0.39600  1.0000
  O   O1        1.0  0.07750  0.29100  0.03710  1.0000
  O   O2        1.0  0.57800  0.70900  0.03710  1.0000
  O   O3        1.0  0.39600  0.08320  0.04900  1.0000
  O   O4        1.0  0.89600  0.91700  0.04900  1.0000
  O   O5        1.0  0.22500  0.69800  0.05210  1.0000
  O   O6        1.0  0.72500  0.30200  0.05210  1.0000
  O   O7        1.0  0.00532  0.48900  0.21300  1.0000
  O   O8        1.0  0.50500  0.51100  0.21300  1.0000
  O   O9        1.0  0.22600  0.99700  0.23300  1.0000
  O   O10       1.0  0.72600  0.00276  0.23300  1.0000
  O   O11       1.0  0.50600  0.20300  0.38400  1.0000
  O   O12       1.0  0.00649  0.79700  0.38400  1.0000
  O   O13       1.0  0.34400  0.58200  0.41000  1.0000
  O   O14       1.0  0.84400  0.41800  0.41000  1.0000
  O   O15       1.0  0.66100  0.79300  0.41000  1.0000
  O   O16       1.0  0.16100  0.20700  0.41000  1.0000
  O   O17       1.0  0.19200  0.53900  0.58500  1.0000
  O   O18       1.0  0.69200  0.46100  0.58500  1.0000
  O   O19       1.0  0.49000  0.10300  0.62500  1.0000
  O   O20       1.0  0.99000  0.89700  0.62500  1.0000
  O   O21       1.0  0.13500  0.24500  0.72600  1.0000
  O   O22       1.0  0.63500  0.75500  0.72600  1.0000
  O   O23       1.0  0.30900  0.58900  0.82300  1.0000
  O   O24       1.0  0.80900  0.41100  0.82300  1.0000
  O   O25       1.0  0.04830  0.96200  0.86200  1.0000
  O   O26       1.0  0.54800  0.03760  0.86200  1.0000
  Se  Se1       1.0  0.41100  0.54000  0.05080  1.0000
  Se  Se2       1.0  0.91100  0.46000  0.05080  1.0000
  Se  Se3       1.0  0.82900  0.96000  0.39100  1.0000
  Se  Se4       1.0  0.32900  0.04020  0.39100  1.0000
  Se  Se5       1.0  0.60800  0.47400  0.71100  1.0000
  Se  Se6       1.0  0.10800  0.52600  0.71100  1.0000
  Se  Se7       1.0  0.43900  0.92900  0.71700  1.0000
  Se  Se8       1.0  0.93900  0.07140  0.71700  1.0000
