data_image0
_chemical_formula_structural       Fe2O22Pb2V10
_chemical_formula_sum              "Fe2 O22 Pb2 V10"
_cell_length_a       5.89042
_cell_length_b       5.83169
_cell_length_c       13.565
_cell_angle_alpha    90
_cell_angle_beta     90
_cell_angle_gamma    120.334

_space_group_name_H-M_alt    "P 1"
_space_group_IT_number       1

loop_
  _space_group_symop_operation_xyz
  'x, y, z'

loop_
  _atom_site_type_symbol
  _atom_site_label
  _atom_site_symmetry_multiplicity
  _atom_site_fract_x
  _atom_site_fract_y
  _atom_site_fract_z
  _atom_site_occupancy
  Fe  Fe1       1.0  0.66700  0.33300  0.26500  1.0000
  Fe  Fe2       1.0  0.33300  0.66700  0.76500  1.0000
  O   O1        1.0  0.17200  0.34500  0.07630  1.0000
  O   O2        1.0  0.17100  0.81400  0.07650  1.0000
  O   O3        1.0  0.64200  0.81400  0.07650  1.0000
  O   O4        1.0  0.67500  0.35000  0.07840  1.0000
  O   O5        1.0  0.85000  0.70000  0.24600  1.0000
  O   O6        1.0  0.30300  0.15300  0.24700  1.0000
  O   O7        1.0  0.85000  0.15300  0.24700  1.0000
  O   O8        1.0  0.67200  0.34300  0.41400  1.0000
  O   O9        1.0  0.16300  0.81900  0.41900  1.0000
  O   O10       1.0  0.65600  0.81900  0.41900  1.0000
  O   O11       1.0  0.17300  0.34700  0.42100  1.0000
  O   O12       1.0  0.82800  0.65500  0.57600  1.0000
  O   O13       1.0  0.35800  0.18600  0.57600  1.0000
  O   O14       1.0  0.82900  0.18600  0.57600  1.0000
  O   O15       1.0  0.32500  0.65000  0.57800  1.0000
  O   O16       1.0  0.15000  0.30000  0.74600  1.0000
  O   O17       1.0  0.15000  0.84700  0.74700  1.0000
  O   O18       1.0  0.69700  0.84700  0.74700  1.0000
  O   O19       1.0  0.32800  0.65700  0.91400  1.0000
  O   O20       1.0  0.34400  0.18100  0.91900  1.0000
  O   O21       1.0  0.83700  0.18100  0.91900  1.0000
  O   O22       1.0  0.82700  0.65300  0.92100  1.0000
  Pb  Pb1       1.0  0.33000  0.65900  0.22500  1.0000
  Pb  Pb2       1.0  0.67000  0.34100  0.72500  1.0000
  V   V1        1.0  0.99900  0.99800  0.14600  1.0000
  V   V2        1.0  0.00091  0.00182  0.34900  1.0000
  V   V3        1.0  0.00692  0.50500  0.49600  1.0000
  V   V4        1.0  0.49800  0.50500  0.49600  1.0000
  V   V5        1.0  0.49700  0.99400  0.49600  1.0000
  V   V6        1.0  0.00096  0.00192  0.64600  1.0000
  V   V7        1.0  0.99900  0.99800  0.84900  1.0000
  V   V8        1.0  0.50200  0.49500  0.99600  1.0000
  V   V9        1.0  0.99300  0.49500  0.99600  1.0000
  V   V10       1.0  0.50300  0.00631  0.99600  1.0000
