data_image0
_chemical_formula_structural       Ba2Fe8O22Sn4
_chemical_formula_sum              "Ba2 Fe8 O22 Sn4"
_cell_length_a       6.0013
_cell_length_b       6.0013
_cell_length_c       13.6172
_cell_angle_alpha    90
_cell_angle_beta     90
_cell_angle_gamma    119.364

_space_group_name_H-M_alt    "P 1"
_space_group_IT_number       1

loop_
  _space_group_symop_operation_xyz
  'x, y, z'

loop_
  _atom_site_type_symbol
  _atom_site_label
  _atom_site_symmetry_multiplicity
  _atom_site_fract_x
  _atom_site_fract_y
  _atom_site_fract_z
  _atom_site_occupancy
  Ba  Ba1       1.0  0.33600  0.66400  0.25000  1.0000
  Ba  Ba2       1.0  0.66400  0.33600  0.75000  1.0000
  Fe  Fe1       1.0  0.50000  0.50000  0.00000  1.0000
  Fe  Fe2       1.0  0.99700  0.00252  0.14900  1.0000
  Fe  Fe3       1.0  0.66400  0.33600  0.25000  1.0000
  Fe  Fe4       1.0  0.99700  0.00252  0.35100  1.0000
  Fe  Fe5       1.0  0.50000  0.50000  0.50000  1.0000
  Fe  Fe6       1.0  0.00252  0.99700  0.64900  1.0000
  Fe  Fe7       1.0  0.33600  0.66400  0.75000  1.0000
  Fe  Fe8       1.0  0.00252  0.99700  0.85100  1.0000
  O   O1        1.0  0.17800  0.34500  0.08170  1.0000
  O   O2        1.0  0.65500  0.82200  0.08170  1.0000
  O   O3        1.0  0.17200  0.82800  0.08410  1.0000
  O   O4        1.0  0.66500  0.33500  0.08550  1.0000
  O   O5        1.0  0.30100  0.15000  0.25000  1.0000
  O   O6        1.0  0.84800  0.15200  0.25000  1.0000
  O   O7        1.0  0.85000  0.69900  0.25000  1.0000
  O   O8        1.0  0.66500  0.33500  0.41500  1.0000
  O   O9        1.0  0.17200  0.82800  0.41600  1.0000
  O   O10       1.0  0.17800  0.34500  0.41800  1.0000
  O   O11       1.0  0.65500  0.82200  0.41800  1.0000
  O   O12       1.0  0.34500  0.17800  0.58200  1.0000
  O   O13       1.0  0.82200  0.65500  0.58200  1.0000
  O   O14       1.0  0.82800  0.17200  0.58400  1.0000
  O   O15       1.0  0.33500  0.66500  0.58600  1.0000
  O   O16       1.0  0.15000  0.30100  0.75000  1.0000
  O   O17       1.0  0.15200  0.84800  0.75000  1.0000
  O   O18       1.0  0.69900  0.85000  0.75000  1.0000
  O   O19       1.0  0.33500  0.66500  0.91500  1.0000
  O   O20       1.0  0.82800  0.17200  0.91600  1.0000
  O   O21       1.0  0.34500  0.17800  0.91800  1.0000
  O   O22       1.0  0.82200  0.65500  0.91800  1.0000
  Sn  Sn1       1.0  0.50000  0.00000  0.00000  1.0000
  Sn  Sn2       1.0  0.00000  0.50000  0.00000  1.0000
  Sn  Sn3       1.0  0.50000  0.00000  0.50000  1.0000
  Sn  Sn4       1.0  0.00000  0.50000  0.50000  1.0000
