data_image0
_chemical_formula_structural       Al24Ru8U6
_chemical_formula_sum              "Al24 Ru8 U6"
_cell_length_a       8.83094
_cell_length_b       8.83101
_cell_length_c       9.43823
_cell_angle_alpha    90
_cell_angle_beta     90
_cell_angle_gamma    120.002

_space_group_name_H-M_alt    "P 1"
_space_group_IT_number       1

loop_
  _space_group_symop_operation_xyz
  'x, y, z'

loop_
  _atom_site_type_symbol
  _atom_site_label
  _atom_site_symmetry_multiplicity
  _atom_site_fract_x
  _atom_site_fract_y
  _atom_site_fract_z
  _atom_site_occupancy
  Al  Al1       1.0  0.33300  0.66700  0.01410  1.0000
  Al  Al2       1.0  0.32200  0.16100  0.08030  1.0000
  Al  Al3       1.0  0.83900  0.67800  0.08030  1.0000
  Al  Al4       1.0  0.83900  0.16100  0.08040  1.0000
  Al  Al5       1.0  0.00000  0.00000  0.25000  1.0000
  Al  Al6       1.0  0.56200  0.12300  0.25000  1.0000
  Al  Al7       1.0  0.87700  0.43800  0.25000  1.0000
  Al  Al8       1.0  0.56200  0.43800  0.25000  1.0000
  Al  Al9       1.0  0.83900  0.16100  0.42000  1.0000
  Al  Al10      1.0  0.83900  0.67800  0.42000  1.0000
  Al  Al11      1.0  0.32200  0.16100  0.42000  1.0000
  Al  Al12      1.0  0.33300  0.66700  0.48600  1.0000
  Al  Al13      1.0  0.66700  0.33300  0.51400  1.0000
  Al  Al14      1.0  0.67800  0.83900  0.58000  1.0000
  Al  Al15      1.0  0.16100  0.32200  0.58000  1.0000
  Al  Al16      1.0  0.16100  0.83900  0.58000  1.0000
  Al  Al17      1.0  0.00000  0.00000  0.75000  1.0000
  Al  Al18      1.0  0.43800  0.56200  0.75000  1.0000
  Al  Al19      1.0  0.12300  0.56200  0.75000  1.0000
  Al  Al20      1.0  0.43800  0.87700  0.75000  1.0000
  Al  Al21      1.0  0.16100  0.83900  0.92000  1.0000
  Al  Al22      1.0  0.16100  0.32200  0.92000  1.0000
  Al  Al23      1.0  0.67800  0.83900  0.92000  1.0000
  Al  Al24      1.0  0.66700  0.33300  0.98600  1.0000
  Ru  Ru1       1.0  0.00000  0.00000  0.00000  1.0000
  Ru  Ru2       1.0  0.50000  0.00000  0.00000  1.0000
  Ru  Ru3       1.0  0.50000  0.50000  0.00000  1.0000
  Ru  Ru4       1.0  0.00000  0.50000  0.00000  1.0000
  Ru  Ru5       1.0  0.00000  0.00000  0.50000  1.0000
  Ru  Ru6       1.0  0.50000  0.00000  0.50000  1.0000
  Ru  Ru7       1.0  0.50000  0.50000  0.50000  1.0000
  Ru  Ru8       1.0  0.00000  0.50000  0.50000  1.0000
  U   U1        1.0  0.20200  0.40400  0.25000  1.0000
  U   U2        1.0  0.20200  0.79800  0.25000  1.0000
  U   U3        1.0  0.59600  0.79800  0.25000  1.0000
  U   U4        1.0  0.40400  0.20200  0.75000  1.0000
  U   U5        1.0  0.79800  0.20200  0.75000  1.0000
  U   U6        1.0  0.79800  0.59600  0.75000  1.0000
