data_image0
_chemical_formula_structural       Ce8S24Si6
_chemical_formula_sum              "Ce8 S24 Si6"
_cell_length_a       8.07002
_cell_length_b       11.5024
_cell_length_c       11.5024
_cell_angle_alpha    114.706
_cell_angle_beta     103.525
_cell_angle_gamma    103.525

_space_group_name_H-M_alt    "P 1"
_space_group_IT_number       1

loop_
  _space_group_symop_operation_xyz
  'x, y, z'

loop_
  _atom_site_type_symbol
  _atom_site_label
  _atom_site_symmetry_multiplicity
  _atom_site_fract_x
  _atom_site_fract_y
  _atom_site_fract_z
  _atom_site_occupancy
  Ce  Ce1       1.0  0.00198  0.00000  0.00000  1.0000
  Ce  Ce2       1.0  0.50200  0.00000  0.00000  1.0000
  Ce  Ce3       1.0  0.79300  0.76500  0.22600  1.0000
  Ce  Ce4       1.0  0.02770  0.46100  0.23500  1.0000
  Ce  Ce5       1.0  0.52800  0.23500  0.46100  1.0000
  Ce  Ce6       1.0  0.56700  0.77400  0.53900  1.0000
  Ce  Ce7       1.0  0.29300  0.22600  0.76500  1.0000
  Ce  Ce8       1.0  0.06710  0.53900  0.77400  1.0000
  S   S1        1.0  0.31800  0.19200  0.00605  1.0000
  S   S2        1.0  0.41400  0.71500  0.03460  1.0000
  S   S3        1.0  0.67900  0.46400  0.07230  1.0000
  S   S4        1.0  0.31200  0.99400  0.18600  1.0000
  S   S5        1.0  0.81800  0.00605  0.19200  1.0000
  S   S6        1.0  0.42300  0.53500  0.26700  1.0000
  S   S7        1.0  0.15600  0.73300  0.26800  1.0000
  S   S8        1.0  0.69800  0.31900  0.28500  1.0000
  S   S9        1.0  0.19800  0.28500  0.31900  1.0000
  S   S10       1.0  0.60600  0.92800  0.39200  1.0000
  S   S11       1.0  0.17900  0.07230  0.46400  1.0000
  S   S12       1.0  0.88800  0.73200  0.46500  1.0000
  S   S13       1.0  0.92300  0.26700  0.53500  1.0000
  S   S14       1.0  0.21400  0.60800  0.53600  1.0000
  S   S15       1.0  0.71400  0.53600  0.60800  1.0000
  S   S16       1.0  0.37900  0.96500  0.68100  1.0000
  S   S17       1.0  0.91400  0.03460  0.71500  1.0000
  S   S18       1.0  0.38800  0.46500  0.73200  1.0000
  S   S19       1.0  0.65600  0.26800  0.73300  1.0000
  S   S20       1.0  0.12600  0.81400  0.80800  1.0000
  S   S21       1.0  0.62600  0.80800  0.81400  1.0000
  S   S22       1.0  0.10600  0.39200  0.92800  1.0000
  S   S23       1.0  0.87900  0.68100  0.96500  1.0000
  S   S24       1.0  0.81200  0.18600  0.99400  1.0000
  Si  Si1       1.0  0.53300  0.38500  0.17200  1.0000
  Si  Si2       1.0  0.36100  0.82800  0.21300  1.0000
  Si  Si3       1.0  0.03330  0.17200  0.38500  1.0000
  Si  Si4       1.0  0.14800  0.78700  0.61500  1.0000
  Si  Si5       1.0  0.64800  0.61500  0.78700  1.0000
  Si  Si6       1.0  0.86100  0.21300  0.82800  1.0000
