data_image0
_chemical_formula_structural       NaO2Ti
_chemical_formula_sum              "Na1 O2 Ti1"
_cell_length_a       2.97139
_cell_length_b       2.97139
_cell_length_c       5.72559
_cell_angle_alpha    74.9606
_cell_angle_beta     105.039
_cell_angle_gamma    120

_space_group_name_H-M_alt    "P 1"
_space_group_IT_number       1

loop_
  _space_group_symop_operation_xyz
  'x, y, z'

loop_
  _atom_site_type_symbol
  _atom_site_label
  _atom_site_symmetry_multiplicity
  _atom_site_fract_x
  _atom_site_fract_y
  _atom_site_fract_z
  _atom_site_occupancy
  Na  Na1       1.0  0.00000  0.00000  0.00000  1.0000
  O   O1        1.0  0.76300  0.23700  0.28800  1.0000
  O   O2        1.0  0.23700  0.76300  0.71200  1.0000
  Ti  Ti1       1.0  0.50000  0.50000  0.50000  1.0000
