data_image0
_chemical_formula_structural       Cu2La4O24Se8
_chemical_formula_sum              "Cu2 La4 O24 Se8"
_cell_length_a       10.3866
_cell_length_b       7.09802
_cell_length_c       8.41093
_cell_angle_alpha    90
_cell_angle_beta     111.099
_cell_angle_gamma    90

_space_group_name_H-M_alt    "P 1"
_space_group_IT_number       1

loop_
  _space_group_symop_operation_xyz
  'x, y, z'

loop_
  _atom_site_type_symbol
  _atom_site_label
  _atom_site_symmetry_multiplicity
  _atom_site_fract_x
  _atom_site_fract_y
  _atom_site_fract_z
  _atom_site_occupancy
  Cu  Cu1       1.0  0.00000  0.00000  0.00000  1.0000
  Cu  Cu2       1.0  0.00000  0.50000  0.50000  1.0000
  La  La1       1.0  0.58100  0.66800  0.23500  1.0000
  La  La2       1.0  0.41900  0.16800  0.26500  1.0000
  La  La3       1.0  0.58100  0.83200  0.73500  1.0000
  La  La4       1.0  0.41900  0.33200  0.76500  1.0000
  O   O1        1.0  0.70300  0.71600  0.02640  1.0000
  O   O2        1.0  0.33800  0.88200  0.07130  1.0000
  O   O3        1.0  0.56500  0.34700  0.09430  1.0000
  O   O4        1.0  0.14700  0.12800  0.17500  1.0000
  O   O5        1.0  0.95200  0.88500  0.17800  1.0000
  O   O6        1.0  0.62500  0.01020  0.22300  1.0000
  O   O7        1.0  0.37500  0.51000  0.27700  1.0000
  O   O8        1.0  0.04810  0.38500  0.32200  1.0000
  O   O9        1.0  0.85300  0.62800  0.32500  1.0000
  O   O10       1.0  0.43500  0.84700  0.40600  1.0000
  O   O11       1.0  0.66200  0.38200  0.42900  1.0000
  O   O12       1.0  0.29700  0.21600  0.47400  1.0000
  O   O13       1.0  0.70300  0.78400  0.52600  1.0000
  O   O14       1.0  0.33800  0.61800  0.57100  1.0000
  O   O15       1.0  0.56500  0.15300  0.59400  1.0000
  O   O16       1.0  0.14700  0.37200  0.67500  1.0000
  O   O17       1.0  0.95200  0.61500  0.67800  1.0000
  O   O18       1.0  0.62500  0.49000  0.72300  1.0000
  O   O19       1.0  0.37500  0.99000  0.77700  1.0000
  O   O20       1.0  0.04810  0.11500  0.82200  1.0000
  O   O21       1.0  0.85300  0.87200  0.82500  1.0000
  O   O22       1.0  0.43500  0.65300  0.90600  1.0000
  O   O23       1.0  0.66200  0.11800  0.92900  1.0000
  O   O24       1.0  0.29700  0.28400  0.97400  1.0000
  Se  Se1       1.0  0.87500  0.66700  0.13000  1.0000
  Se  Se2       1.0  0.69900  0.18100  0.13600  1.0000
  Se  Se3       1.0  0.30100  0.68100  0.36400  1.0000
  Se  Se4       1.0  0.12500  0.16700  0.37000  1.0000
  Se  Se5       1.0  0.87500  0.83300  0.63000  1.0000
  Se  Se6       1.0  0.69900  0.31900  0.63600  1.0000
  Se  Se7       1.0  0.30100  0.81900  0.86400  1.0000
  Se  Se8       1.0  0.12500  0.33300  0.87000  1.0000
