data_image0
_chemical_formula_structural       H12O20P4Zr2
_chemical_formula_sum              "H12 O20 P4 Zr2"
_cell_length_a       5.30224
_cell_length_b       6.57132
_cell_length_c       11.887
_cell_angle_alpha    90
_cell_angle_beta     99.6722
_cell_angle_gamma    90

_space_group_name_H-M_alt    "P 1"
_space_group_IT_number       1

loop_
  _space_group_symop_operation_xyz
  'x, y, z'

loop_
  _atom_site_type_symbol
  _atom_site_label
  _atom_site_symmetry_multiplicity
  _atom_site_fract_x
  _atom_site_fract_y
  _atom_site_fract_z
  _atom_site_occupancy
  H   H1        1.0  0.82700  0.70000  0.28300  1.0000
  H   H2        1.0  0.50100  0.84200  0.32700  1.0000
  H   H3        1.0  0.86000  0.85600  0.38900  1.0000
  H   H4        1.0  0.97200  0.16600  0.40700  1.0000
  H   H5        1.0  0.95600  0.60400  0.46300  1.0000
  H   H6        1.0  0.64200  0.17800  0.47000  1.0000
  H   H7        1.0  0.35800  0.67800  0.53000  1.0000
  H   H8        1.0  0.04400  0.10400  0.53700  1.0000
  H   H9        1.0  0.02810  0.66600  0.59300  1.0000
  H   H10       1.0  0.14000  0.35600  0.61100  1.0000
  H   H11       1.0  0.49900  0.34200  0.67300  1.0000
  H   H12       1.0  0.17300  0.20000  0.71700  1.0000
  O   O1        1.0  0.45900  0.75900  0.01180  1.0000
  O   O2        1.0  0.09780  0.25400  0.03630  1.0000
  O   O3        1.0  0.81400  0.94700  0.13600  1.0000
  O   O4        1.0  0.81300  0.57600  0.14200  1.0000
  O   O5        1.0  0.54000  0.24800  0.24000  1.0000
  O   O6        1.0  0.09080  0.25100  0.28800  1.0000
  O   O7        1.0  0.33600  0.92700  0.30900  1.0000
  O   O8        1.0  0.77000  0.73100  0.35600  1.0000
  O   O9        1.0  0.46100  0.23300  0.44400  1.0000
  O   O10       1.0  0.91200  0.08170  0.46700  1.0000
  O   O11       1.0  0.08770  0.58200  0.53300  1.0000
  O   O12       1.0  0.53900  0.73300  0.55600  1.0000
  O   O13       1.0  0.23000  0.23100  0.64400  1.0000
  O   O14       1.0  0.66400  0.42700  0.69100  1.0000
  O   O15       1.0  0.90900  0.75100  0.71200  1.0000
  O   O16       1.0  0.46000  0.74800  0.76000  1.0000
  O   O17       1.0  0.18700  0.07650  0.85800  1.0000
  O   O18       1.0  0.18600  0.44700  0.86400  1.0000
  O   O19       1.0  0.90200  0.75400  0.96400  1.0000
  O   O20       1.0  0.54100  0.25900  0.98800  1.0000
  P   P1        1.0  0.74600  0.76000  0.06110  1.0000
  P   P2        1.0  0.36300  0.16500  0.31800  1.0000
  P   P3        1.0  0.63700  0.66500  0.68200  1.0000
  P   P4        1.0  0.25400  0.26000  0.93900  1.0000
  Zr  Zr1       1.0  0.81400  0.26000  0.13400  1.0000
  Zr  Zr2       1.0  0.18600  0.76000  0.86600  1.0000
