data_image0
_chemical_formula_structural       Co28La8
_chemical_formula_sum              "Co28 La8"
_cell_length_a       5.03576
_cell_length_b       5.03792
_cell_length_c       24.456
_cell_angle_alpha    90
_cell_angle_beta     90
_cell_angle_gamma    119.986

_space_group_name_H-M_alt    "P 1"
_space_group_IT_number       1

loop_
  _space_group_symop_operation_xyz
  'x, y, z'

loop_
  _atom_site_type_symbol
  _atom_site_label
  _atom_site_symmetry_multiplicity
  _atom_site_fract_x
  _atom_site_fract_y
  _atom_site_fract_z
  _atom_site_occupancy
  Co  Co1       1.0  0.00000  0.00000  0.00000  1.0000
  Co  Co2       1.0  0.33100  0.16600  0.08850  1.0000
  Co  Co3       1.0  0.83500  0.16600  0.08850  1.0000
  Co  Co4       1.0  0.83600  0.67200  0.08860  1.0000
  Co  Co5       1.0  0.66800  0.33600  0.16800  1.0000
  Co  Co6       1.0  0.00222  0.00444  0.16900  1.0000
  Co  Co7       1.0  0.33500  0.17100  0.25000  1.0000
  Co  Co8       1.0  0.83600  0.17100  0.25000  1.0000
  Co  Co9       1.0  0.83600  0.67100  0.25000  1.0000
  Co  Co10      1.0  0.00222  0.00444  0.33100  1.0000
  Co  Co11      1.0  0.66800  0.33600  0.33200  1.0000
  Co  Co12      1.0  0.83600  0.67200  0.41100  1.0000
  Co  Co13      1.0  0.33100  0.16600  0.41100  1.0000
  Co  Co14      1.0  0.83500  0.16600  0.41100  1.0000
  Co  Co15      1.0  0.00000  0.00000  0.50000  1.0000
  Co  Co16      1.0  0.16500  0.83400  0.58900  1.0000
  Co  Co17      1.0  0.66900  0.83400  0.58900  1.0000
  Co  Co18      1.0  0.16400  0.32800  0.58900  1.0000
  Co  Co19      1.0  0.33200  0.66400  0.66800  1.0000
  Co  Co20      1.0  0.99800  0.99600  0.66900  1.0000
  Co  Co21      1.0  0.16400  0.32900  0.75000  1.0000
  Co  Co22      1.0  0.16400  0.82900  0.75000  1.0000
  Co  Co23      1.0  0.66500  0.82900  0.75000  1.0000
  Co  Co24      1.0  0.99800  0.99600  0.83100  1.0000
  Co  Co25      1.0  0.33200  0.66400  0.83200  1.0000
  Co  Co26      1.0  0.16400  0.32800  0.91100  1.0000
  Co  Co27      1.0  0.16500  0.83400  0.91100  1.0000
  Co  Co28      1.0  0.66900  0.83400  0.91100  1.0000
  La  La1       1.0  0.33400  0.66700  0.02800  1.0000
  La  La2       1.0  0.33500  0.67000  0.17200  1.0000
  La  La3       1.0  0.33500  0.67000  0.32800  1.0000
  La  La4       1.0  0.33400  0.66700  0.47200  1.0000
  La  La5       1.0  0.66600  0.33300  0.52800  1.0000
  La  La6       1.0  0.66500  0.33000  0.67200  1.0000
  La  La7       1.0  0.66500  0.33000  0.82800  1.0000
  La  La8       1.0  0.66600  0.33300  0.97200  1.0000
