data_image0
_chemical_formula_structural       Dy18O10Sb10
_chemical_formula_sum              "Dy18 O10 Sb10"
_cell_length_a       9.83005
_cell_length_b       9.83005
_cell_length_c       8.83473
_cell_angle_alpha    90
_cell_angle_beta     90
_cell_angle_gamma    90

_space_group_name_H-M_alt    "P 1"
_space_group_IT_number       1

loop_
  _space_group_symop_operation_xyz
  'x, y, z'

loop_
  _atom_site_type_symbol
  _atom_site_label
  _atom_site_symmetry_multiplicity
  _atom_site_fract_x
  _atom_site_fract_y
  _atom_site_fract_z
  _atom_site_occupancy
  Dy  Dy1       1.0  0.83300  0.52400  0.00192  1.0000
  Dy  Dy2       1.0  0.52400  0.66700  0.00192  1.0000
  Dy  Dy3       1.0  0.97600  0.83300  0.00192  1.0000
  Dy  Dy4       1.0  0.66700  0.97600  0.00192  1.0000
  Dy  Dy5       1.0  0.25000  0.25000  0.32900  1.0000
  Dy  Dy6       1.0  0.85400  0.04470  0.34300  1.0000
  Dy  Dy7       1.0  0.64600  0.45500  0.34300  1.0000
  Dy  Dy8       1.0  0.04470  0.64600  0.34300  1.0000
  Dy  Dy9       1.0  0.45500  0.85400  0.34300  1.0000
  Dy  Dy10      1.0  0.54500  0.14600  0.65700  1.0000
  Dy  Dy11      1.0  0.95500  0.35400  0.65700  1.0000
  Dy  Dy12      1.0  0.35400  0.54500  0.65700  1.0000
  Dy  Dy13      1.0  0.14600  0.95500  0.65700  1.0000
  Dy  Dy14      1.0  0.75000  0.75000  0.67100  1.0000
  Dy  Dy15      1.0  0.33300  0.02420  0.99800  1.0000
  Dy  Dy16      1.0  0.02420  0.16700  0.99800  1.0000
  Dy  Dy17      1.0  0.47600  0.33300  0.99800  1.0000
  Dy  Dy18      1.0  0.16700  0.47600  0.99800  1.0000
  O   O1        1.0  0.25000  0.25000  0.06390  1.0000
  O   O2        1.0  0.87000  0.02550  0.08720  1.0000
  O   O3        1.0  0.63000  0.47400  0.08720  1.0000
  O   O4        1.0  0.02550  0.63000  0.08720  1.0000
  O   O5        1.0  0.47400  0.87000  0.08720  1.0000
  O   O6        1.0  0.52600  0.13000  0.91300  1.0000
  O   O7        1.0  0.97400  0.37000  0.91300  1.0000
  O   O8        1.0  0.37000  0.52600  0.91300  1.0000
  O   O9        1.0  0.13000  0.97400  0.91300  1.0000
  O   O10       1.0  0.75000  0.75000  0.93600  1.0000
  Sb  Sb1       1.0  0.55500  0.15400  0.30200  1.0000
  Sb  Sb2       1.0  0.94500  0.34600  0.30200  1.0000
  Sb  Sb3       1.0  0.34600  0.55500  0.30200  1.0000
  Sb  Sb4       1.0  0.15400  0.94500  0.30200  1.0000
  Sb  Sb5       1.0  0.75000  0.75000  0.31800  1.0000
  Sb  Sb6       1.0  0.25000  0.25000  0.68200  1.0000
  Sb  Sb7       1.0  0.84600  0.05460  0.69800  1.0000
  Sb  Sb8       1.0  0.65400  0.44500  0.69800  1.0000
  Sb  Sb9       1.0  0.05460  0.65400  0.69800  1.0000
  Sb  Sb10      1.0  0.44500  0.84600  0.69800  1.0000
