data_image0
_chemical_formula_structural       Cl4CsH18N6O8Ru
_chemical_formula_sum              "Cl4 Cs1 H18 N6 O8 Ru1"
_cell_length_a       7.19138
_cell_length_b       7.19138
_cell_length_c       9.87748
_cell_angle_alpha    68.6521
_cell_angle_beta     111.348
_cell_angle_gamma    120

_space_group_name_H-M_alt    "P 1"
_space_group_IT_number       1

loop_
  _space_group_symop_operation_xyz
  'x, y, z'

loop_
  _atom_site_type_symbol
  _atom_site_label
  _atom_site_symmetry_multiplicity
  _atom_site_fract_x
  _atom_site_fract_y
  _atom_site_fract_z
  _atom_site_occupancy
  Cl  Cl1       1.0  0.36900  0.63100  0.10800  1.0000
  Cl  Cl2       1.0  0.81200  0.18800  0.43500  1.0000
  Cl  Cl3       1.0  0.18800  0.81200  0.56500  1.0000
  Cl  Cl4       1.0  0.63100  0.36900  0.89200  1.0000
  Cs  Cs1       1.0  0.50000  0.50000  0.50000  1.0000
  H   H1        1.0  0.82600  0.56100  0.08540  1.0000
  H   H2        1.0  0.82000  0.17400  0.08540  1.0000
  H   H3        1.0  0.43900  0.18000  0.08540  1.0000
  H   H4        1.0  0.71200  0.90600  0.15100  1.0000
  H   H5        1.0  0.34500  0.28800  0.15100  1.0000
  H   H6        1.0  0.09420  0.65500  0.15100  1.0000
  H   H7        1.0  0.93800  0.65700  0.23900  1.0000
  H   H8        1.0  0.34300  0.04170  0.23900  1.0000
  H   H9        1.0  0.95800  0.06160  0.23900  1.0000
  H   H10       1.0  0.65700  0.95800  0.76100  1.0000
  H   H11       1.0  0.06160  0.34300  0.76100  1.0000
  H   H12       1.0  0.04170  0.93800  0.76100  1.0000
  H   H13       1.0  0.90600  0.34500  0.84900  1.0000
  H   H14       1.0  0.65500  0.71200  0.84900  1.0000
  H   H15       1.0  0.28800  0.09420  0.84900  1.0000
  H   H16       1.0  0.56100  0.82000  0.91500  1.0000
  H   H17       1.0  0.18000  0.82600  0.91500  1.0000
  H   H18       1.0  0.17400  0.43900  0.91500  1.0000
  N   N1        1.0  0.85900  0.04070  0.13500  1.0000
  N   N2        1.0  0.31700  0.14100  0.13500  1.0000
  N   N3        1.0  0.95900  0.68300  0.13500  1.0000
  N   N4        1.0  0.68300  0.85900  0.86500  1.0000
  N   N5        1.0  0.14100  0.95900  0.86500  1.0000
  N   N6        1.0  0.04070  0.31700  0.86500  1.0000
  O   O1        1.0  0.72200  0.35200  0.38000  1.0000
  O   O2        1.0  0.64800  0.99000  0.38000  1.0000
  O   O3        1.0  0.00955  0.27800  0.38000  1.0000
  O   O4        1.0  0.13400  0.86600  0.40300  1.0000
  O   O5        1.0  0.86600  0.13400  0.59700  1.0000
  O   O6        1.0  0.99000  0.72200  0.62000  1.0000
  O   O7        1.0  0.35200  0.00955  0.62000  1.0000
  O   O8        1.0  0.27800  0.64800  0.62000  1.0000
  Ru  Ru1       1.0  0.00000  0.00000  0.00000  1.0000
