data_image0
_chemical_formula_structural       B2C8Cr2F10H12N4
_chemical_formula_sum              "B2 C8 Cr2 F10 H12 N4"
_cell_length_a       6.89004
_cell_length_b       7.647
_cell_length_c       7.647
_cell_angle_alpha    81.6217
_cell_angle_beta     92.9688
_cell_angle_gamma    92.9688

_space_group_name_H-M_alt    "P 1"
_space_group_IT_number       1

loop_
  _space_group_symop_operation_xyz
  'x, y, z'

loop_
  _atom_site_type_symbol
  _atom_site_label
  _atom_site_symmetry_multiplicity
  _atom_site_fract_x
  _atom_site_fract_y
  _atom_site_fract_z
  _atom_site_occupancy
  B   B1        1.0  0.25000  0.69900  0.30100  1.0000
  B   B2        1.0  0.75000  0.30100  0.69900  1.0000
  C   C1        1.0  0.64500  0.34400  0.15100  1.0000
  C   C2        1.0  0.74300  0.50400  0.18800  1.0000
  C   C3        1.0  0.14500  0.15100  0.34400  1.0000
  C   C4        1.0  0.75700  0.81200  0.49600  1.0000
  C   C5        1.0  0.24300  0.18800  0.50400  1.0000
  C   C6        1.0  0.85500  0.84900  0.65600  1.0000
  C   C7        1.0  0.25700  0.49600  0.81200  1.0000
  C   C8        1.0  0.35500  0.65600  0.84900  1.0000
  Cr  Cr1       1.0  0.00000  0.00000  0.00000  1.0000
  Cr  Cr2       1.0  0.50000  0.00000  0.00000  1.0000
  F   F1        1.0  0.75000  0.90800  0.09160  1.0000
  F   F2        1.0  0.10400  0.72600  0.16300  1.0000
  F   F3        1.0  0.39600  0.83700  0.27400  1.0000
  F   F4        1.0  0.33100  0.53500  0.29600  1.0000
  F   F5        1.0  0.16900  0.70400  0.46500  1.0000
  F   F6        1.0  0.83100  0.29600  0.53500  1.0000
  F   F7        1.0  0.66900  0.46500  0.70400  1.0000
  F   F8        1.0  0.60400  0.16300  0.72600  1.0000
  F   F9        1.0  0.89600  0.27400  0.83700  1.0000
  F   F10       1.0  0.25000  0.09160  0.90800  1.0000
  H   H1        1.0  0.81800  0.56800  0.07040  1.0000
  H   H2        1.0  0.63700  0.59300  0.22300  1.0000
  H   H3        1.0  0.84900  0.47400  0.29900  1.0000
  H   H4        1.0  0.86300  0.77700  0.40700  1.0000
  H   H5        1.0  0.68200  0.93000  0.43200  1.0000
  H   H6        1.0  0.34900  0.29900  0.47400  1.0000
  H   H7        1.0  0.65100  0.70100  0.52600  1.0000
  H   H8        1.0  0.31800  0.07040  0.56800  1.0000
  H   H9        1.0  0.13700  0.22300  0.59300  1.0000
  H   H10       1.0  0.15100  0.52600  0.70100  1.0000
  H   H11       1.0  0.36300  0.40700  0.77700  1.0000
  H   H12       1.0  0.18200  0.43200  0.93000  1.0000
  N   N1        1.0  0.56600  0.21500  0.11800  1.0000
  N   N2        1.0  0.06630  0.11800  0.21500  1.0000
  N   N3        1.0  0.93400  0.88200  0.78500  1.0000
  N   N4        1.0  0.43400  0.78500  0.88200  1.0000
