data_image0
_chemical_formula_structural       O26Re4Sb8
_chemical_formula_sum              "O26 Re4 Sb8"
_cell_length_a       9.89502
_cell_length_b       9.3158
_cell_length_c       7.61534
_cell_angle_alpha    115.093
_cell_angle_beta     111.015
_cell_angle_gamma    90.1237

_space_group_name_H-M_alt    "P 1"
_space_group_IT_number       1

loop_
  _space_group_symop_operation_xyz
  'x, y, z'

loop_
  _atom_site_type_symbol
  _atom_site_label
  _atom_site_symmetry_multiplicity
  _atom_site_fract_x
  _atom_site_fract_y
  _atom_site_fract_z
  _atom_site_occupancy
  O   O1        1.0  0.50000  0.69200  0.06830  1.0000
  O   O2        1.0  0.85300  0.65600  0.14000  1.0000
  O   O3        1.0  0.80200  0.30400  0.15700  1.0000
  O   O4        1.0  0.99300  0.09740  0.16700  1.0000
  O   O5        1.0  0.29500  0.02330  0.16900  1.0000
  O   O6        1.0  0.27400  0.66000  0.22100  1.0000
  O   O7        1.0  0.08330  0.43400  0.22700  1.0000
  O   O8        1.0  0.58300  0.18500  0.24300  1.0000
  O   O9        1.0  0.37100  0.37800  0.24300  1.0000
  O   O10       1.0  0.66500  0.53000  0.37200  1.0000
  O   O11       1.0  0.59300  0.00667  0.43200  1.0000
  O   O12       1.0  0.80300  0.86400  0.49000  1.0000
  O   O13       1.0  0.88900  0.15100  0.49600  1.0000
  O   O14       1.0  0.11100  0.84900  0.50400  1.0000
  O   O15       1.0  0.19700  0.13600  0.51000  1.0000
  O   O16       1.0  0.40700  0.99300  0.56800  1.0000
  O   O17       1.0  0.33500  0.47000  0.62800  1.0000
  O   O18       1.0  0.62900  0.62200  0.75700  1.0000
  O   O19       1.0  0.41700  0.81500  0.75700  1.0000
  O   O20       1.0  0.91700  0.56600  0.77300  1.0000
  O   O21       1.0  0.72600  0.34000  0.77900  1.0000
  O   O22       1.0  0.70500  0.97700  0.83100  1.0000
  O   O23       1.0  0.00699  0.90300  0.83300  1.0000
  O   O24       1.0  0.19800  0.69600  0.84300  1.0000
  O   O25       1.0  0.14700  0.34400  0.86000  1.0000
  O   O26       1.0  0.50000  0.30800  0.93200  1.0000
  Re  Re1       1.0  0.21900  0.45600  0.13800  1.0000
  Re  Re2       1.0  0.63100  0.33300  0.17500  1.0000
  Re  Re3       1.0  0.36900  0.66700  0.82500  1.0000
  Re  Re4       1.0  0.78100  0.54400  0.86200  1.0000
  Sb  Sb1       1.0  0.11100  0.90500  0.12700  1.0000
  Sb  Sb2       1.0  0.73200  0.96000  0.28100  1.0000
  Sb  Sb3       1.0  0.44100  0.16300  0.46100  1.0000
  Sb  Sb4       1.0  0.04130  0.27500  0.47600  1.0000
  Sb  Sb5       1.0  0.95900  0.72500  0.52400  1.0000
  Sb  Sb6       1.0  0.55900  0.83700  0.53900  1.0000
  Sb  Sb7       1.0  0.26800  0.04030  0.71900  1.0000
  Sb  Sb8       1.0  0.88900  0.09530  0.87300  1.0000
