data_image0
_chemical_formula_structural       Cd2Cr4H8O20Rb4
_chemical_formula_sum              "Cd2 Cr4 H8 O20 Rb4"
_cell_length_a       6.74463
_cell_length_b       7.57466
_cell_length_c       11.2707
_cell_angle_alpha    72.9225
_cell_angle_beta     75.3076
_cell_angle_gamma    69.6923

_space_group_name_H-M_alt    "P 1"
_space_group_IT_number       1

loop_
  _space_group_symop_operation_xyz
  'x, y, z'

loop_
  _atom_site_type_symbol
  _atom_site_label
  _atom_site_symmetry_multiplicity
  _atom_site_fract_x
  _atom_site_fract_y
  _atom_site_fract_z
  _atom_site_occupancy
  Cd  Cd1       1.0  0.24700  0.03190  0.25300  1.0000
  Cd  Cd2       1.0  0.75300  0.96800  0.74700  1.0000
  Cr  Cr1       1.0  0.73200  0.77300  0.08820  1.0000
  Cr  Cr2       1.0  0.73000  0.23000  0.42300  1.0000
  Cr  Cr3       1.0  0.27000  0.77000  0.57700  1.0000
  Cr  Cr4       1.0  0.26800  0.22700  0.91200  1.0000
  H   H1        1.0  0.35600  0.69000  0.19600  1.0000
  H   H2        1.0  0.15200  0.43800  0.20500  1.0000
  H   H3        1.0  0.34700  0.35100  0.28700  1.0000
  H   H4        1.0  0.31000  0.62600  0.34200  1.0000
  H   H5        1.0  0.69000  0.37400  0.65800  1.0000
  H   H6        1.0  0.65300  0.64900  0.71300  1.0000
  H   H7        1.0  0.84800  0.56200  0.79500  1.0000
  H   H8        1.0  0.64400  0.31000  0.80400  1.0000
  O   O1        1.0  0.18800  0.09540  0.05170  1.0000
  O   O2        1.0  0.56100  0.66800  0.07830  1.0000
  O   O3        1.0  0.94300  0.60700  0.14200  1.0000
  O   O4        1.0  0.61200  0.91900  0.18800  1.0000
  O   O5        1.0  0.28600  0.33000  0.22200  1.0000
  O   O6        1.0  0.24200  0.71900  0.27000  1.0000
  O   O7        1.0  0.88500  0.12000  0.30800  1.0000
  O   O8        1.0  0.50100  0.37600  0.37600  1.0000
  O   O9        1.0  0.32600  0.93900  0.45100  1.0000
  O   O10       1.0  0.85700  0.35100  0.45900  1.0000
  O   O11       1.0  0.14300  0.64900  0.54100  1.0000
  O   O12       1.0  0.67400  0.06070  0.54900  1.0000
  O   O13       1.0  0.49900  0.62400  0.62400  1.0000
  O   O14       1.0  0.11500  0.88000  0.69200  1.0000
  O   O15       1.0  0.75800  0.28100  0.73000  1.0000
  O   O16       1.0  0.71400  0.67000  0.77800  1.0000
  O   O17       1.0  0.38800  0.08100  0.81200  1.0000
  O   O18       1.0  0.05690  0.39300  0.85800  1.0000
  O   O19       1.0  0.43900  0.33200  0.92200  1.0000
  O   O20       1.0  0.81200  0.90500  0.94800  1.0000
  Rb  Rb1       1.0  0.73600  0.27100  0.07430  1.0000
  Rb  Rb2       1.0  0.80100  0.75000  0.40400  1.0000
  Rb  Rb3       1.0  0.19900  0.25000  0.59600  1.0000
  Rb  Rb4       1.0  0.26400  0.72900  0.92600  1.0000
