data_image0
_chemical_formula_structural       Ag2C10Cs4N10S10Zn2
_chemical_formula_sum              "Ag2 C10 Cs4 N10 S10 Zn2"
_cell_length_a       10.8542
_cell_length_b       5.91341
_cell_length_c       13.3356
_cell_angle_alpha    90
_cell_angle_beta     90
_cell_angle_gamma    90

_space_group_name_H-M_alt    "P 1"
_space_group_IT_number       1

loop_
  _space_group_symop_operation_xyz
  'x, y, z'

loop_
  _atom_site_type_symbol
  _atom_site_label
  _atom_site_symmetry_multiplicity
  _atom_site_fract_x
  _atom_site_fract_y
  _atom_site_fract_z
  _atom_site_occupancy
  Ag  Ag1       1.0  0.00000  0.47700  0.43600  1.0000
  Ag  Ag2       1.0  0.50000  0.52300  0.93600  1.0000
  C   C1        1.0  0.21000  0.62800  0.01530  1.0000
  C   C2        1.0  0.79000  0.62800  0.01530  1.0000
  C   C3        1.0  0.50000  0.98300  0.03970  1.0000
  C   C4        1.0  0.00000  0.35600  0.18300  1.0000
  C   C5        1.0  0.50000  0.64900  0.35000  1.0000
  C   C6        1.0  0.29000  0.37200  0.51500  1.0000
  C   C7        1.0  0.71000  0.37200  0.51500  1.0000
  C   C8        1.0  0.00000  0.01720  0.54000  1.0000
  C   C9        1.0  0.50000  0.64400  0.68300  1.0000
  C   C10       1.0  0.00000  0.35100  0.85000  1.0000
  Cs  Cs1       1.0  0.26800  0.99300  0.25800  1.0000
  Cs  Cs2       1.0  0.73200  0.99300  0.25800  1.0000
  Cs  Cs3       1.0  0.23200  0.00713  0.75800  1.0000
  Cs  Cs4       1.0  0.76800  0.00713  0.75800  1.0000
  N   N1        1.0  0.14800  0.79300  0.01700  1.0000
  N   N2        1.0  0.85200  0.79300  0.01700  1.0000
  N   N3        1.0  0.50000  0.00093  0.12800  1.0000
  N   N4        1.0  0.00000  0.17900  0.14100  1.0000
  N   N5        1.0  0.50000  0.81000  0.40400  1.0000
  N   N6        1.0  0.35200  0.20700  0.51700  1.0000
  N   N7        1.0  0.64800  0.20700  0.51700  1.0000
  N   N8        1.0  0.00000  0.99900  0.62800  1.0000
  N   N9        1.0  0.50000  0.82100  0.64100  1.0000
  N   N10       1.0  0.00000  0.19000  0.90400  1.0000
  S   S1        1.0  0.29400  0.40200  0.01600  1.0000
  S   S2        1.0  0.70600  0.40200  0.01600  1.0000
  S   S3        1.0  0.00000  0.59100  0.24500  1.0000
  S   S4        1.0  0.50000  0.44700  0.27000  1.0000
  S   S5        1.0  0.00000  0.04020  0.41700  1.0000
  S   S6        1.0  0.20600  0.59800  0.51600  1.0000
  S   S7        1.0  0.79400  0.59800  0.51600  1.0000
  S   S8        1.0  0.50000  0.40900  0.74500  1.0000
  S   S9        1.0  0.00000  0.55300  0.77000  1.0000
  S   S10       1.0  0.50000  0.96000  0.91700  1.0000
  Zn  Zn1       1.0  0.00000  0.98600  0.01890  1.0000
  Zn  Zn2       1.0  0.50000  0.01450  0.51900  1.0000
