data_image0
_chemical_formula_structural       P8S26V4
_chemical_formula_sum              "P8 S26 V4"
_cell_length_a       9.22562
_cell_length_b       9.7597
_cell_length_c       11.7185
_cell_angle_alpha    72.6651
_cell_angle_beta     109.633
_cell_angle_gamma    109.659

_space_group_name_H-M_alt    "P 1"
_space_group_IT_number       1

loop_
  _space_group_symop_operation_xyz
  'x, y, z'

loop_
  _atom_site_type_symbol
  _atom_site_label
  _atom_site_symmetry_multiplicity
  _atom_site_fract_x
  _atom_site_fract_y
  _atom_site_fract_z
  _atom_site_occupancy
  P   P1        1.0  0.87200  0.23300  0.02350  1.0000
  P   P2        1.0  0.77400  0.93600  0.24800  1.0000
  P   P3        1.0  0.75800  0.57000  0.27500  1.0000
  P   P4        1.0  0.50100  0.25600  0.39200  1.0000
  P   P5        1.0  0.49900  0.74400  0.60800  1.0000
  P   P6        1.0  0.24200  0.43000  0.72500  1.0000
  P   P7        1.0  0.22600  0.06450  0.75200  1.0000
  P   P8        1.0  0.12800  0.76700  0.97600  1.0000
  S   S1        1.0  0.69800  0.29700  0.04720  1.0000
  S   S2        1.0  0.85500  0.00107  0.08320  1.0000
  S   S3        1.0  0.67900  0.60900  0.08990  1.0000
  S   S4        1.0  0.08200  0.36700  0.11200  1.0000
  S   S5        1.0  0.11700  0.72800  0.15300  1.0000
  S   S6        1.0  0.53700  0.86900  0.21900  1.0000
  S   S7        1.0  0.48300  0.17800  0.24500  1.0000
  S   S8        1.0  0.91300  0.44400  0.32700  1.0000
  S   S9        1.0  0.89400  0.76400  0.34900  1.0000
  S   S10       1.0  0.86300  0.08500  0.35700  1.0000
  S   S11       1.0  0.57400  0.49300  0.36900  1.0000
  S   S12       1.0  0.29800  0.20300  0.44300  1.0000
  S   S13       1.0  0.34700  0.84800  0.46100  1.0000
  S   S14       1.0  0.65300  0.15200  0.53900  1.0000
  S   S15       1.0  0.70200  0.79700  0.55700  1.0000
  S   S16       1.0  0.42600  0.50700  0.63100  1.0000
  S   S17       1.0  0.13700  0.91500  0.64300  1.0000
  S   S18       1.0  0.10600  0.23600  0.65100  1.0000
  S   S19       1.0  0.08690  0.55600  0.67300  1.0000
  S   S20       1.0  0.51700  0.82200  0.75500  1.0000
  S   S21       1.0  0.46300  0.13100  0.78100  1.0000
  S   S22       1.0  0.88300  0.27200  0.84700  1.0000
  S   S23       1.0  0.91800  0.63300  0.88800  1.0000
  S   S24       1.0  0.32100  0.39100  0.91000  1.0000
  S   S25       1.0  0.14500  0.99900  0.91700  1.0000
  S   S26       1.0  0.30200  0.70300  0.95300  1.0000
  V   V1        1.0  0.89800  0.51000  0.10700  1.0000
  V   V2        1.0  0.60000  0.98800  0.39300  1.0000
  V   V3        1.0  0.40000  0.01240  0.60700  1.0000
  V   V4        1.0  0.10200  0.49000  0.89300  1.0000
