data_image0
_chemical_formula_structural       Cl4CrCsH18N6O8
_chemical_formula_sum              "Cl4 Cr1 Cs1 H18 N6 O8"
_cell_length_a       7.16316
_cell_length_b       7.16316
_cell_length_c       9.88787
_cell_angle_alpha    68.7634
_cell_angle_beta     111.237
_cell_angle_gamma    120

_space_group_name_H-M_alt    "P 1"
_space_group_IT_number       1

loop_
  _space_group_symop_operation_xyz
  'x, y, z'

loop_
  _atom_site_type_symbol
  _atom_site_label
  _atom_site_symmetry_multiplicity
  _atom_site_fract_x
  _atom_site_fract_y
  _atom_site_fract_z
  _atom_site_occupancy
  Cl  Cl1       1.0  0.37100  0.62900  0.11300  1.0000
  Cl  Cl2       1.0  0.81100  0.18900  0.43400  1.0000
  Cl  Cl3       1.0  0.18900  0.81100  0.56600  1.0000
  Cl  Cl4       1.0  0.62900  0.37100  0.88700  1.0000
  Cr  Cr1       1.0  0.00000  0.00000  0.00000  1.0000
  Cs  Cs1       1.0  0.50000  0.50000  0.50000  1.0000
  H   H1        1.0  0.43700  0.18500  0.07500  1.0000
  H   H2        1.0  0.81500  0.17700  0.07500  1.0000
  H   H3        1.0  0.82300  0.56300  0.07500  1.0000
  H   H4        1.0  0.08720  0.65300  0.15500  1.0000
  H   H5        1.0  0.34700  0.27900  0.15500  1.0000
  H   H6        1.0  0.72100  0.91300  0.15500  1.0000
  H   H7        1.0  0.96500  0.08490  0.23200  1.0000
  H   H8        1.0  0.35200  0.03510  0.23200  1.0000
  H   H9        1.0  0.91500  0.64800  0.23200  1.0000
  H   H10       1.0  0.03510  0.91500  0.76800  1.0000
  H   H11       1.0  0.08490  0.35200  0.76800  1.0000
  H   H12       1.0  0.64800  0.96500  0.76800  1.0000
  H   H13       1.0  0.27900  0.08720  0.84500  1.0000
  H   H14       1.0  0.65300  0.72100  0.84500  1.0000
  H   H15       1.0  0.91300  0.34700  0.84500  1.0000
  H   H16       1.0  0.17700  0.43700  0.92500  1.0000
  H   H17       1.0  0.18500  0.82300  0.92500  1.0000
  H   H18       1.0  0.56300  0.81500  0.92500  1.0000
  N   N1        1.0  0.95000  0.68200  0.13200  1.0000
  N   N2        1.0  0.31800  0.13600  0.13200  1.0000
  N   N3        1.0  0.86400  0.05020  0.13200  1.0000
  N   N4        1.0  0.05020  0.31800  0.86800  1.0000
  N   N5        1.0  0.13600  0.95000  0.86800  1.0000
  N   N6        1.0  0.68200  0.86400  0.86800  1.0000
  O   O1        1.0  0.01020  0.27700  0.37900  1.0000
  O   O2        1.0  0.64600  0.99000  0.37900  1.0000
  O   O3        1.0  0.72300  0.35400  0.37900  1.0000
  O   O4        1.0  0.13400  0.86600  0.40300  1.0000
  O   O5        1.0  0.86600  0.13400  0.59700  1.0000
  O   O6        1.0  0.27700  0.64600  0.62100  1.0000
  O   O7        1.0  0.35400  0.01020  0.62100  1.0000
  O   O8        1.0  0.99000  0.72300  0.62100  1.0000
