data_image0
_chemical_formula_structural       Br2Cl2CrCsH18N6O8
_chemical_formula_sum              "Br2 Cl2 Cr1 Cs1 H18 N6 O8"
_cell_length_a       7.24615
_cell_length_b       7.24615
_cell_length_c       9.97895
_cell_angle_alpha    68.711
_cell_angle_beta     111.289
_cell_angle_gamma    120

_space_group_name_H-M_alt    "P 1"
_space_group_IT_number       1

loop_
  _space_group_symop_operation_xyz
  'x, y, z'

loop_
  _atom_site_type_symbol
  _atom_site_label
  _atom_site_symmetry_multiplicity
  _atom_site_fract_x
  _atom_site_fract_y
  _atom_site_fract_z
  _atom_site_occupancy
  Br  Br1       1.0  0.37100  0.62900  0.11400  1.0000
  Br  Br2       1.0  0.62900  0.37100  0.88600  1.0000
  Cl  Cl1       1.0  0.81100  0.18900  0.43300  1.0000
  Cl  Cl2       1.0  0.18900  0.81100  0.56700  1.0000
  Cr  Cr1       1.0  0.00000  0.00000  0.00000  1.0000
  Cs  Cs1       1.0  0.50000  0.50000  0.50000  1.0000
  H   H1        1.0  0.43200  0.14200  0.08870  1.0000
  H   H2        1.0  0.85800  0.20100  0.08870  1.0000
  H   H3        1.0  0.79900  0.56800  0.08870  1.0000
  H   H4        1.0  0.35500  0.26800  0.15100  1.0000
  H   H5        1.0  0.06370  0.64500  0.15100  1.0000
  H   H6        1.0  0.73200  0.93600  0.15100  1.0000
  H   H7        1.0  0.33300  0.01970  0.24000  1.0000
  H   H8        1.0  0.98000  0.07330  0.24000  1.0000
  H   H9        1.0  0.92700  0.66700  0.24000  1.0000
  H   H10       1.0  0.07330  0.33300  0.76000  1.0000
  H   H11       1.0  0.01970  0.92700  0.76000  1.0000
  H   H12       1.0  0.66700  0.98000  0.76000  1.0000
  H   H13       1.0  0.26800  0.06370  0.84900  1.0000
  H   H14       1.0  0.93600  0.35500  0.84900  1.0000
  H   H15       1.0  0.64500  0.73200  0.84900  1.0000
  H   H16       1.0  0.20100  0.43200  0.91100  1.0000
  H   H17       1.0  0.14200  0.79900  0.91100  1.0000
  H   H18       1.0  0.56800  0.85800  0.91100  1.0000
  N   N1        1.0  0.88300  0.06080  0.13600  1.0000
  N   N2        1.0  0.31400  0.11700  0.13600  1.0000
  N   N3        1.0  0.93900  0.68600  0.13600  1.0000
  N   N4        1.0  0.06080  0.31400  0.86400  1.0000
  N   N5        1.0  0.68600  0.88300  0.86400  1.0000
  N   N6        1.0  0.11700  0.93900  0.86400  1.0000
  O   O1        1.0  0.01000  0.28700  0.38000  1.0000
  O   O2        1.0  0.71300  0.34400  0.38000  1.0000
  O   O3        1.0  0.65600  0.99000  0.38000  1.0000
  O   O4        1.0  0.13500  0.86500  0.40500  1.0000
  O   O5        1.0  0.86500  0.13500  0.59500  1.0000
  O   O6        1.0  0.34400  0.01000  0.62000  1.0000
  O   O7        1.0  0.28700  0.65600  0.62000  1.0000
  O   O8        1.0  0.99000  0.71300  0.62000  1.0000
