data_image0
_chemical_formula_structural       Mo12O24Pr2
_chemical_formula_sum              "Mo12 O24 Pr2"
_cell_length_a       8.25255
_cell_length_b       8.25255
_cell_length_c       8.25255
_cell_angle_alpha    117.251
_cell_angle_beta     105.727
_cell_angle_gamma    105.727

_space_group_name_H-M_alt    "P 1"
_space_group_IT_number       1

loop_
  _space_group_symop_operation_xyz
  'x, y, z'

loop_
  _atom_site_type_symbol
  _atom_site_label
  _atom_site_symmetry_multiplicity
  _atom_site_fract_x
  _atom_site_fract_y
  _atom_site_fract_z
  _atom_site_occupancy
  Mo  Mo1       1.0  0.15200  0.47700  0.00044  1.0000
  Mo  Mo2       1.0  0.47600  0.00000  0.15200  1.0000
  Mo  Mo3       1.0  0.52100  0.33600  0.18500  1.0000
  Mo  Mo4       1.0  0.84800  0.84800  0.32500  1.0000
  Mo  Mo5       1.0  0.15100  0.81500  0.33600  1.0000
  Mo  Mo6       1.0  0.47600  0.32500  0.47700  1.0000
  Mo  Mo7       1.0  0.52400  0.67500  0.52300  1.0000
  Mo  Mo8       1.0  0.84900  0.18500  0.66400  1.0000
  Mo  Mo9       1.0  0.15200  0.15200  0.67500  1.0000
  Mo  Mo10      1.0  0.47900  0.66400  0.81500  1.0000
  Mo  Mo11      1.0  0.52400  0.00044  0.84800  1.0000
  Mo  Mo12      1.0  0.84800  0.52300  1.00000  1.0000
  O   O1        1.0  0.96400  0.84100  0.12300  1.0000
  O   O2        1.0  0.62800  0.83700  0.12600  1.0000
  O   O3        1.0  0.28300  0.12300  0.15900  1.0000
  O   O4        1.0  0.70200  0.53900  0.16300  1.0000
  O   O5        1.0  0.28900  0.79100  0.16300  1.0000
  O   O6        1.0  0.70500  0.20900  0.16600  1.0000
  O   O7        1.0  0.04260  0.50400  0.20900  1.0000
  O   O8        1.0  0.37200  0.49800  0.20900  1.0000
  O   O9        1.0  0.62400  0.16300  0.46100  1.0000
  O   O10       1.0  0.95700  0.16600  0.46100  1.0000
  O   O11       1.0  0.70500  0.53900  0.49600  1.0000
  O   O12       1.0  0.28900  0.12600  0.49800  1.0000
  O   O13       1.0  0.71100  0.87400  0.50200  1.0000
  O   O14       1.0  0.29500  0.46100  0.50400  1.0000
  O   O15       1.0  0.04260  0.83400  0.53900  1.0000
  O   O16       1.0  0.37600  0.83700  0.53900  1.0000
  O   O17       1.0  0.62800  0.50200  0.79100  1.0000
  O   O18       1.0  0.95700  0.49600  0.79100  1.0000
  O   O19       1.0  0.29500  0.79100  0.83400  1.0000
  O   O20       1.0  0.71100  0.20900  0.83700  1.0000
  O   O21       1.0  0.29800  0.46100  0.83700  1.0000
  O   O22       1.0  0.71700  0.87700  0.84100  1.0000
  O   O23       1.0  0.37200  0.16300  0.87400  1.0000
  O   O24       1.0  0.03620  0.15900  0.87700  1.0000
  Pr  Pr1       1.0  0.00000  0.20600  0.20600  1.0000
  Pr  Pr2       1.0  0.00000  0.79400  0.79400  1.0000
