data_image0
_chemical_formula_structural       O24Rb4Sr2V8
_chemical_formula_sum              "O24 Rb4 Sr2 V8"
_cell_length_a       11.0094
_cell_length_b       11.0094
_cell_length_c       5.41764
_cell_angle_alpha    90
_cell_angle_beta     90
_cell_angle_gamma    90

_space_group_name_H-M_alt    "P 1"
_space_group_IT_number       1

loop_
  _space_group_symop_operation_xyz
  'x, y, z'

loop_
  _atom_site_type_symbol
  _atom_site_label
  _atom_site_symmetry_multiplicity
  _atom_site_fract_x
  _atom_site_fract_y
  _atom_site_fract_z
  _atom_site_occupancy
  O   O1        1.0  0.62200  0.12200  0.09040  1.0000
  O   O2        1.0  0.87800  0.37800  0.09040  1.0000
  O   O3        1.0  0.37800  0.62200  0.09040  1.0000
  O   O4        1.0  0.12200  0.87800  0.09040  1.0000
  O   O5        1.0  0.28700  0.05750  0.24200  1.0000
  O   O6        1.0  0.05750  0.21300  0.24200  1.0000
  O   O7        1.0  0.44300  0.28700  0.24200  1.0000
  O   O8        1.0  0.21300  0.44300  0.24200  1.0000
  O   O9        1.0  0.71300  0.55700  0.24200  1.0000
  O   O10       1.0  0.94300  0.71300  0.24200  1.0000
  O   O11       1.0  0.55700  0.78700  0.24200  1.0000
  O   O12       1.0  0.78700  0.94300  0.24200  1.0000
  O   O13       1.0  0.21300  0.05750  0.75800  1.0000
  O   O14       1.0  0.44300  0.21300  0.75800  1.0000
  O   O15       1.0  0.05750  0.28700  0.75800  1.0000
  O   O16       1.0  0.28700  0.44300  0.75800  1.0000
  O   O17       1.0  0.78700  0.55700  0.75800  1.0000
  O   O18       1.0  0.55700  0.71300  0.75800  1.0000
  O   O19       1.0  0.94300  0.78700  0.75800  1.0000
  O   O20       1.0  0.71300  0.94300  0.75800  1.0000
  O   O21       1.0  0.87800  0.12200  0.91000  1.0000
  O   O22       1.0  0.62200  0.37800  0.91000  1.0000
  O   O23       1.0  0.12200  0.62200  0.91000  1.0000
  O   O24       1.0  0.37800  0.87800  0.91000  1.0000
  Rb  Rb1       1.0  0.00000  0.00000  0.50000  1.0000
  Rb  Rb2       1.0  0.50000  0.00000  0.50000  1.0000
  Rb  Rb3       1.0  0.00000  0.50000  0.50000  1.0000
  Rb  Rb4       1.0  0.50000  0.50000  0.50000  1.0000
  Sr  Sr1       1.0  0.25000  0.25000  0.50000  1.0000
  Sr  Sr2       1.0  0.75000  0.75000  0.50000  1.0000
  V   V1        1.0  0.75000  0.02820  0.00000  1.0000
  V   V2        1.0  0.52800  0.25000  0.00000  1.0000
  V   V3        1.0  0.97200  0.25000  0.00000  1.0000
  V   V4        1.0  0.75000  0.47200  0.00000  1.0000
  V   V5        1.0  0.25000  0.52800  0.00000  1.0000
  V   V6        1.0  0.02820  0.75000  0.00000  1.0000
  V   V7        1.0  0.47200  0.75000  0.00000  1.0000
  V   V8        1.0  0.25000  0.97200  0.00000  1.0000
