data_image0
_chemical_formula_structural       Ag4O24Sr2V8
_chemical_formula_sum              "Ag4 O24 Sr2 V8"
_cell_length_a       10.5329
_cell_length_b       10.5332
_cell_length_c       4.93985
_cell_angle_alpha    90
_cell_angle_beta     90
_cell_angle_gamma    90

_space_group_name_H-M_alt    "P 1"
_space_group_IT_number       1

loop_
  _space_group_symop_operation_xyz
  'x, y, z'

loop_
  _atom_site_type_symbol
  _atom_site_label
  _atom_site_symmetry_multiplicity
  _atom_site_fract_x
  _atom_site_fract_y
  _atom_site_fract_z
  _atom_site_occupancy
  Ag  Ag1       1.0  0.00000  0.00000  0.50000  1.0000
  Ag  Ag2       1.0  0.50000  0.00000  0.50000  1.0000
  Ag  Ag3       1.0  0.00000  0.50000  0.50000  1.0000
  Ag  Ag4       1.0  0.50000  0.50000  0.50000  1.0000
  O   O1        1.0  0.86600  0.13400  0.16500  1.0000
  O   O2        1.0  0.63400  0.36600  0.16500  1.0000
  O   O3        1.0  0.13400  0.63400  0.16500  1.0000
  O   O4        1.0  0.36600  0.86600  0.16500  1.0000
  O   O5        1.0  0.44500  0.17600  0.23700  1.0000
  O   O6        1.0  0.05460  0.32400  0.23700  1.0000
  O   O7        1.0  0.55500  0.67600  0.23700  1.0000
  O   O8        1.0  0.94500  0.82400  0.23700  1.0000
  O   O9        1.0  0.17600  0.05470  0.23800  1.0000
  O   O10       1.0  0.32400  0.44500  0.23800  1.0000
  O   O11       1.0  0.82400  0.55500  0.23800  1.0000
  O   O12       1.0  0.67600  0.94500  0.23800  1.0000
  O   O13       1.0  0.32400  0.05470  0.76200  1.0000
  O   O14       1.0  0.17600  0.44500  0.76200  1.0000
  O   O15       1.0  0.67600  0.55500  0.76200  1.0000
  O   O16       1.0  0.82400  0.94500  0.76200  1.0000
  O   O17       1.0  0.05460  0.17600  0.76300  1.0000
  O   O18       1.0  0.44500  0.32400  0.76300  1.0000
  O   O19       1.0  0.94500  0.67600  0.76300  1.0000
  O   O20       1.0  0.55500  0.82400  0.76300  1.0000
  O   O21       1.0  0.63400  0.13400  0.83500  1.0000
  O   O22       1.0  0.86600  0.36600  0.83500  1.0000
  O   O23       1.0  0.36600  0.63400  0.83500  1.0000
  O   O24       1.0  0.13400  0.86600  0.83500  1.0000
  Sr  Sr1       1.0  0.25000  0.25000  0.50000  1.0000
  Sr  Sr2       1.0  0.75000  0.75000  0.50000  1.0000
  V   V1        1.0  0.75000  0.03290  0.00000  1.0000
  V   V2        1.0  0.53300  0.25000  0.00000  1.0000
  V   V3        1.0  0.96700  0.25000  0.00000  1.0000
  V   V4        1.0  0.75000  0.46700  0.00000  1.0000
  V   V5        1.0  0.25000  0.53300  0.00000  1.0000
  V   V6        1.0  0.03290  0.75000  0.00000  1.0000
  V   V7        1.0  0.46700  0.75000  0.00000  1.0000
  V   V8        1.0  0.25000  0.96700  0.00000  1.0000
