data_image0
_chemical_formula_structural       Na4O24Te8W2
_chemical_formula_sum              "Na4 O24 Te8 W2"
_cell_length_a       5.64245
_cell_length_b       9.11411
_cell_length_c       11.0353
_cell_angle_alpha    104.597
_cell_angle_beta     89.9954
_cell_angle_gamma    108.032

_space_group_name_H-M_alt    "P 1"
_space_group_IT_number       1

loop_
  _space_group_symop_operation_xyz
  'x, y, z'

loop_
  _atom_site_type_symbol
  _atom_site_label
  _atom_site_symmetry_multiplicity
  _atom_site_fract_x
  _atom_site_fract_y
  _atom_site_fract_z
  _atom_site_occupancy
  Na  Na1       1.0  0.02130  0.56800  0.22500  1.0000
  Na  Na2       1.0  0.45400  0.43100  0.27600  1.0000
  Na  Na3       1.0  0.54700  0.56800  0.72500  1.0000
  Na  Na4       1.0  0.97800  0.43200  0.77600  1.0000
  O   O1        1.0  0.30800  0.48300  0.06910  1.0000
  O   O2        1.0  0.67300  0.32800  0.09810  1.0000
  O   O3        1.0  0.63400  0.02070  0.13400  1.0000
  O   O4        1.0  0.15600  0.04510  0.13500  1.0000
  O   O5        1.0  0.27800  0.78000  0.16000  1.0000
  O   O6        1.0  0.70500  0.68400  0.24000  1.0000
  O   O7        1.0  0.02180  0.31600  0.25800  1.0000
  O   O8        1.0  0.50100  0.22000  0.34100  1.0000
  O   O9        1.0  0.10400  0.95900  0.36100  1.0000
  O   O10       1.0  0.60400  0.97800  0.37000  1.0000
  O   O11       1.0  0.34900  0.67000  0.40200  1.0000
  O   O12       1.0  0.83000  0.51600  0.43000  1.0000
  O   O13       1.0  0.17400  0.48300  0.56900  1.0000
  O   O14       1.0  0.65500  0.32800  0.59800  1.0000
  O   O15       1.0  0.38700  0.02090  0.63400  1.0000
  O   O16       1.0  0.89000  0.04510  0.63500  1.0000
  O   O17       1.0  0.50200  0.78000  0.66000  1.0000
  O   O18       1.0  0.97900  0.68400  0.74100  1.0000
  O   O19       1.0  0.29500  0.31700  0.75800  1.0000
  O   O20       1.0  0.72000  0.22100  0.84100  1.0000
  O   O21       1.0  0.85500  0.95900  0.86200  1.0000
  O   O22       1.0  0.37400  0.97900  0.87100  1.0000
  O   O23       1.0  0.32100  0.67000  0.90200  1.0000
  O   O24       1.0  0.68600  0.51600  0.93000  1.0000
  Te  Te1       1.0  0.52900  0.68800  0.05890  1.0000
  Te  Te2       1.0  0.88600  0.18800  0.09430  1.0000
  Te  Te3       1.0  0.70100  0.81300  0.40500  1.0000
  Te  Te4       1.0  0.84400  0.31000  0.44000  1.0000
  Te  Te5       1.0  0.15900  0.68800  0.55900  1.0000
  Te  Te6       1.0  0.30200  0.18800  0.59400  1.0000
  Te  Te7       1.0  0.11200  0.81300  0.90500  1.0000
  Te  Te8       1.0  0.46600  0.31000  0.94000  1.0000
  W   W1        1.0  0.33200  0.00034  0.25000  1.0000
  W   W2        1.0  0.66800  0.00049  0.74900  1.0000
