data_image0
_chemical_formula_structural       AsBi3Ni18S16
_chemical_formula_sum              "As1 Bi3 Ni18 S16"
_cell_length_a       9.04582
_cell_length_b       9.04582
_cell_length_c       9.04582
_cell_angle_alpha    106.78
_cell_angle_beta     110.834
_cell_angle_gamma    110.834

_space_group_name_H-M_alt    "P 1"
_space_group_IT_number       1

loop_
  _space_group_symop_operation_xyz
  'x, y, z'

loop_
  _atom_site_type_symbol
  _atom_site_label
  _atom_site_symmetry_multiplicity
  _atom_site_fract_x
  _atom_site_fract_y
  _atom_site_fract_z
  _atom_site_occupancy
  As  As1       1.0  0.00000  0.50000  0.50000  1.0000
  Bi  Bi1       1.0  0.00000  0.00000  0.00000  1.0000
  Bi  Bi2       1.0  0.50000  0.75000  0.25000  1.0000
  Bi  Bi3       1.0  0.50000  0.25000  0.75000  1.0000
  Ni  Ni1       1.0  0.50000  0.50000  0.00000  1.0000
  Ni  Ni2       1.0  0.34300  0.04550  0.04550  1.0000
  Ni  Ni3       1.0  0.00000  0.70200  0.04550  1.0000
  Ni  Ni4       1.0  0.71300  0.23500  0.23500  1.0000
  Ni  Ni5       1.0  0.00000  0.52200  0.23500  1.0000
  Ni  Ni6       1.0  0.34300  0.29800  0.29800  1.0000
  Ni  Ni7       1.0  0.00000  0.95500  0.29800  1.0000
  Ni  Ni8       1.0  1.00000  0.76500  0.47800  1.0000
  Ni  Ni9       1.0  0.71300  0.47800  0.47800  1.0000
  Ni  Ni10      1.0  0.50000  0.00000  0.50000  1.0000
  Ni  Ni11      1.0  0.00000  0.23500  0.52200  1.0000
  Ni  Ni12      1.0  0.28700  0.52200  0.52200  1.0000
  Ni  Ni13      1.0  0.00000  0.04550  0.70200  1.0000
  Ni  Ni14      1.0  0.65700  0.70200  0.70200  1.0000
  Ni  Ni15      1.0  0.00000  0.47800  0.76500  1.0000
  Ni  Ni16      1.0  0.28700  0.76500  0.76500  1.0000
  Ni  Ni17      1.0  0.00000  0.29800  0.95500  1.0000
  Ni  Ni18      1.0  0.65700  0.95500  0.95500  1.0000
  S   S1        1.0  0.77200  0.24100  0.01290  1.0000
  S   S2        1.0  0.51200  0.34800  0.16400  1.0000
  S   S3        1.0  0.81500  0.65200  0.16400  1.0000
  S   S4        1.0  0.22800  0.46800  0.24100  1.0000
  S   S5        1.0  0.77200  0.01290  0.24100  1.0000
  S   S6        1.0  0.18500  0.83600  0.34800  1.0000
  S   S7        1.0  0.51200  0.16400  0.34800  1.0000
  S   S8        1.0  0.22800  0.24100  0.46800  1.0000
  S   S9        1.0  0.77200  0.75900  0.53200  1.0000
  S   S10       1.0  0.81500  0.16400  0.65200  1.0000
  S   S11       1.0  0.48800  0.83600  0.65200  1.0000
  S   S12       1.0  0.77200  0.53200  0.75900  1.0000
  S   S13       1.0  0.22800  0.98700  0.75900  1.0000
  S   S14       1.0  0.18500  0.34800  0.83600  1.0000
  S   S15       1.0  0.48800  0.65200  0.83600  1.0000
  S   S16       1.0  0.22800  0.75900  0.98700  1.0000
