data_image0
_chemical_formula_structural       As4Co8H4O20
_chemical_formula_sum              "As4 Co8 H4 O20"
_cell_length_a       8.49241
_cell_length_b       8.91772
_cell_length_c       5.97762
_cell_angle_alpha    90
_cell_angle_beta     90
_cell_angle_gamma    90

_space_group_name_H-M_alt    "P 1"
_space_group_IT_number       1

loop_
  _space_group_symop_operation_xyz
  'x, y, z'

loop_
  _atom_site_type_symbol
  _atom_site_label
  _atom_site_symmetry_multiplicity
  _atom_site_fract_x
  _atom_site_fract_y
  _atom_site_fract_z
  _atom_site_occupancy
  As  As1       1.0  0.18200  0.27900  0.00000  1.0000
  As  As2       1.0  0.81800  0.72100  0.00000  1.0000
  As  As3       1.0  0.68200  0.22100  0.50000  1.0000
  As  As4       1.0  0.31800  0.77900  0.50000  1.0000
  Co  Co1       1.0  0.87400  0.14700  0.00000  1.0000
  Co  Co2       1.0  0.12600  0.85300  0.00000  1.0000
  Co  Co3       1.0  0.50000  0.00000  0.24300  1.0000
  Co  Co4       1.0  0.00000  0.50000  0.25700  1.0000
  Co  Co5       1.0  0.37400  0.35300  0.50000  1.0000
  Co  Co6       1.0  0.62600  0.64700  0.50000  1.0000
  Co  Co7       1.0  0.00000  0.50000  0.74300  1.0000
  Co  Co8       1.0  0.50000  0.00000  0.75700  1.0000
  H   H1        1.0  0.30300  0.06270  0.00000  1.0000
  H   H2        1.0  0.69700  0.93700  0.00000  1.0000
  H   H3        1.0  0.80300  0.43700  0.50000  1.0000
  H   H4        1.0  0.19700  0.56300  0.50000  1.0000
  O   O1        1.0  0.10200  0.09770  0.00000  1.0000
  O   O2        1.0  0.39000  0.13700  0.00000  1.0000
  O   O3        1.0  0.97700  0.35200  0.00000  1.0000
  O   O4        1.0  0.02320  0.64800  0.00000  1.0000
  O   O5        1.0  0.61000  0.86300  0.00000  1.0000
  O   O6        1.0  0.89800  0.90200  0.00000  1.0000
  O   O7        1.0  0.22600  0.37400  0.24500  1.0000
  O   O8        1.0  0.77400  0.62600  0.24500  1.0000
  O   O9        1.0  0.72600  0.12600  0.25500  1.0000
  O   O10       1.0  0.27400  0.87400  0.25500  1.0000
  O   O11       1.0  0.47700  0.14800  0.50000  1.0000
  O   O12       1.0  0.89000  0.36300  0.50000  1.0000
  O   O13       1.0  0.60200  0.40200  0.50000  1.0000
  O   O14       1.0  0.39800  0.59800  0.50000  1.0000
  O   O15       1.0  0.11000  0.63700  0.50000  1.0000
  O   O16       1.0  0.52300  0.85200  0.50000  1.0000
  O   O17       1.0  0.72600  0.12600  0.74500  1.0000
  O   O18       1.0  0.27400  0.87400  0.74500  1.0000
  O   O19       1.0  0.22600  0.37400  0.75500  1.0000
  O   O20       1.0  0.77400  0.62600  0.75500  1.0000
