data_image0
_chemical_formula_structural       Ge20Rh8Tm10
_chemical_formula_sum              "Ge20 Rh8 Tm10"
_cell_length_a       12.9905
_cell_length_b       12.9905
_cell_length_c       4.25755
_cell_angle_alpha    90
_cell_angle_beta     90
_cell_angle_gamma    90

_space_group_name_H-M_alt    "P 1"
_space_group_IT_number       1

loop_
  _space_group_symop_operation_xyz
  'x, y, z'

loop_
  _atom_site_type_symbol
  _atom_site_label
  _atom_site_symmetry_multiplicity
  _atom_site_fract_x
  _atom_site_fract_y
  _atom_site_fract_z
  _atom_site_occupancy
  Ge  Ge1       1.0  0.43300  0.06670  0.00000  1.0000
  Ge  Ge2       1.0  0.80000  0.16300  0.00000  1.0000
  Ge  Ge3       1.0  0.16300  0.20000  0.00000  1.0000
  Ge  Ge4       1.0  0.66300  0.30000  0.00000  1.0000
  Ge  Ge5       1.0  0.30000  0.33700  0.00000  1.0000
  Ge  Ge6       1.0  0.93300  0.43300  0.00000  1.0000
  Ge  Ge7       1.0  0.06670  0.56700  0.00000  1.0000
  Ge  Ge8       1.0  0.70000  0.66300  0.00000  1.0000
  Ge  Ge9       1.0  0.33700  0.70000  0.00000  1.0000
  Ge  Ge10      1.0  0.83700  0.80000  0.00000  1.0000
  Ge  Ge11      1.0  0.20000  0.83700  0.00000  1.0000
  Ge  Ge12      1.0  0.56700  0.93300  0.00000  1.0000
  Ge  Ge13      1.0  0.15600  0.00444  0.50000  1.0000
  Ge  Ge14      1.0  0.99600  0.15600  0.50000  1.0000
  Ge  Ge15      1.0  0.49600  0.34400  0.50000  1.0000
  Ge  Ge16      1.0  0.65600  0.49600  0.50000  1.0000
  Ge  Ge17      1.0  0.34400  0.50400  0.50000  1.0000
  Ge  Ge18      1.0  0.50400  0.65600  0.50000  1.0000
  Ge  Ge19      1.0  0.00444  0.84400  0.50000  1.0000
  Ge  Ge20      1.0  0.84400  0.99600  0.50000  1.0000
  Rh  Rh1       1.0  0.24600  0.02030  0.00000  1.0000
  Rh  Rh2       1.0  0.98000  0.24600  0.00000  1.0000
  Rh  Rh3       1.0  0.48000  0.25400  0.00000  1.0000
  Rh  Rh4       1.0  0.74600  0.48000  0.00000  1.0000
  Rh  Rh5       1.0  0.25400  0.52000  0.00000  1.0000
  Rh  Rh6       1.0  0.52000  0.74600  0.00000  1.0000
  Rh  Rh7       1.0  0.02030  0.75400  0.00000  1.0000
  Rh  Rh8       1.0  0.75400  0.98000  0.00000  1.0000
  Tm  Tm1       1.0  0.00000  0.00000  0.00000  1.0000
  Tm  Tm2       1.0  0.50000  0.50000  0.00000  1.0000
  Tm  Tm3       1.0  0.61400  0.11400  0.50000  1.0000
  Tm  Tm4       1.0  0.32600  0.17400  0.50000  1.0000
  Tm  Tm5       1.0  0.82600  0.32600  0.50000  1.0000
  Tm  Tm6       1.0  0.11400  0.38600  0.50000  1.0000
  Tm  Tm7       1.0  0.88600  0.61400  0.50000  1.0000
  Tm  Tm8       1.0  0.17400  0.67400  0.50000  1.0000
  Tm  Tm9       1.0  0.67400  0.82600  0.50000  1.0000
  Tm  Tm10      1.0  0.38600  0.88600  0.50000  1.0000
