data_image0
_chemical_formula_structural       Cs6O24S6Yb2
_chemical_formula_sum              "Cs6 O24 S6 Yb2"
_cell_length_a       9.40045
_cell_length_b       9.73784
_cell_length_c       9.73784
_cell_angle_alpha    110.162
_cell_angle_beta     108.771
_cell_angle_gamma    108.771

_space_group_name_H-M_alt    "P 1"
_space_group_IT_number       1

loop_
  _space_group_symop_operation_xyz
  'x, y, z'

loop_
  _atom_site_type_symbol
  _atom_site_label
  _atom_site_symmetry_multiplicity
  _atom_site_fract_x
  _atom_site_fract_y
  _atom_site_fract_z
  _atom_site_occupancy
  Cs  Cs1       1.0  0.29100  0.61100  0.13200  1.0000
  Cs  Cs2       1.0  0.68000  0.52100  0.38900  1.0000
  Cs  Cs3       1.0  0.15900  0.86800  0.47900  1.0000
  Cs  Cs4       1.0  0.18000  0.38900  0.52100  1.0000
  Cs  Cs5       1.0  0.79100  0.13200  0.61100  1.0000
  Cs  Cs6       1.0  0.65900  0.47900  0.86800  1.0000
  O   O1        1.0  0.42000  0.37400  0.02660  1.0000
  O   O2        1.0  0.83400  0.85100  0.08200  1.0000
  O   O3        1.0  0.72100  0.25000  0.09400  1.0000
  O   O4        1.0  0.98200  0.23100  0.14900  1.0000
  O   O5        1.0  0.62700  0.90600  0.15600  1.0000
  O   O6        1.0  0.72700  0.72800  0.23000  1.0000
  O   O7        1.0  0.48200  0.14900  0.23100  1.0000
  O   O8        1.0  0.22100  0.09400  0.25000  1.0000
  O   O9        1.0  0.99900  0.50200  0.27200  1.0000
  O   O10       1.0  0.39400  0.97300  0.34700  1.0000
  O   O11       1.0  0.92000  0.02660  0.37400  1.0000
  O   O12       1.0  0.49700  0.77000  0.49800  1.0000
  O   O13       1.0  0.49900  0.27200  0.50200  1.0000
  O   O14       1.0  0.04660  0.65300  0.62600  1.0000
  O   O15       1.0  0.54700  0.62600  0.65300  1.0000
  O   O16       1.0  0.22700  0.23000  0.72800  1.0000
  O   O17       1.0  0.47000  0.84400  0.75000  1.0000
  O   O18       1.0  0.75200  0.91800  0.76900  1.0000
  O   O19       1.0  0.99700  0.49800  0.77000  1.0000
  O   O20       1.0  0.97000  0.75000  0.84400  1.0000
  O   O21       1.0  0.33400  0.08200  0.85100  1.0000
  O   O22       1.0  0.12700  0.15600  0.90600  1.0000
  O   O23       1.0  0.25200  0.76900  0.91800  1.0000
  O   O24       1.0  0.89400  0.34700  0.97300  1.0000
  S   S1        1.0  0.89900  0.33300  0.12100  1.0000
  S   S2        1.0  0.77800  0.87900  0.21100  1.0000
  S   S3        1.0  0.39900  0.12100  0.33300  1.0000
  S   S4        1.0  0.56600  0.78900  0.66700  1.0000
  S   S5        1.0  0.06620  0.66700  0.78900  1.0000
  S   S6        1.0  0.27800  0.21100  0.87900  1.0000
  Yb  Yb1       1.0  0.49400  0.00000  0.00000  1.0000
  Yb  Yb2       1.0  0.99400  0.00000  0.00000  1.0000
