data_image0
_chemical_formula_structural       Fe2Na6O24S6
_chemical_formula_sum              "Fe2 Na6 O24 S6"
_cell_length_a       8.21326
_cell_length_b       8.21326
_cell_length_c       8.21326
_cell_angle_alpha    107.476
_cell_angle_beta     107.476
_cell_angle_gamma    107.476

_space_group_name_H-M_alt    "P 1"
_space_group_IT_number       1

loop_
  _space_group_symop_operation_xyz
  'x, y, z'

loop_
  _atom_site_type_symbol
  _atom_site_label
  _atom_site_symmetry_multiplicity
  _atom_site_fract_x
  _atom_site_fract_y
  _atom_site_fract_z
  _atom_site_occupancy
  Fe  Fe1       1.0  0.00000  0.00000  0.00000  1.0000
  Fe  Fe2       1.0  0.50000  0.50000  0.50000  1.0000
  Na  Na1       1.0  0.76000  0.61700  0.13300  1.0000
  Na  Na2       1.0  0.38300  0.86700  0.24000  1.0000
  Na  Na3       1.0  0.86700  0.24000  0.38300  1.0000
  Na  Na4       1.0  0.13300  0.76000  0.61700  1.0000
  Na  Na5       1.0  0.61700  0.13300  0.76000  1.0000
  Na  Na6       1.0  0.24000  0.38300  0.86700  1.0000
  O   O1        1.0  0.75800  0.88000  0.01590  1.0000
  O   O2        1.0  0.47700  0.71000  0.03460  1.0000
  O   O3        1.0  0.98400  0.24200  0.12000  1.0000
  O   O4        1.0  0.18300  0.54300  0.13700  1.0000
  O   O5        1.0  0.54300  0.13700  0.18300  1.0000
  O   O6        1.0  0.48300  0.42000  0.24000  1.0000
  O   O7        1.0  0.12000  0.98400  0.24200  1.0000
  O   O8        1.0  0.96500  0.52300  0.29000  1.0000
  O   O9        1.0  0.24000  0.48300  0.42000  1.0000
  O   O10       1.0  0.86300  0.81700  0.45700  1.0000
  O   O11       1.0  0.71000  0.03460  0.47700  1.0000
  O   O12       1.0  0.42000  0.24000  0.48300  1.0000
  O   O13       1.0  0.58000  0.76000  0.51700  1.0000
  O   O14       1.0  0.29000  0.96500  0.52300  1.0000
  O   O15       1.0  0.13700  0.18300  0.54300  1.0000
  O   O16       1.0  0.76000  0.51700  0.58000  1.0000
  O   O17       1.0  0.03460  0.47700  0.71000  1.0000
  O   O18       1.0  0.88000  0.01590  0.75800  1.0000
  O   O19       1.0  0.51700  0.58000  0.76000  1.0000
  O   O20       1.0  0.45700  0.86300  0.81700  1.0000
  O   O21       1.0  0.81700  0.45700  0.86300  1.0000
  O   O22       1.0  0.01590  0.75800  0.88000  1.0000
  O   O23       1.0  0.52300  0.29000  0.96500  1.0000
  O   O24       1.0  0.24200  0.12000  0.98400  1.0000
  S   S1        1.0  0.45400  0.23700  0.09610  1.0000
  S   S2        1.0  0.09610  0.45400  0.23700  1.0000
  S   S3        1.0  0.23700  0.09610  0.45400  1.0000
  S   S4        1.0  0.76300  0.90400  0.54600  1.0000
  S   S5        1.0  0.90400  0.54600  0.76300  1.0000
  S   S6        1.0  0.54600  0.76300  0.90400  1.0000
