data_image0
_chemical_formula_structural       N4O28S6
_chemical_formula_sum              "N4 O28 S6"
_cell_length_a       6.95421
_cell_length_b       7.25082
_cell_length_c       9.81117
_cell_angle_alpha    102
_cell_angle_beta     110.757
_cell_angle_gamma    90

_space_group_name_H-M_alt    "P 1"
_space_group_IT_number       1

loop_
  _space_group_symop_operation_xyz
  'x, y, z'

loop_
  _atom_site_type_symbol
  _atom_site_label
  _atom_site_symmetry_multiplicity
  _atom_site_fract_x
  _atom_site_fract_y
  _atom_site_fract_z
  _atom_site_occupancy
  N   N1        1.0  0.21500  0.91700  0.25500  1.0000
  N   N2        1.0  0.04010  0.41700  0.25500  1.0000
  N   N3        1.0  0.00927  0.70900  0.72100  1.0000
  N   N4        1.0  0.71100  0.20900  0.72100  1.0000
  O   O1        1.0  0.25400  0.11400  0.04210  1.0000
  O   O2        1.0  0.78800  0.61400  0.04210  1.0000
  O   O3        1.0  0.53200  0.37700  0.13200  1.0000
  O   O4        1.0  0.60000  0.87700  0.13200  1.0000
  O   O5        1.0  0.20600  0.80800  0.14400  1.0000
  O   O6        1.0  0.93800  0.30800  0.14400  1.0000
  O   O7        1.0  0.11200  0.03580  0.29200  1.0000
  O   O8        1.0  0.18000  0.53600  0.29200  1.0000
  O   O9        1.0  0.88600  0.77400  0.34600  1.0000
  O   O10       1.0  0.46000  0.27400  0.34600  1.0000
  O   O11       1.0  0.81600  0.27200  0.35000  1.0000
  O   O12       1.0  0.53300  0.77200  0.35000  1.0000
  O   O13       1.0  0.41000  0.90700  0.39700  1.0000
  O   O14       1.0  0.98700  0.40700  0.39700  1.0000
  O   O15       1.0  0.90900  0.67700  0.59700  1.0000
  O   O16       1.0  0.68800  0.17700  0.59700  1.0000
  O   O17       1.0  0.31700  0.17100  0.61000  1.0000
  O   O18       1.0  0.29300  0.67100  0.61000  1.0000
  O   O19       1.0  0.62000  0.86700  0.69100  1.0000
  O   O20       1.0  0.07140  0.36700  0.69100  1.0000
  O   O21       1.0  0.63000  0.53600  0.69400  1.0000
  O   O22       1.0  0.06400  0.03590  0.69400  1.0000
  O   O23       1.0  0.09750  0.74200  0.84700  1.0000
  O   O24       1.0  0.74900  0.24200  0.84700  1.0000
  O   O25       1.0  0.38100  0.24500  0.87400  1.0000
  O   O26       1.0  0.49300  0.74500  0.87400  1.0000
  O   O27       1.0  0.16900  0.43400  0.99600  1.0000
  O   O28       1.0  0.82700  0.93400  0.99600  1.0000
  S   S1        1.0  0.30700  0.28700  0.01070  1.0000
  S   S2        1.0  0.70400  0.78700  0.01070  1.0000
  S   S3        1.0  0.60100  0.39600  0.32100  1.0000
  S   S4        1.0  0.72100  0.89600  0.32100  1.0000
  S   S5        1.0  0.18400  0.20000  0.69300  1.0000
  S   S6        1.0  0.51000  0.70000  0.69300  1.0000
