data_image0
_chemical_formula_structural       C6Cs8O22U2
_chemical_formula_sum              "C6 Cs8 O22 U2"
_cell_length_a       7.41765
_cell_length_b       7.41765
_cell_length_c       12.8247
_cell_angle_alpha    93.7752
_cell_angle_beta     93.7752
_cell_angle_gamma    80.3862

_space_group_name_H-M_alt    "P 1"
_space_group_IT_number       1

loop_
  _space_group_symop_operation_xyz
  'x, y, z'

loop_
  _atom_site_type_symbol
  _atom_site_label
  _atom_site_symmetry_multiplicity
  _atom_site_fract_x
  _atom_site_fract_y
  _atom_site_fract_z
  _atom_site_occupancy
  C   C1        1.0  0.08130  0.15500  0.09190  1.0000
  C   C2        1.0  0.51200  0.48800  0.25000  1.0000
  C   C3        1.0  0.84500  0.91900  0.40800  1.0000
  C   C4        1.0  0.15500  0.08130  0.59200  1.0000
  C   C5        1.0  0.48800  0.51200  0.75000  1.0000
  C   C6        1.0  0.91900  0.84500  0.90800  1.0000
  Cs  Cs1       1.0  0.43600  0.77600  0.04110  1.0000
  Cs  Cs2       1.0  0.98500  0.64400  0.15300  1.0000
  Cs  Cs3       1.0  0.35600  0.01530  0.34700  1.0000
  Cs  Cs4       1.0  0.22400  0.56400  0.45900  1.0000
  Cs  Cs5       1.0  0.77600  0.43600  0.54100  1.0000
  Cs  Cs6       1.0  0.64400  0.98500  0.65300  1.0000
  Cs  Cs7       1.0  0.01530  0.35600  0.84700  1.0000
  Cs  Cs8       1.0  0.56400  0.22400  0.95900  1.0000
  O   O1        1.0  0.21600  0.17200  0.04020  1.0000
  O   O2        1.0  0.92200  0.26400  0.08360  1.0000
  O   O3        1.0  0.08900  0.02950  0.16100  1.0000
  O   O4        1.0  0.62700  0.45200  0.17400  1.0000
  O   O5        1.0  0.66800  0.03630  0.18200  1.0000
  O   O6        1.0  0.38000  0.62000  0.25000  1.0000
  O   O7        1.0  0.96400  0.33200  0.31800  1.0000
  O   O8        1.0  0.54800  0.37300  0.32600  1.0000
  O   O9        1.0  0.97100  0.91100  0.33900  1.0000
  O   O10       1.0  0.73600  0.07770  0.41600  1.0000
  O   O11       1.0  0.82800  0.78400  0.46000  1.0000
  O   O12       1.0  0.17200  0.21600  0.54000  1.0000
  O   O13       1.0  0.26400  0.92200  0.58400  1.0000
  O   O14       1.0  0.02950  0.08900  0.66100  1.0000
  O   O15       1.0  0.45200  0.62700  0.67400  1.0000
  O   O16       1.0  0.03630  0.66800  0.68200  1.0000
  O   O17       1.0  0.62000  0.38000  0.75000  1.0000
  O   O18       1.0  0.33200  0.96400  0.81800  1.0000
  O   O19       1.0  0.37300  0.54800  0.82600  1.0000
  O   O20       1.0  0.91100  0.97100  0.83900  1.0000
  O   O21       1.0  0.07770  0.73600  0.91600  1.0000
  O   O22       1.0  0.78400  0.82800  0.96000  1.0000
  U   U1        1.0  0.81500  0.18500  0.25000  1.0000
  U   U2        1.0  0.18500  0.81500  0.75000  1.0000
