data_image0
_chemical_formula_structural       La5LiO24Ti8
_chemical_formula_sum              "La5 Li1 O24 Ti8"
_cell_length_a       7.72946
_cell_length_b       7.59294
_cell_length_c       7.69146
_cell_angle_alpha    90
_cell_angle_beta     89.9816
_cell_angle_gamma    90

_space_group_name_H-M_alt    "P 1"
_space_group_IT_number       1

loop_
  _space_group_symop_operation_xyz
  'x, y, z'

loop_
  _atom_site_type_symbol
  _atom_site_label
  _atom_site_symmetry_multiplicity
  _atom_site_fract_x
  _atom_site_fract_y
  _atom_site_fract_z
  _atom_site_occupancy
  La  La1       1.0  0.48500  0.00000  0.25000  1.0000
  La  La2       1.0  0.99900  0.50000  0.25000  1.0000
  La  La3       1.0  0.98400  0.00000  0.25000  1.0000
  La  La4       1.0  0.01360  0.50000  0.75000  1.0000
  La  La5       1.0  0.49800  0.50000  0.25000  1.0000
  Li  Li1       1.0  0.99400  0.00000  0.75000  1.0000
  O   O1        1.0  0.79900  0.00000  0.54200  1.0000
  O   O2        1.0  0.22900  0.00000  0.44700  1.0000
  O   O3        1.0  0.73500  0.50000  0.44800  1.0000
  O   O4        1.0  0.99900  0.27900  0.47800  1.0000
  O   O5        1.0  0.99900  0.72100  0.47800  1.0000
  O   O6        1.0  0.49900  0.22400  0.49700  1.0000
  O   O7        1.0  0.49900  0.77600  0.49700  1.0000
  O   O8        1.0  0.19500  0.20400  0.75000  1.0000
  O   O9        1.0  0.19500  0.79600  0.75000  1.0000
  O   O10       1.0  0.76800  0.69600  0.75000  1.0000
  O   O11       1.0  0.76800  0.30400  0.75000  1.0000
  O   O12       1.0  0.22900  0.00000  0.05310  1.0000
  O   O13       1.0  0.73500  0.50000  0.05140  1.0000
  O   O14       1.0  0.26800  0.50000  0.95700  1.0000
  O   O15       1.0  0.80000  0.00000  0.95800  1.0000
  O   O16       1.0  0.00000  0.28000  0.02170  1.0000
  O   O17       1.0  0.00000  0.72000  0.02170  1.0000
  O   O18       1.0  0.49900  0.22300  0.00269  1.0000
  O   O19       1.0  0.49900  0.77700  0.00269  1.0000
  O   O20       1.0  0.26300  0.29100  0.25000  1.0000
  O   O21       1.0  0.26300  0.70900  0.25000  1.0000
  O   O22       1.0  0.73800  0.79900  0.25000  1.0000
  O   O23       1.0  0.73800  0.20100  0.25000  1.0000
  O   O24       1.0  0.26700  0.50000  0.54200  1.0000
  Ti  Ti1       1.0  0.25400  0.24600  0.51500  1.0000
  Ti  Ti2       1.0  0.25400  0.75400  0.51500  1.0000
  Ti  Ti3       1.0  0.74300  0.75500  0.98500  1.0000
  Ti  Ti4       1.0  0.74300  0.24500  0.98500  1.0000
  Ti  Ti5       1.0  0.25400  0.24600  0.98500  1.0000
  Ti  Ti6       1.0  0.25400  0.75400  0.98500  1.0000
  Ti  Ti7       1.0  0.74300  0.75500  0.51500  1.0000
  Ti  Ti8       1.0  0.74300  0.24500  0.51500  1.0000
