data_image0
_chemical_formula_structural       O24Rb4Si8U2
_chemical_formula_sum              "O24 Rb4 Si8 U2"
_cell_length_a       6.78099
_cell_length_b       8.1852
_cell_length_c       11.2219
_cell_angle_alpha    72.5893
_cell_angle_beta     88.9703
_cell_angle_gamma    78.7842

_space_group_name_H-M_alt    "P 1"
_space_group_IT_number       1

loop_
  _space_group_symop_operation_xyz
  'x, y, z'

loop_
  _atom_site_type_symbol
  _atom_site_label
  _atom_site_symmetry_multiplicity
  _atom_site_fract_x
  _atom_site_fract_y
  _atom_site_fract_z
  _atom_site_occupancy
  O   O1        1.0  0.37600  0.26400  0.03080  1.0000
  O   O2        1.0  0.85200  0.86500  0.13900  1.0000
  O   O3        1.0  0.95400  0.49800  0.17200  1.0000
  O   O4        1.0  0.41400  0.92700  0.17600  1.0000
  O   O5        1.0  0.49900  0.56600  0.20500  1.0000
  O   O6        1.0  0.16300  0.16800  0.23600  1.0000
  O   O7        1.0  0.55900  0.16700  0.25000  1.0000
  O   O8        1.0  0.85300  0.24900  0.36400  1.0000
  O   O9        1.0  0.72600  0.64700  0.38400  1.0000
  O   O10       1.0  0.17600  0.37100  0.38500  1.0000
  O   O11       1.0  0.79000  0.93100  0.43700  1.0000
  O   O12       1.0  0.53800  0.19200  0.48600  1.0000
  O   O13       1.0  0.46200  0.80800  0.51400  1.0000
  O   O14       1.0  0.21000  0.06930  0.56300  1.0000
  O   O15       1.0  0.82400  0.62900  0.61500  1.0000
  O   O16       1.0  0.27400  0.35300  0.61600  1.0000
  O   O17       1.0  0.14700  0.75100  0.63600  1.0000
  O   O18       1.0  0.44100  0.83300  0.75000  1.0000
  O   O19       1.0  0.83700  0.83200  0.76400  1.0000
  O   O20       1.0  0.50100  0.43400  0.79500  1.0000
  O   O21       1.0  0.58600  0.07320  0.82400  1.0000
  O   O22       1.0  0.04640  0.50200  0.82800  1.0000
  O   O23       1.0  0.14800  0.13500  0.86100  1.0000
  O   O24       1.0  0.62400  0.73600  0.96900  1.0000
  Rb  Rb1       1.0  0.80400  0.30300  0.00893  1.0000
  Rb  Rb2       1.0  0.17200  0.73600  0.35500  1.0000
  Rb  Rb3       1.0  0.82800  0.26400  0.64500  1.0000
  Rb  Rb4       1.0  0.19600  0.69700  0.99100  1.0000
  Si  Si1       1.0  0.37900  0.13000  0.16900  1.0000
  Si  Si2       1.0  0.03700  0.32600  0.28500  1.0000
  Si  Si3       1.0  0.68000  0.13600  0.38000  1.0000
  Si  Si4       1.0  0.69900  0.75000  0.48500  1.0000
  Si  Si5       1.0  0.30100  0.25000  0.51500  1.0000
  Si  Si6       1.0  0.32000  0.86400  0.62000  1.0000
  Si  Si7       1.0  0.96300  0.67400  0.71500  1.0000
  Si  Si8       1.0  0.62100  0.87000  0.83100  1.0000
  U   U1        1.0  0.67700  0.71300  0.17200  1.0000
  U   U2        1.0  0.32300  0.28700  0.82800  1.0000
