data_image0
_chemical_formula_structural       O6V32
_chemical_formula_sum              "O6 V32"
_cell_length_a       8.46753
_cell_length_b       9.66147
_cell_length_c       9.66147
_cell_angle_alpha    101.071
_cell_angle_beta     115.99
_cell_angle_gamma    64.0102

_space_group_name_H-M_alt    "P 1"
_space_group_IT_number       1

loop_
  _space_group_symop_operation_xyz
  'x, y, z'

loop_
  _atom_site_type_symbol
  _atom_site_label
  _atom_site_symmetry_multiplicity
  _atom_site_fract_x
  _atom_site_fract_y
  _atom_site_fract_z
  _atom_site_occupancy
  O   O1        1.0  0.87500  0.24900  0.00000  1.0000
  O   O2        1.0  0.12500  0.75100  0.00000  1.0000
  O   O3        1.0  0.12500  0.00000  0.24900  1.0000
  O   O4        1.0  0.25000  0.50000  0.50000  1.0000
  O   O5        1.0  0.75000  0.50000  0.50000  1.0000
  O   O6        1.0  0.87500  0.00000  0.75100  1.0000
  V   V1        1.0  0.00000  0.00000  0.00000  1.0000
  V   V2        1.0  0.50000  0.00000  0.00000  1.0000
  V   V3        1.0  0.13500  0.24800  0.00000  1.0000
  V   V4        1.0  0.61700  0.24800  0.00000  1.0000
  V   V5        1.0  0.25100  0.49900  0.00000  1.0000
  V   V6        1.0  0.74900  0.50100  0.00000  1.0000
  V   V7        1.0  0.38300  0.75200  0.00000  1.0000
  V   V8        1.0  0.86500  0.75200  0.00000  1.0000
  V   V9        1.0  0.12400  0.50000  0.24700  1.0000
  V   V10       1.0  0.62400  0.50000  0.24700  1.0000
  V   V11       1.0  0.74700  0.75300  0.24700  1.0000
  V   V12       1.0  0.50000  0.24700  0.24700  1.0000
  V   V13       1.0  0.38300  0.00000  0.24800  1.0000
  V   V14       1.0  0.86500  0.00000  0.24800  1.0000
  V   V15       1.0  0.00000  0.25200  0.25200  1.0000
  V   V16       1.0  0.25200  0.74800  0.25200  1.0000
  V   V17       1.0  0.74900  0.00000  0.49900  1.0000
  V   V18       1.0  0.37600  0.24700  0.50000  1.0000
  V   V19       1.0  0.87600  0.24700  0.50000  1.0000
  V   V20       1.0  0.00000  0.50000  0.50000  1.0000
  V   V21       1.0  0.50000  0.50000  0.50000  1.0000
  V   V22       1.0  0.12400  0.75300  0.50000  1.0000
  V   V23       1.0  0.62400  0.75300  0.50000  1.0000
  V   V24       1.0  0.25100  0.00000  0.50100  1.0000
  V   V25       1.0  0.74800  0.25200  0.74800  1.0000
  V   V26       1.0  0.00000  0.74800  0.74800  1.0000
  V   V27       1.0  0.13500  0.00000  0.75200  1.0000
  V   V28       1.0  0.61700  0.00000  0.75200  1.0000
  V   V29       1.0  0.25300  0.24700  0.75300  1.0000
  V   V30       1.0  0.50000  0.75300  0.75300  1.0000
  V   V31       1.0  0.37600  0.50000  0.75300  1.0000
  V   V32       1.0  0.87600  0.50000  0.75300  1.0000
