data_image0
_chemical_formula_structural       Br4O22Te12
_chemical_formula_sum              "Br4 O22 Te12"
_cell_length_a       6.77939
_cell_length_b       6.77939
_cell_length_c       15.5967
_cell_angle_alpha    90
_cell_angle_beta     90
_cell_angle_gamma    119.181

_space_group_name_H-M_alt    "P 1"
_space_group_IT_number       1

loop_
  _space_group_symop_operation_xyz
  'x, y, z'

loop_
  _atom_site_type_symbol
  _atom_site_label
  _atom_site_symmetry_multiplicity
  _atom_site_fract_x
  _atom_site_fract_y
  _atom_site_fract_z
  _atom_site_occupancy
  Br  Br1       1.0  0.85600  0.51100  0.25000  1.0000
  Br  Br2       1.0  0.51100  0.85600  0.25000  1.0000
  Br  Br3       1.0  0.48900  0.14400  0.75000  1.0000
  Br  Br4       1.0  0.14400  0.48900  0.75000  1.0000
  O   O1        1.0  0.81700  0.51700  0.03670  1.0000
  O   O2        1.0  0.51700  0.81700  0.03670  1.0000
  O   O3        1.0  0.95100  0.19600  0.09440  1.0000
  O   O4        1.0  0.19600  0.95100  0.09440  1.0000
  O   O5        1.0  0.41900  0.41900  0.11700  1.0000
  O   O6        1.0  0.06500  0.06500  0.25000  1.0000
  O   O7        1.0  0.41900  0.41900  0.38300  1.0000
  O   O8        1.0  0.95100  0.19600  0.40600  1.0000
  O   O9        1.0  0.19600  0.95100  0.40600  1.0000
  O   O10       1.0  0.81700  0.51700  0.46300  1.0000
  O   O11       1.0  0.51700  0.81700  0.46300  1.0000
  O   O12       1.0  0.48300  0.18300  0.53700  1.0000
  O   O13       1.0  0.18300  0.48300  0.53700  1.0000
  O   O14       1.0  0.80400  0.04890  0.59400  1.0000
  O   O15       1.0  0.04890  0.80400  0.59400  1.0000
  O   O16       1.0  0.58100  0.58100  0.61700  1.0000
  O   O17       1.0  0.93500  0.93500  0.75000  1.0000
  O   O18       1.0  0.58100  0.58100  0.88300  1.0000
  O   O19       1.0  0.80400  0.04890  0.90600  1.0000
  O   O20       1.0  0.04890  0.80400  0.90600  1.0000
  O   O21       1.0  0.48300  0.18300  0.96300  1.0000
  O   O22       1.0  0.18300  0.48300  0.96300  1.0000
  Te  Te1       1.0  0.52700  0.20900  0.08660  1.0000
  Te  Te2       1.0  0.20900  0.52700  0.08660  1.0000
  Te  Te3       1.0  0.91900  0.91900  0.14100  1.0000
  Te  Te4       1.0  0.91900  0.91900  0.35900  1.0000
  Te  Te5       1.0  0.52700  0.20900  0.41300  1.0000
  Te  Te6       1.0  0.20900  0.52700  0.41300  1.0000
  Te  Te7       1.0  0.79100  0.47300  0.58700  1.0000
  Te  Te8       1.0  0.47300  0.79100  0.58700  1.0000
  Te  Te9       1.0  0.08100  0.08100  0.64100  1.0000
  Te  Te10      1.0  0.08100  0.08100  0.85900  1.0000
  Te  Te11      1.0  0.79100  0.47300  0.91300  1.0000
  Te  Te12      1.0  0.47300  0.79100  0.91300  1.0000
