data_image0
_chemical_formula_structural       O10Sb10Sm18
_chemical_formula_sum              "O10 Sb10 Sm18"
_cell_length_a       10.0642
_cell_length_b       10.0642
_cell_length_c       9.05954
_cell_angle_alpha    90
_cell_angle_beta     90
_cell_angle_gamma    90

_space_group_name_H-M_alt    "P 1"
_space_group_IT_number       1

loop_
  _space_group_symop_operation_xyz
  'x, y, z'

loop_
  _atom_site_type_symbol
  _atom_site_label
  _atom_site_symmetry_multiplicity
  _atom_site_fract_x
  _atom_site_fract_y
  _atom_site_fract_z
  _atom_site_occupancy
  O   O1        1.0  0.25000  0.25000  0.06580  1.0000
  O   O2        1.0  0.87000  0.02570  0.08910  1.0000
  O   O3        1.0  0.63000  0.47400  0.08910  1.0000
  O   O4        1.0  0.02570  0.63000  0.08910  1.0000
  O   O5        1.0  0.47400  0.87000  0.08910  1.0000
  O   O6        1.0  0.52600  0.13000  0.91100  1.0000
  O   O7        1.0  0.97400  0.37000  0.91100  1.0000
  O   O8        1.0  0.37000  0.52600  0.91100  1.0000
  O   O9        1.0  0.13000  0.97400  0.91100  1.0000
  O   O10       1.0  0.75000  0.75000  0.93400  1.0000
  Sb  Sb1       1.0  0.55400  0.15400  0.30100  1.0000
  Sb  Sb2       1.0  0.94600  0.34600  0.30100  1.0000
  Sb  Sb3       1.0  0.34600  0.55400  0.30100  1.0000
  Sb  Sb4       1.0  0.15400  0.94600  0.30100  1.0000
  Sb  Sb5       1.0  0.75000  0.75000  0.31500  1.0000
  Sb  Sb6       1.0  0.25000  0.25000  0.68500  1.0000
  Sb  Sb7       1.0  0.84600  0.05390  0.69900  1.0000
  Sb  Sb8       1.0  0.65400  0.44600  0.69900  1.0000
  Sb  Sb9       1.0  0.05390  0.65400  0.69900  1.0000
  Sb  Sb10      1.0  0.44600  0.84600  0.69900  1.0000
  Sm  Sm1       1.0  0.83200  0.52400  0.00150  1.0000
  Sm  Sm2       1.0  0.52400  0.66800  0.00150  1.0000
  Sm  Sm3       1.0  0.97600  0.83200  0.00150  1.0000
  Sm  Sm4       1.0  0.66800  0.97600  0.00150  1.0000
  Sm  Sm5       1.0  0.25000  0.25000  0.33100  1.0000
  Sm  Sm6       1.0  0.85400  0.04540  0.34500  1.0000
  Sm  Sm7       1.0  0.64600  0.45500  0.34500  1.0000
  Sm  Sm8       1.0  0.04540  0.64600  0.34500  1.0000
  Sm  Sm9       1.0  0.45500  0.85400  0.34500  1.0000
  Sm  Sm10      1.0  0.54500  0.14600  0.65500  1.0000
  Sm  Sm11      1.0  0.95500  0.35400  0.65500  1.0000
  Sm  Sm12      1.0  0.35400  0.54500  0.65500  1.0000
  Sm  Sm13      1.0  0.14600  0.95500  0.65500  1.0000
  Sm  Sm14      1.0  0.75000  0.75000  0.66900  1.0000
  Sm  Sm15      1.0  0.33200  0.02390  0.99900  1.0000
  Sm  Sm16      1.0  0.02390  0.16800  0.99900  1.0000
  Sm  Sm17      1.0  0.47600  0.33200  0.99900  1.0000
  Sm  Sm18      1.0  0.16800  0.47600  0.99900  1.0000
