data_image0
_chemical_formula_structural       K4N8O24Pd2
_chemical_formula_sum              "K4 N8 O24 Pd2"
_cell_length_a       7.72693
_cell_length_b       7.20162
_cell_length_c       9.3002
_cell_angle_alpha    90
_cell_angle_beta     99.5668
_cell_angle_gamma    90

_space_group_name_H-M_alt    "P 1"
_space_group_IT_number       1

loop_
  _space_group_symop_operation_xyz
  'x, y, z'

loop_
  _atom_site_type_symbol
  _atom_site_label
  _atom_site_symmetry_multiplicity
  _atom_site_fract_x
  _atom_site_fract_y
  _atom_site_fract_z
  _atom_site_occupancy
  K   K1        1.0  0.35000  0.56200  0.17100  1.0000
  K   K2        1.0  0.65000  0.06170  0.32900  1.0000
  K   K3        1.0  0.35000  0.93800  0.67100  1.0000
  K   K4        1.0  0.65000  0.43800  0.82900  1.0000
  N   N1        1.0  0.66600  0.85500  0.02890  1.0000
  N   N2        1.0  0.81900  0.44700  0.20600  1.0000
  N   N3        1.0  0.18100  0.94700  0.29400  1.0000
  N   N4        1.0  0.33400  0.35500  0.47100  1.0000
  N   N5        1.0  0.66600  0.64500  0.52900  1.0000
  N   N6        1.0  0.81900  0.05290  0.70600  1.0000
  N   N7        1.0  0.18100  0.55300  0.79400  1.0000
  N   N8        1.0  0.33400  0.14500  0.97100  1.0000
  O   O1        1.0  0.53800  0.83200  0.09230  1.0000
  O   O2        1.0  0.32200  0.20900  0.09280  1.0000
  O   O3        1.0  0.79400  0.95700  0.10000  1.0000
  O   O4        1.0  0.68900  0.38700  0.12000  1.0000
  O   O5        1.0  0.16200  0.87400  0.16200  1.0000
  O   O6        1.0  0.92300  0.56500  0.17500  1.0000
  O   O7        1.0  0.07700  0.06470  0.32500  1.0000
  O   O8        1.0  0.83800  0.37400  0.33800  1.0000
  O   O9        1.0  0.31100  0.88700  0.38000  1.0000
  O   O10       1.0  0.20600  0.45700  0.40000  1.0000
  O   O11       1.0  0.67800  0.70900  0.40700  1.0000
  O   O12       1.0  0.46200  0.33200  0.40800  1.0000
  O   O13       1.0  0.53800  0.66800  0.59200  1.0000
  O   O14       1.0  0.32200  0.29100  0.59300  1.0000
  O   O15       1.0  0.79400  0.54300  0.60000  1.0000
  O   O16       1.0  0.68900  0.11300  0.62000  1.0000
  O   O17       1.0  0.16200  0.62600  0.66200  1.0000
  O   O18       1.0  0.92300  0.93500  0.67500  1.0000
  O   O19       1.0  0.07700  0.43500  0.82500  1.0000
  O   O20       1.0  0.83800  0.12600  0.83800  1.0000
  O   O21       1.0  0.31100  0.61300  0.88000  1.0000
  O   O22       1.0  0.20600  0.04320  0.90000  1.0000
  O   O23       1.0  0.67800  0.79100  0.90700  1.0000
  O   O24       1.0  0.46200  0.16800  0.90800  1.0000
  Pd  Pd1       1.0  0.00000  0.00000  0.00000  1.0000
  Pd  Pd2       1.0  0.00000  0.50000  0.50000  1.0000
