data_image0
_chemical_formula_structural       C4Cl2H14N8O8S2
_chemical_formula_sum              "C4 Cl2 H14 N8 O8 S2"
_cell_length_a       5.64715
_cell_length_b       8.32824
_cell_length_c       8.86076
_cell_angle_alpha    109.769
_cell_angle_beta     93.2328
_cell_angle_gamma    106.042

_space_group_name_H-M_alt    "P 1"
_space_group_IT_number       1

loop_
  _space_group_symop_operation_xyz
  'x, y, z'

loop_
  _atom_site_type_symbol
  _atom_site_label
  _atom_site_symmetry_multiplicity
  _atom_site_fract_x
  _atom_site_fract_y
  _atom_site_fract_z
  _atom_site_occupancy
  C   C1        1.0  0.21500  0.59300  0.16600  1.0000
  C   C2        1.0  0.93500  0.76500  0.29600  1.0000
  C   C3        1.0  0.06450  0.23500  0.70400  1.0000
  C   C4        1.0  0.78500  0.40700  0.83400  1.0000
  Cl  Cl1       1.0  0.65600  0.22600  0.33400  1.0000
  Cl  Cl2       1.0  0.34400  0.77400  0.66600  1.0000
  H   H1        1.0  0.39300  0.40400  0.08710  1.0000
  H   H2        1.0  0.14900  0.89200  0.17100  1.0000
  H   H3        1.0  0.16300  0.35600  0.20600  1.0000
  H   H4        1.0  0.93200  0.99700  0.26300  1.0000
  H   H5        1.0  0.96800  0.53800  0.31700  1.0000
  H   H6        1.0  0.67500  0.85600  0.42100  1.0000
  H   H7        1.0  0.69600  0.65200  0.42300  1.0000
  H   H8        1.0  0.30400  0.34800  0.57700  1.0000
  H   H9        1.0  0.32500  0.14400  0.57900  1.0000
  H   H10       1.0  0.03220  0.46200  0.68300  1.0000
  H   H11       1.0  0.06810  0.00298  0.73700  1.0000
  H   H12       1.0  0.83700  0.64400  0.79400  1.0000
  H   H13       1.0  0.85100  0.10800  0.82900  1.0000
  H   H14       1.0  0.60700  0.59600  0.91300  1.0000
  N   N1        1.0  0.26600  0.44400  0.15900  1.0000
  N   N2        1.0  0.00626  0.89400  0.23800  1.0000
  N   N3        1.0  0.03130  0.62500  0.25800  1.0000
  N   N4        1.0  0.76900  0.76400  0.39800  1.0000
  N   N5        1.0  0.23100  0.23600  0.60200  1.0000
  N   N6        1.0  0.96900  0.37500  0.74200  1.0000
  N   N7        1.0  0.99400  0.10600  0.76200  1.0000
  N   N8        1.0  0.73400  0.55600  0.84100  1.0000
  O   O1        1.0  0.43000  0.17600  0.22200  1.0000
  O   O2        1.0  0.86300  0.20100  0.24700  1.0000
  O   O3        1.0  0.62300  0.11800  0.43500  1.0000
  O   O4        1.0  0.72200  0.41700  0.44000  1.0000
  O   O5        1.0  0.27800  0.58300  0.56000  1.0000
  O   O6        1.0  0.37700  0.88200  0.56500  1.0000
  O   O7        1.0  0.13700  0.79900  0.75300  1.0000
  O   O8        1.0  0.57000  0.82400  0.77800  1.0000
  S   S1        1.0  0.36600  0.72600  0.07250  1.0000
  S   S2        1.0  0.63400  0.27400  0.92700  1.0000
