data_image0
_chemical_formula_structural       Ag4Hg4O24Te6
_chemical_formula_sum              "Ag4 Hg4 O24 Te6"
_cell_length_a       6.52117
_cell_length_b       6.13673
_cell_length_c       13.0764
_cell_angle_alpha    90
_cell_angle_beta     94.591
_cell_angle_gamma    90

_space_group_name_H-M_alt    "P 1"
_space_group_IT_number       1

loop_
  _space_group_symop_operation_xyz
  'x, y, z'

loop_
  _atom_site_type_symbol
  _atom_site_label
  _atom_site_symmetry_multiplicity
  _atom_site_fract_x
  _atom_site_fract_y
  _atom_site_fract_z
  _atom_site_occupancy
  Ag  Ag1       1.0  0.31000  0.12700  0.20900  1.0000
  Ag  Ag2       1.0  0.19000  0.62700  0.29100  1.0000
  Ag  Ag3       1.0  0.81000  0.37300  0.70900  1.0000
  Ag  Ag4       1.0  0.69000  0.87300  0.79100  1.0000
  Hg  Hg1       1.0  0.80700  0.04120  0.09950  1.0000
  Hg  Hg2       1.0  0.69300  0.54100  0.40100  1.0000
  Hg  Hg3       1.0  0.30700  0.45900  0.59900  1.0000
  Hg  Hg4       1.0  0.19300  0.95900  0.90100  1.0000
  O   O1        1.0  0.48300  0.30700  0.03650  1.0000
  O   O2        1.0  0.06520  0.21200  0.05450  1.0000
  O   O3        1.0  0.21300  0.63800  0.09530  1.0000
  O   O4        1.0  0.82000  0.54900  0.11300  1.0000
  O   O5        1.0  0.55200  0.88400  0.15700  1.0000
  O   O6        1.0  0.49600  0.45400  0.23600  1.0000
  O   O7        1.0  0.00423  0.95400  0.26400  1.0000
  O   O8        1.0  0.94800  0.38400  0.34300  1.0000
  O   O9        1.0  0.68000  0.04910  0.38700  1.0000
  O   O10       1.0  0.28700  0.13800  0.40500  1.0000
  O   O11       1.0  0.43500  0.71200  0.44500  1.0000
  O   O12       1.0  0.01660  0.80700  0.46400  1.0000
  O   O13       1.0  0.98300  0.19300  0.53600  1.0000
  O   O14       1.0  0.56500  0.28800  0.55500  1.0000
  O   O15       1.0  0.71300  0.86200  0.59500  1.0000
  O   O16       1.0  0.32000  0.95100  0.61300  1.0000
  O   O17       1.0  0.05200  0.61600  0.65700  1.0000
  O   O18       1.0  0.99600  0.04550  0.73600  1.0000
  O   O19       1.0  0.50400  0.54600  0.76400  1.0000
  O   O20       1.0  0.44800  0.11600  0.84300  1.0000
  O   O21       1.0  0.18000  0.45100  0.88700  1.0000
  O   O22       1.0  0.78700  0.36200  0.90500  1.0000
  O   O23       1.0  0.93500  0.78800  0.94500  1.0000
  O   O24       1.0  0.51700  0.69300  0.96400  1.0000
  Te  Te1       1.0  0.00000  0.50000  0.00000  1.0000
  Te  Te2       1.0  0.51800  0.59100  0.10900  1.0000
  Te  Te3       1.0  0.98200  0.09150  0.39100  1.0000
  Te  Te4       1.0  0.50000  0.00000  0.50000  1.0000
  Te  Te5       1.0  0.01760  0.90900  0.60900  1.0000
  Te  Te6       1.0  0.48200  0.40900  0.89100  1.0000
