data_image0
_chemical_formula_structural       F30O2Sb2Xe4
_chemical_formula_sum              "F30 O2 Sb2 Xe4"
_cell_length_a       5.34694
_cell_length_b       8.06446
_cell_length_c       11.6295
_cell_angle_alpha    90
_cell_angle_beta     103.196
_cell_angle_gamma    90

_space_group_name_H-M_alt    "P 1"
_space_group_IT_number       1

loop_
  _space_group_symop_operation_xyz
  'x, y, z'

loop_
  _atom_site_type_symbol
  _atom_site_label
  _atom_site_symmetry_multiplicity
  _atom_site_fract_x
  _atom_site_fract_y
  _atom_site_fract_z
  _atom_site_occupancy
  F   F1        1.0  0.94100  0.57500  0.08260  1.0000
  F   F2        1.0  0.94100  0.92500  0.08260  1.0000
  F   F3        1.0  0.42000  0.57600  0.10100  1.0000
  F   F4        1.0  0.42000  0.92400  0.10100  1.0000
  F   F5        1.0  0.92300  0.25000  0.11700  1.0000
  F   F6        1.0  0.28700  0.07910  0.24000  1.0000
  F   F7        1.0  0.28700  0.42100  0.24000  1.0000
  F   F8        1.0  0.79900  0.08000  0.28300  1.0000
  F   F9        1.0  0.79900  0.42000  0.28300  1.0000
  F   F10       1.0  0.99100  0.75000  0.29000  1.0000
  F   F11       1.0  0.51500  0.75000  0.34400  1.0000
  F   F12       1.0  0.50700  0.25000  0.41900  1.0000
  F   F13       1.0  0.24200  0.51600  0.44400  1.0000
  F   F14       1.0  0.24200  0.98400  0.44400  1.0000
  F   F15       1.0  0.02290  0.25000  0.48800  1.0000
  F   F16       1.0  0.97700  0.75000  0.51200  1.0000
  F   F17       1.0  0.75800  0.01640  0.55600  1.0000
  F   F18       1.0  0.75800  0.48400  0.55600  1.0000
  F   F19       1.0  0.49300  0.75000  0.58100  1.0000
  F   F20       1.0  0.48500  0.25000  0.65600  1.0000
  F   F21       1.0  0.00911  0.25000  0.71000  1.0000
  F   F22       1.0  0.20100  0.58000  0.71700  1.0000
  F   F23       1.0  0.20100  0.92000  0.71700  1.0000
  F   F24       1.0  0.71300  0.57900  0.76000  1.0000
  F   F25       1.0  0.71300  0.92100  0.76000  1.0000
  F   F26       1.0  0.07700  0.75000  0.88300  1.0000
  F   F27       1.0  0.58000  0.07570  0.89900  1.0000
  F   F28       1.0  0.58000  0.42400  0.89900  1.0000
  F   F29       1.0  0.05940  0.07460  0.91700  1.0000
  F   F30       1.0  0.05940  0.42500  0.91700  1.0000
  O   O1        1.0  0.43000  0.25000  0.07430  1.0000
  O   O2        1.0  0.57000  0.75000  0.92600  1.0000
  Sb  Sb1       1.0  0.25600  0.75000  0.43000  1.0000
  Sb  Sb2       1.0  0.74400  0.25000  0.57000  1.0000
  Xe  Xe1       1.0  0.67700  0.75000  0.08530  1.0000
  Xe  Xe2       1.0  0.06860  0.25000  0.28600  1.0000
  Xe  Xe3       1.0  0.93100  0.75000  0.71400  1.0000
  Xe  Xe4       1.0  0.32300  0.25000  0.91500  1.0000
