data_image0
_chemical_formula_structural       K4O24P8Zn2
_chemical_formula_sum              "K4 O24 P8 Zn2"
_cell_length_a       7.5643
_cell_length_b       8.28535
_cell_length_c       8.28535
_cell_angle_alpha    96.3162
_cell_angle_beta     98.2871
_cell_angle_gamma    98.2871

_space_group_name_H-M_alt    "P 1"
_space_group_IT_number       1

loop_
  _space_group_symop_operation_xyz
  'x, y, z'

loop_
  _atom_site_type_symbol
  _atom_site_label
  _atom_site_symmetry_multiplicity
  _atom_site_fract_x
  _atom_site_fract_y
  _atom_site_fract_z
  _atom_site_occupancy
  K   K1        1.0  0.41700  0.46700  0.20300  1.0000
  K   K2        1.0  0.91700  0.20300  0.46700  1.0000
  K   K3        1.0  0.07530  0.75500  0.50500  1.0000
  K   K4        1.0  0.57500  0.50500  0.75500  1.0000
  O   O1        1.0  0.48400  0.72100  0.00741  1.0000
  O   O2        1.0  0.14400  0.14200  0.05330  1.0000
  O   O3        1.0  0.26800  0.88100  0.12800  1.0000
  O   O4        1.0  0.64400  0.05330  0.14200  1.0000
  O   O5        1.0  0.84000  0.31500  0.15100  1.0000
  O   O6        1.0  0.77900  0.60500  0.18300  1.0000
  O   O7        1.0  0.10500  0.54300  0.23600  1.0000
  O   O8        1.0  0.02830  0.97400  0.27600  1.0000
  O   O9        1.0  0.34000  0.15100  0.31500  1.0000
  O   O10       1.0  0.70700  0.86800  0.40200  1.0000
  O   O11       1.0  0.46200  0.65100  0.48800  1.0000
  O   O12       1.0  0.41500  0.94200  0.49800  1.0000
  O   O13       1.0  0.60500  0.23600  0.54300  1.0000
  O   O14       1.0  0.27900  0.18300  0.60500  1.0000
  O   O15       1.0  0.96200  0.48800  0.65100  1.0000
  O   O16       1.0  0.66000  0.86000  0.69700  1.0000
  O   O17       1.0  0.98400  0.00741  0.72100  1.0000
  O   O18       1.0  0.36300  0.95100  0.85400  1.0000
  O   O19       1.0  0.16000  0.69700  0.86000  1.0000
  O   O20       1.0  0.20700  0.40200  0.86800  1.0000
  O   O21       1.0  0.76800  0.12800  0.88100  1.0000
  O   O22       1.0  0.91500  0.49800  0.94200  1.0000
  O   O23       1.0  0.86300  0.85400  0.95100  1.0000
  O   O24       1.0  0.52800  0.27600  0.97400  1.0000
  P   P1        1.0  0.67700  0.18700  0.03640  1.0000
  P   P2        1.0  0.92000  0.50500  0.13900  1.0000
  P   P3        1.0  0.17700  0.03640  0.18700  1.0000
  P   P4        1.0  0.42000  0.13900  0.50500  1.0000
  P   P5        1.0  0.56600  0.82100  0.50700  1.0000
  P   P6        1.0  0.83500  0.96000  0.81700  1.0000
  P   P7        1.0  0.06580  0.50700  0.82100  1.0000
  P   P8        1.0  0.33500  0.81700  0.96000  1.0000
  Zn  Zn1       1.0  0.74700  0.84000  0.15900  1.0000
  Zn  Zn2       1.0  0.24700  0.15900  0.84000  1.0000
