data_image0
_chemical_formula_structural       Cu2O24P4Rb4V4
_chemical_formula_sum              "Cu2 O24 P4 Rb4 V4"
_cell_length_a       4.88778
_cell_length_b       11.4141
_cell_length_c       9.45355
_cell_angle_alpha    90
_cell_angle_beta     93.4883
_cell_angle_gamma    90

_space_group_name_H-M_alt    "P 1"
_space_group_IT_number       1

loop_
  _space_group_symop_operation_xyz
  'x, y, z'

loop_
  _atom_site_type_symbol
  _atom_site_label
  _atom_site_symmetry_multiplicity
  _atom_site_fract_x
  _atom_site_fract_y
  _atom_site_fract_z
  _atom_site_occupancy
  Cu  Cu1       1.0  0.50000  0.00000  0.00000  1.0000
  Cu  Cu2       1.0  0.50000  0.50000  0.50000  1.0000
  O   O1        1.0  0.07820  0.17300  0.07010  1.0000
  O   O2        1.0  0.31700  0.88500  0.10700  1.0000
  O   O3        1.0  0.83600  0.97200  0.12100  1.0000
  O   O4        1.0  0.90000  0.52500  0.13000  1.0000
  O   O5        1.0  0.91900  0.76300  0.18300  1.0000
  O   O6        1.0  0.37800  0.62800  0.21200  1.0000
  O   O7        1.0  0.62200  0.12800  0.28800  1.0000
  O   O8        1.0  0.08060  0.26300  0.31700  1.0000
  O   O9        1.0  0.09970  0.02480  0.37000  1.0000
  O   O10       1.0  0.16400  0.47200  0.37900  1.0000
  O   O11       1.0  0.68300  0.38500  0.39300  1.0000
  O   O12       1.0  0.92200  0.67300  0.43000  1.0000
  O   O13       1.0  0.07820  0.32700  0.57000  1.0000
  O   O14       1.0  0.31700  0.61500  0.60700  1.0000
  O   O15       1.0  0.83600  0.52800  0.62100  1.0000
  O   O16       1.0  0.90000  0.97500  0.63000  1.0000
  O   O17       1.0  0.91900  0.73700  0.68300  1.0000
  O   O18       1.0  0.37800  0.87200  0.71200  1.0000
  O   O19       1.0  0.62200  0.37200  0.78800  1.0000
  O   O20       1.0  0.08060  0.23700  0.81700  1.0000
  O   O21       1.0  0.09970  0.47500  0.87000  1.0000
  O   O22       1.0  0.16400  0.02830  0.87900  1.0000
  O   O23       1.0  0.68300  0.11500  0.89300  1.0000
  O   O24       1.0  0.92200  0.82700  0.93000  1.0000
  P   P1        1.0  0.00948  0.86100  0.08430  1.0000
  P   P2        1.0  0.99100  0.36100  0.41600  1.0000
  P   P3        1.0  0.00948  0.63900  0.58400  1.0000
  P   P4        1.0  0.99100  0.13900  0.91600  1.0000
  Rb  Rb1       1.0  0.44700  0.36300  0.10200  1.0000
  Rb  Rb2       1.0  0.55300  0.86300  0.39800  1.0000
  Rb  Rb3       1.0  0.44700  0.13700  0.60200  1.0000
  Rb  Rb4       1.0  0.55300  0.63700  0.89800  1.0000
  V   V1        1.0  0.05480  0.61200  0.24800  1.0000
  V   V2        1.0  0.94500  0.11200  0.25200  1.0000
  V   V3        1.0  0.05480  0.88800  0.74800  1.0000
  V   V4        1.0  0.94500  0.38800  0.75200  1.0000
