data_image0
_chemical_formula_structural       H8K4Mn2O20S4
_chemical_formula_sum              "H8 K4 Mn2 O20 S4"
_cell_length_a       6.45062
_cell_length_b       7.21086
_cell_length_c       10.6791
_cell_angle_alpha    72.5937
_cell_angle_beta     74.271
_cell_angle_gamma    70.0965

_space_group_name_H-M_alt    "P 1"
_space_group_IT_number       1

loop_
  _space_group_symop_operation_xyz
  'x, y, z'

loop_
  _atom_site_type_symbol
  _atom_site_label
  _atom_site_symmetry_multiplicity
  _atom_site_fract_x
  _atom_site_fract_y
  _atom_site_fract_z
  _atom_site_occupancy
  H   H1        1.0  0.36700  0.68300  0.20000  1.0000
  H   H2        1.0  0.17500  0.43400  0.21800  1.0000
  H   H3        1.0  0.38500  0.33100  0.29500  1.0000
  H   H4        1.0  0.26900  0.65200  0.35700  1.0000
  H   H5        1.0  0.73100  0.34800  0.64300  1.0000
  H   H6        1.0  0.61500  0.66900  0.70500  1.0000
  H   H7        1.0  0.82500  0.56600  0.78200  1.0000
  H   H8        1.0  0.63300  0.31700  0.80000  1.0000
  K   K1        1.0  0.73900  0.26500  0.06960  1.0000
  K   K2        1.0  0.79300  0.75100  0.40100  1.0000
  K   K3        1.0  0.20700  0.24900  0.59900  1.0000
  K   K4        1.0  0.26100  0.73500  0.93000  1.0000
  Mn  Mn1       1.0  0.24800  0.03440  0.25000  1.0000
  Mn  Mn2       1.0  0.75200  0.96600  0.75000  1.0000
  O   O1        1.0  0.18900  0.10800  0.04690  1.0000
  O   O2        1.0  0.57900  0.66400  0.07540  1.0000
  O   O3        1.0  0.93200  0.61800  0.13800  1.0000
  O   O4        1.0  0.61400  0.90800  0.17900  1.0000
  O   O5        1.0  0.30700  0.31600  0.23000  1.0000
  O   O6        1.0  0.23200  0.72900  0.26900  1.0000
  O   O7        1.0  0.88500  0.13100  0.31300  1.0000
  O   O8        1.0  0.52900  0.36400  0.38500  1.0000
  O   O9        1.0  0.30900  0.93500  0.45600  1.0000
  O   O10       1.0  0.86200  0.34400  0.46000  1.0000
  O   O11       1.0  0.13800  0.65600  0.54000  1.0000
  O   O12       1.0  0.69100  0.06490  0.54400  1.0000
  O   O13       1.0  0.47100  0.63600  0.61500  1.0000
  O   O14       1.0  0.11500  0.86900  0.68700  1.0000
  O   O15       1.0  0.76800  0.27100  0.73100  1.0000
  O   O16       1.0  0.69300  0.68400  0.77000  1.0000
  O   O17       1.0  0.38600  0.09200  0.82100  1.0000
  O   O18       1.0  0.06750  0.38200  0.86200  1.0000
  O   O19       1.0  0.42100  0.33600  0.92500  1.0000
  O   O20       1.0  0.81100  0.89200  0.95300  1.0000
  S   S1        1.0  0.73500  0.76700  0.08680  1.0000
  S   S2        1.0  0.74400  0.22900  0.42600  1.0000
  S   S3        1.0  0.25600  0.77100  0.57400  1.0000
  S   S4        1.0  0.26400  0.23300  0.91300  1.0000
