data_image0
_chemical_formula_structural       Na2O24P6V6
_chemical_formula_sum              "Na2 O24 P6 V6"
_cell_length_a       6.4641
_cell_length_b       9.04985
_cell_length_c       9.04985
_cell_angle_alpha    94.4602
_cell_angle_beta     110.925
_cell_angle_gamma    110.925

_space_group_name_H-M_alt    "P 1"
_space_group_IT_number       1

loop_
  _space_group_symop_operation_xyz
  'x, y, z'

loop_
  _atom_site_type_symbol
  _atom_site_label
  _atom_site_symmetry_multiplicity
  _atom_site_fract_x
  _atom_site_fract_y
  _atom_site_fract_z
  _atom_site_occupancy
  Na  Na1       1.0  0.40100  0.75000  0.25000  1.0000
  Na  Na2       1.0  0.59900  0.25000  0.75000  1.0000
  O   O1        1.0  0.77700  0.35300  0.07670  1.0000
  O   O2        1.0  0.65200  0.63200  0.13200  1.0000
  O   O3        1.0  0.34900  0.14300  0.13400  1.0000
  O   O4        1.0  0.92800  0.13400  0.14300  1.0000
  O   O5        1.0  0.22300  0.42300  0.14700  1.0000
  O   O6        1.0  0.05350  0.84500  0.15500  1.0000
  O   O7        1.0  0.05350  0.65500  0.34500  1.0000
  O   O8        1.0  0.65200  0.07670  0.35300  1.0000
  O   O9        1.0  0.65100  0.36600  0.35700  1.0000
  O   O10       1.0  0.07200  0.35700  0.36600  1.0000
  O   O11       1.0  0.88800  0.86800  0.36800  1.0000
  O   O12       1.0  0.34800  0.14700  0.42300  1.0000
  O   O13       1.0  0.65200  0.85300  0.57700  1.0000
  O   O14       1.0  0.11200  0.13200  0.63200  1.0000
  O   O15       1.0  0.92800  0.64300  0.63400  1.0000
  O   O16       1.0  0.34900  0.63400  0.64300  1.0000
  O   O17       1.0  0.34800  0.92300  0.64700  1.0000
  O   O18       1.0  0.94600  0.34500  0.65500  1.0000
  O   O19       1.0  0.94600  0.15500  0.84500  1.0000
  O   O20       1.0  0.77700  0.57700  0.85300  1.0000
  O   O21       1.0  0.07200  0.86600  0.85700  1.0000
  O   O22       1.0  0.65100  0.85700  0.86600  1.0000
  O   O23       1.0  0.34800  0.36800  0.86800  1.0000
  O   O24       1.0  0.22300  0.64700  0.92300  1.0000
  P   P1        1.0  0.00000  0.32500  0.17500  1.0000
  P   P2        1.0  0.92000  0.75000  0.25000  1.0000
  P   P3        1.0  0.50000  0.17500  0.32500  1.0000
  P   P4        1.0  0.50000  0.82500  0.67500  1.0000
  P   P5        1.0  0.08040  0.25000  0.75000  1.0000
  P   P6        1.0  1.00000  0.67500  0.82500  1.0000
  V   V1        1.0  0.00000  0.00000  0.00000  1.0000
  V   V2        1.0  0.50000  0.38300  0.11700  1.0000
  V   V3        1.0  0.00000  0.11700  0.38300  1.0000
  V   V4        1.0  0.00000  0.50000  0.50000  1.0000
  V   V5        1.0  0.00000  0.88300  0.61700  1.0000
  V   V6        1.0  0.50000  0.61700  0.88300  1.0000
