data_image0
_chemical_formula_structural       Ir4La9O24Rb
_chemical_formula_sum              "Ir4 La9 O24 Rb1"
_cell_length_a       7.70093
_cell_length_b       7.70093
_cell_length_c       10.4464
_cell_angle_alpha    111.629
_cell_angle_beta     111.629
_cell_angle_gamma    90

_space_group_name_H-M_alt    "P 1"
_space_group_IT_number       1

loop_
  _space_group_symop_operation_xyz
  'x, y, z'

loop_
  _atom_site_type_symbol
  _atom_site_label
  _atom_site_symmetry_multiplicity
  _atom_site_fract_x
  _atom_site_fract_y
  _atom_site_fract_z
  _atom_site_occupancy
  Ir  Ir1       1.0  0.50000  0.00000  0.00000  1.0000
  Ir  Ir2       1.0  0.00000  0.50000  0.00000  1.0000
  Ir  Ir3       1.0  0.24100  0.24100  0.48200  1.0000
  Ir  Ir4       1.0  0.75900  0.75900  0.51800  1.0000
  La  La1       1.0  0.00000  0.00000  0.00000  1.0000
  La  La2       1.0  0.46000  0.32500  0.28900  1.0000
  La  La3       1.0  0.96300  0.46000  0.28900  1.0000
  La  La4       1.0  0.32500  0.82900  0.28900  1.0000
  La  La5       1.0  0.82900  0.96300  0.28900  1.0000
  La  La6       1.0  0.17100  0.03670  0.71100  1.0000
  La  La7       1.0  0.67500  0.17100  0.71100  1.0000
  La  La8       1.0  0.03670  0.54000  0.71100  1.0000
  La  La9       1.0  0.54000  0.67500  0.71100  1.0000
  O   O1        1.0  0.28700  0.13500  0.00000  1.0000
  O   O2        1.0  0.86500  0.28700  0.00000  1.0000
  O   O3        1.0  0.13500  0.71300  0.00000  1.0000
  O   O4        1.0  0.71300  0.86500  0.00000  1.0000
  O   O5        1.0  0.68700  0.22300  0.17700  1.0000
  O   O6        1.0  0.22300  0.48900  0.17700  1.0000
  O   O7        1.0  0.95400  0.68700  0.17700  1.0000
  O   O8        1.0  0.48900  0.95400  0.17700  1.0000
  O   O9        1.0  0.12800  0.12800  0.25600  1.0000
  O   O10       1.0  0.64900  0.64900  0.29900  1.0000
  O   O11       1.0  0.48300  0.17400  0.46900  1.0000
  O   O12       1.0  0.98700  0.29600  0.46900  1.0000
  O   O13       1.0  0.29600  0.48300  0.46900  1.0000
  O   O14       1.0  0.17400  0.98700  0.46900  1.0000
  O   O15       1.0  0.82600  0.01350  0.53100  1.0000
  O   O16       1.0  0.70400  0.51700  0.53100  1.0000
  O   O17       1.0  0.01350  0.70400  0.53100  1.0000
  O   O18       1.0  0.51700  0.82600  0.53100  1.0000
  O   O19       1.0  0.35100  0.35100  0.70100  1.0000
  O   O20       1.0  0.87200  0.87200  0.74400  1.0000
  O   O21       1.0  0.51100  0.04640  0.82300  1.0000
  O   O22       1.0  0.04640  0.31300  0.82300  1.0000
  O   O23       1.0  0.77700  0.51100  0.82300  1.0000
  O   O24       1.0  0.31300  0.77700  0.82300  1.0000
  Rb  Rb1       1.0  0.50000  0.50000  0.00000  1.0000
