data_image0
_chemical_formula_structural       C4Gd2H14O16S2
_chemical_formula_sum              "C4 Gd2 H14 O16 S2"
_cell_length_a       6.64589
_cell_length_b       6.74697
_cell_length_c       8.43492
_cell_angle_alpha    110.134
_cell_angle_beta     89.7283
_cell_angle_gamma    107.613

_space_group_name_H-M_alt    "P 1"
_space_group_IT_number       1

loop_
  _space_group_symop_operation_xyz
  'x, y, z'

loop_
  _atom_site_type_symbol
  _atom_site_label
  _atom_site_symmetry_multiplicity
  _atom_site_fract_x
  _atom_site_fract_y
  _atom_site_fract_z
  _atom_site_occupancy
  C   C1        1.0  0.26300  0.88200  0.12000  1.0000
  C   C2        1.0  0.45400  0.00701  0.24500  1.0000
  C   C3        1.0  0.54600  0.99300  0.75500  1.0000
  C   C4        1.0  0.73700  0.11800  0.88000  1.0000
  Gd  Gd1       1.0  0.11500  0.34400  0.13300  1.0000
  Gd  Gd2       1.0  0.88500  0.65600  0.86700  1.0000
  H   H1        1.0  0.58800  0.06850  0.17900  1.0000
  H   H2        1.0  0.91500  0.00558  0.29300  1.0000
  H   H3        1.0  0.49100  0.90400  0.30800  1.0000
  H   H4        1.0  0.42600  0.15300  0.33800  1.0000
  H   H5        1.0  0.10800  0.19400  0.43200  1.0000
  H   H6        1.0  0.39700  0.67400  0.44300  1.0000
  H   H7        1.0  0.83200  0.31600  0.49500  1.0000
  H   H8        1.0  0.16800  0.68400  0.50500  1.0000
  H   H9        1.0  0.60300  0.32600  0.55700  1.0000
  H   H10       1.0  0.89200  0.80600  0.56800  1.0000
  H   H11       1.0  0.57400  0.84700  0.66200  1.0000
  H   H12       1.0  0.50900  0.09550  0.69200  1.0000
  H   H13       1.0  0.08490  0.99400  0.70700  1.0000
  H   H14       1.0  0.41200  0.93200  0.82100  1.0000
  O   O1        1.0  0.18200  0.98200  0.04570  1.0000
  O   O2        1.0  0.17300  0.67400  0.08190  1.0000
  O   O3        1.0  0.78700  0.73300  0.15300  1.0000
  O   O4        1.0  0.48100  0.43600  0.16900  1.0000
  O   O5        1.0  0.83100  0.45300  0.25900  1.0000
  O   O6        1.0  0.99100  0.16900  0.34600  1.0000
  O   O7        1.0  0.24300  0.61800  0.40900  1.0000
  O   O8        1.0  0.68000  0.73200  0.42600  1.0000
  O   O9        1.0  0.32000  0.26800  0.57400  1.0000
  O   O10       1.0  0.75700  0.38200  0.59100  1.0000
  O   O11       1.0  0.00914  0.83100  0.65400  1.0000
  O   O12       1.0  0.16900  0.54700  0.74100  1.0000
  O   O13       1.0  0.51900  0.56400  0.83100  1.0000
  O   O14       1.0  0.21300  0.26700  0.84700  1.0000
  O   O15       1.0  0.82700  0.32600  0.91800  1.0000
  O   O16       1.0  0.81800  0.01750  0.95400  1.0000
  S   S1        1.0  0.69400  0.58600  0.25100  1.0000
  S   S2        1.0  0.30600  0.41400  0.74900  1.0000
