data_image0
_chemical_formula_structural       Ag4H12N4O12Pd2S4
_chemical_formula_sum              "Ag4 H12 N4 O12 Pd2 S4"
_cell_length_a       6.93018
_cell_length_b       5.84505
_cell_length_c       10.2627
_cell_angle_alpha    90
_cell_angle_beta     108.043
_cell_angle_gamma    90

_space_group_name_H-M_alt    "P 1"
_space_group_IT_number       1

loop_
  _space_group_symop_operation_xyz
  'x, y, z'

loop_
  _atom_site_type_symbol
  _atom_site_label
  _atom_site_symmetry_multiplicity
  _atom_site_fract_x
  _atom_site_fract_y
  _atom_site_fract_z
  _atom_site_occupancy
  Ag  Ag1       1.0  0.42500  0.78000  0.14600  1.0000
  Ag  Ag2       1.0  0.57500  0.28000  0.35400  1.0000
  Ag  Ag3       1.0  0.42500  0.72000  0.64600  1.0000
  Ag  Ag4       1.0  0.57500  0.22000  0.85400  1.0000
  H   H1        1.0  0.84900  0.31600  0.12400  1.0000
  H   H2        1.0  0.79900  0.06340  0.18100  1.0000
  H   H3        1.0  0.03120  0.17000  0.24100  1.0000
  H   H4        1.0  0.96900  0.67000  0.25900  1.0000
  H   H5        1.0  0.20100  0.56300  0.31900  1.0000
  H   H6        1.0  0.15100  0.81600  0.37600  1.0000
  H   H7        1.0  0.84900  0.18400  0.62400  1.0000
  H   H8        1.0  0.79900  0.43700  0.68100  1.0000
  H   H9        1.0  0.03120  0.33000  0.74100  1.0000
  H   H10       1.0  0.96900  0.83000  0.75900  1.0000
  H   H11       1.0  0.20100  0.93700  0.81900  1.0000
  H   H12       1.0  0.15100  0.68400  0.87600  1.0000
  N   N1        1.0  0.90700  0.15500  0.15300  1.0000
  N   N2        1.0  0.09280  0.65500  0.34700  1.0000
  N   N3        1.0  0.90700  0.34500  0.65300  1.0000
  N   N4        1.0  0.09280  0.84500  0.84700  1.0000
  O   O1        1.0  0.73900  0.63600  0.10200  1.0000
  O   O2        1.0  0.45200  0.16600  0.10800  1.0000
  O   O3        1.0  0.21400  0.47000  0.11800  1.0000
  O   O4        1.0  0.78600  0.97000  0.38200  1.0000
  O   O5        1.0  0.54800  0.66600  0.39200  1.0000
  O   O6        1.0  0.26100  0.13600  0.39800  1.0000
  O   O7        1.0  0.73900  0.86400  0.60200  1.0000
  O   O8        1.0  0.45200  0.33400  0.60800  1.0000
  O   O9        1.0  0.21400  0.03030  0.61800  1.0000
  O   O10       1.0  0.78600  0.53000  0.88200  1.0000
  O   O11       1.0  0.54800  0.83400  0.89200  1.0000
  O   O12       1.0  0.26100  0.36400  0.89800  1.0000
  Pd  Pd1       1.0  0.00000  0.00000  0.00000  1.0000
  Pd  Pd2       1.0  0.00000  0.50000  0.50000  1.0000
  S   S1        1.0  0.24800  0.27500  0.03250  1.0000
  S   S2        1.0  0.75200  0.77500  0.46700  1.0000
  S   S3        1.0  0.24800  0.22500  0.53300  1.0000
  S   S4        1.0  0.75200  0.72500  0.96700  1.0000
