data_image0
_chemical_formula_structural       B2C6F8H20N2
_chemical_formula_sum              "B2 C6 F8 H20 N2"
_cell_length_a       5.12615
_cell_length_b       8.07684
_cell_length_c       7.13157
_cell_angle_alpha    90
_cell_angle_beta     103.539
_cell_angle_gamma    90

_space_group_name_H-M_alt    "P 1"
_space_group_IT_number       1

loop_
  _space_group_symop_operation_xyz
  'x, y, z'

loop_
  _atom_site_type_symbol
  _atom_site_label
  _atom_site_symmetry_multiplicity
  _atom_site_fract_x
  _atom_site_fract_y
  _atom_site_fract_z
  _atom_site_occupancy
  B   B1        1.0  0.51600  0.25000  0.29000  1.0000
  B   B2        1.0  0.48400  0.75000  0.71000  1.0000
  C   C1        1.0  0.19600  0.75000  0.08190  1.0000
  C   C2        1.0  0.92300  0.59800  0.26400  1.0000
  C   C3        1.0  0.92300  0.90200  0.26400  1.0000
  C   C4        1.0  0.07710  0.09790  0.73600  1.0000
  C   C5        1.0  0.07710  0.40200  0.73600  1.0000
  C   C6        1.0  0.80400  0.25000  0.91800  1.0000
  F   F1        1.0  0.41500  0.10800  0.18500  1.0000
  F   F2        1.0  0.41500  0.39200  0.18500  1.0000
  F   F3        1.0  0.79900  0.25000  0.33300  1.0000
  F   F4        1.0  0.43600  0.25000  0.46900  1.0000
  F   F5        1.0  0.56400  0.75000  0.53100  1.0000
  F   F6        1.0  0.20100  0.75000  0.66700  1.0000
  F   F7        1.0  0.58500  0.60800  0.81500  1.0000
  F   F8        1.0  0.58500  0.89200  0.81500  1.0000
  H   H1        1.0  0.96900  0.25000  0.04620  1.0000
  H   H2        1.0  0.31800  0.63900  0.08560  1.0000
  H   H3        1.0  0.31800  0.86100  0.08560  1.0000
  H   H4        1.0  0.76300  0.59200  0.13300  1.0000
  H   H5        1.0  0.76300  0.90800  0.13300  1.0000
  H   H6        1.0  0.05460  0.00926  0.27200  1.0000
  H   H7        1.0  0.05460  0.49100  0.27200  1.0000
  H   H8        1.0  0.24300  0.75000  0.37400  1.0000
  H   H9        1.0  0.83900  0.60500  0.39100  1.0000
  H   H10       1.0  0.83900  0.89500  0.39100  1.0000
  H   H11       1.0  0.16100  0.10500  0.60900  1.0000
  H   H12       1.0  0.16100  0.39500  0.60900  1.0000
  H   H13       1.0  0.75700  0.25000  0.62600  1.0000
  H   H14       1.0  0.94500  0.50900  0.72800  1.0000
  H   H15       1.0  0.94500  0.99100  0.72800  1.0000
  H   H16       1.0  0.23700  0.09190  0.86700  1.0000
  H   H17       1.0  0.23700  0.40800  0.86700  1.0000
  H   H18       1.0  0.68200  0.13900  0.91400  1.0000
  H   H19       1.0  0.68200  0.36100  0.91400  1.0000
  H   H20       1.0  0.03130  0.75000  0.95400  1.0000
  N   N1        1.0  0.08240  0.75000  0.25500  1.0000
  N   N2        1.0  0.91800  0.25000  0.74500  1.0000
