data_image0
_chemical_formula_structural       Pb8S22Sb8
_chemical_formula_sum              "Pb8 S22 Sb8"
_cell_length_a       15.5678
_cell_length_b       15.7129
_cell_length_c       3.97494
_cell_angle_alpha    90
_cell_angle_beta     90
_cell_angle_gamma    90

_space_group_name_H-M_alt    "P 1"
_space_group_IT_number       1

loop_
  _space_group_symop_operation_xyz
  'x, y, z'

loop_
  _atom_site_type_symbol
  _atom_site_label
  _atom_site_symmetry_multiplicity
  _atom_site_fract_x
  _atom_site_fract_y
  _atom_site_fract_z
  _atom_site_occupancy
  Pb  Pb1       1.0  0.11700  0.06210  0.00000  1.0000
  Pb  Pb2       1.0  0.74700  0.19000  0.00000  1.0000
  Pb  Pb3       1.0  0.24700  0.31000  0.00000  1.0000
  Pb  Pb4       1.0  0.61700  0.43800  0.00000  1.0000
  Pb  Pb5       1.0  0.38300  0.56200  0.00000  1.0000
  Pb  Pb6       1.0  0.75300  0.69000  0.00000  1.0000
  Pb  Pb7       1.0  0.25300  0.81000  0.00000  1.0000
  Pb  Pb8       1.0  0.88300  0.93800  0.00000  1.0000
  S   S1        1.0  0.57900  0.10900  0.00000  1.0000
  S   S2        1.0  0.33100  0.11300  0.00000  1.0000
  S   S3        1.0  0.96000  0.17700  0.00000  1.0000
  S   S4        1.0  0.46000  0.32300  0.00000  1.0000
  S   S5        1.0  0.83100  0.38700  0.00000  1.0000
  S   S6        1.0  0.07910  0.39100  0.00000  1.0000
  S   S7        1.0  0.92100  0.60900  0.00000  1.0000
  S   S8        1.0  0.16900  0.61300  0.00000  1.0000
  S   S9        1.0  0.54000  0.67700  0.00000  1.0000
  S   S10       1.0  0.04010  0.82300  0.00000  1.0000
  S   S11       1.0  0.66900  0.88700  0.00000  1.0000
  S   S12       1.0  0.42100  0.89100  0.00000  1.0000
  S   S13       1.0  0.00000  0.00000  0.50000  1.0000
  S   S14       1.0  0.77900  0.05500  0.50000  1.0000
  S   S15       1.0  0.15300  0.20500  0.50000  1.0000
  S   S16       1.0  0.65300  0.29500  0.50000  1.0000
  S   S17       1.0  0.27900  0.44500  0.50000  1.0000
  S   S18       1.0  0.50000  0.50000  0.50000  1.0000
  S   S19       1.0  0.72100  0.55500  0.50000  1.0000
  S   S20       1.0  0.34700  0.70500  0.50000  1.0000
  S   S21       1.0  0.84700  0.79500  0.50000  1.0000
  S   S22       1.0  0.22100  0.94500  0.50000  1.0000
  Sb  Sb1       1.0  0.36400  0.01020  0.50000  1.0000
  Sb  Sb2       1.0  0.51100  0.22600  0.50000  1.0000
  Sb  Sb3       1.0  0.01140  0.27400  0.50000  1.0000
  Sb  Sb4       1.0  0.86400  0.49000  0.50000  1.0000
  Sb  Sb5       1.0  0.13600  0.51000  0.50000  1.0000
  Sb  Sb6       1.0  0.98900  0.72600  0.50000  1.0000
  Sb  Sb7       1.0  0.48900  0.77400  0.50000  1.0000
  Sb  Sb8       1.0  0.63600  0.99000  0.50000  1.0000
