data_image0
_chemical_formula_structural       Cs2O12SrV4
_chemical_formula_sum              "Cs2 O12 Sr1 V4"
_cell_length_a       7.91122
_cell_length_b       7.91122
_cell_length_c       5.53874
_cell_angle_alpha    90
_cell_angle_beta     90
_cell_angle_gamma    90

_space_group_name_H-M_alt    "P 1"
_space_group_IT_number       1

loop_
  _space_group_symop_operation_xyz
  'x, y, z'

loop_
  _atom_site_type_symbol
  _atom_site_label
  _atom_site_symmetry_multiplicity
  _atom_site_fract_x
  _atom_site_fract_y
  _atom_site_fract_z
  _atom_site_occupancy
  Cs  Cs1       1.0  0.50000  0.00000  0.50000  1.0000
  Cs  Cs2       1.0  0.00000  0.50000  0.50000  1.0000
  O   O1        1.0  0.50000  0.23200  0.00000  1.0000
  O   O2        1.0  0.23200  0.50000  0.00000  1.0000
  O   O3        1.0  0.76800  0.50000  0.00000  1.0000
  O   O4        1.0  0.50000  0.76800  0.00000  1.0000
  O   O5        1.0  0.19200  0.19200  0.24800  1.0000
  O   O6        1.0  0.80800  0.19200  0.24800  1.0000
  O   O7        1.0  0.19200  0.80800  0.24800  1.0000
  O   O8        1.0  0.80800  0.80800  0.24800  1.0000
  O   O9        1.0  0.19200  0.19200  0.75200  1.0000
  O   O10       1.0  0.80800  0.19200  0.75200  1.0000
  O   O11       1.0  0.19200  0.80800  0.75200  1.0000
  O   O12       1.0  0.80800  0.80800  0.75200  1.0000
  Sr  Sr1       1.0  0.00000  0.00000  0.50000  1.0000
  V   V1        1.0  0.27600  0.27600  0.00000  1.0000
  V   V2        1.0  0.72400  0.27600  0.00000  1.0000
  V   V3        1.0  0.27600  0.72400  0.00000  1.0000
  V   V4        1.0  0.72400  0.72400  0.00000  1.0000
