data_image0
_chemical_formula_structural       Fe4Mo6Na2O24
_chemical_formula_sum              "Fe4 Mo6 Na2 O24"
_cell_length_a       6.90203
_cell_length_b       6.91863
_cell_length_c       10.8714
_cell_angle_alpha    80.8926
_cell_angle_beta     83.6478
_cell_angle_gamma    80.7661

_space_group_name_H-M_alt    "P 1"
_space_group_IT_number       1

loop_
  _space_group_symop_operation_xyz
  'x, y, z'

loop_
  _atom_site_type_symbol
  _atom_site_label
  _atom_site_symmetry_multiplicity
  _atom_site_fract_x
  _atom_site_fract_y
  _atom_site_fract_z
  _atom_site_occupancy
  Fe  Fe1       1.0  0.77200  0.76900  0.11000  1.0000
  Fe  Fe2       1.0  0.18400  0.82900  0.49300  1.0000
  Fe  Fe3       1.0  0.81600  0.17100  0.50700  1.0000
  Fe  Fe4       1.0  0.22800  0.23100  0.89000  1.0000
  Mo  Mo1       1.0  0.24100  0.90100  0.14400  1.0000
  Mo  Mo2       1.0  0.70700  0.28500  0.18300  1.0000
  Mo  Mo3       1.0  0.72500  0.69700  0.45800  1.0000
  Mo  Mo4       1.0  0.27500  0.30300  0.54200  1.0000
  Mo  Mo5       1.0  0.29300  0.71500  0.81700  1.0000
  Mo  Mo6       1.0  0.75900  0.09920  0.85600  1.0000
  Na  Na1       1.0  0.13600  0.40600  0.19900  1.0000
  Na  Na2       1.0  0.86400  0.59400  0.80100  1.0000
  O   O1        1.0  0.17600  0.15700  0.07540  1.0000
  O   O2        1.0  0.79600  0.49000  0.07860  1.0000
  O   O3        1.0  0.48500  0.79100  0.09770  1.0000
  O   O4        1.0  0.74200  0.06190  0.11000  1.0000
  O   O5        1.0  0.06450  0.74200  0.12900  1.0000
  O   O6        1.0  0.45800  0.34600  0.23100  1.0000
  O   O7        1.0  0.74500  0.68800  0.29200  1.0000
  O   O8        1.0  0.23400  0.91600  0.30300  1.0000
  O   O9        1.0  0.85300  0.24300  0.31200  1.0000
  O   O10       1.0  0.20100  0.54100  0.45800  1.0000
  O   O11       1.0  0.87400  0.87100  0.49300  1.0000
  O   O12       1.0  0.52000  0.21600  0.49500  1.0000
  O   O13       1.0  0.48000  0.78400  0.50500  1.0000
  O   O14       1.0  0.12600  0.12900  0.50700  1.0000
  O   O15       1.0  0.79900  0.45900  0.54200  1.0000
  O   O16       1.0  0.14700  0.75700  0.68800  1.0000
  O   O17       1.0  0.76600  0.08400  0.69700  1.0000
  O   O18       1.0  0.25500  0.31200  0.70800  1.0000
  O   O19       1.0  0.54200  0.65400  0.76900  1.0000
  O   O20       1.0  0.93500  0.25800  0.87100  1.0000
  O   O21       1.0  0.25800  0.93800  0.89000  1.0000
  O   O22       1.0  0.51500  0.20900  0.90200  1.0000
  O   O23       1.0  0.20400  0.51000  0.92100  1.0000
  O   O24       1.0  0.82400  0.84300  0.92500  1.0000
