data_image0
_chemical_formula_structural       Sb2SrZn2
_chemical_formula_sum              "Sb2 Sr1 Zn2"
_cell_length_a       4.53953
_cell_length_b       4.53966
_cell_length_c       7.75592
_cell_angle_alpha    90
_cell_angle_beta     89.9994
_cell_angle_gamma    120.001

_space_group_name_H-M_alt    "P 1"
_space_group_IT_number       1

loop_
  _space_group_symop_operation_xyz
  'x, y, z'

loop_
  _atom_site_type_symbol
  _atom_site_label
  _atom_site_symmetry_multiplicity
  _atom_site_fract_x
  _atom_site_fract_y
  _atom_site_fract_z
  _atom_site_occupancy
  Sb  Sb1       1.0  0.33300  0.66700  0.26900  1.0000
  Sb  Sb2       1.0  0.66700  0.33300  0.73100  1.0000
  Sr  Sr1       1.0  0.00000  0.00000  0.00000  1.0000
  Zn  Zn1       1.0  0.66700  0.33300  0.36800  1.0000
  Zn  Zn2       1.0  0.33300  0.66700  0.63200  1.0000
