data_image0
_chemical_formula_structural       H20O16Se2
_chemical_formula_sum              "H20 O16 Se2"
_cell_length_a       7.3885
_cell_length_b       7.3885
_cell_length_c       6.05381
_cell_angle_alpha    90
_cell_angle_beta     90
_cell_angle_gamma    90

_space_group_name_H-M_alt    "P 1"
_space_group_IT_number       1

loop_
  _space_group_symop_operation_xyz
  'x, y, z'

loop_
  _atom_site_type_symbol
  _atom_site_label
  _atom_site_symmetry_multiplicity
  _atom_site_fract_x
  _atom_site_fract_y
  _atom_site_fract_z
  _atom_site_occupancy
  H   H1        1.0  0.50000  0.00000  0.04920  1.0000
  H   H2        1.0  0.67900  0.16000  0.08600  1.0000
  H   H3        1.0  0.32100  0.84000  0.08600  1.0000
  H   H4        1.0  0.48200  0.23300  0.15400  1.0000
  H   H5        1.0  0.51800  0.76700  0.15400  1.0000
  H   H6        1.0  0.98200  0.26700  0.34600  1.0000
  H   H7        1.0  0.01780  0.73300  0.34600  1.0000
  H   H8        1.0  0.17900  0.34000  0.41400  1.0000
  H   H9        1.0  0.82100  0.66000  0.41400  1.0000
  H   H10       1.0  0.00000  0.50000  0.45100  1.0000
  H   H11       1.0  0.50000  0.00000  0.54900  1.0000
  H   H12       1.0  0.66000  0.17900  0.58600  1.0000
  H   H13       1.0  0.34000  0.82100  0.58600  1.0000
  H   H14       1.0  0.26700  0.01780  0.65400  1.0000
  H   H15       1.0  0.73300  0.98200  0.65400  1.0000
  H   H16       1.0  0.76700  0.48200  0.84600  1.0000
  H   H17       1.0  0.23300  0.51800  0.84600  1.0000
  H   H18       1.0  0.16000  0.32100  0.91400  1.0000
  H   H19       1.0  0.84000  0.67900  0.91400  1.0000
  H   H20       1.0  0.00000  0.50000  0.95100  1.0000
  O   O1        1.0  0.54700  0.15600  0.04200  1.0000
  O   O2        1.0  0.45300  0.84400  0.04200  1.0000
  O   O3        1.0  0.88900  0.15200  0.15300  1.0000
  O   O4        1.0  0.11100  0.84800  0.15300  1.0000
  O   O5        1.0  0.38900  0.34800  0.34700  1.0000
  O   O6        1.0  0.61100  0.65200  0.34700  1.0000
  O   O7        1.0  0.04740  0.34400  0.45800  1.0000
  O   O8        1.0  0.95300  0.65600  0.45800  1.0000
  O   O9        1.0  0.65600  0.04740  0.54200  1.0000
  O   O10       1.0  0.34400  0.95300  0.54200  1.0000
  O   O11       1.0  0.65200  0.38900  0.65300  1.0000
  O   O12       1.0  0.34800  0.61100  0.65300  1.0000
  O   O13       1.0  0.15200  0.11100  0.84700  1.0000
  O   O14       1.0  0.84800  0.88900  0.84700  1.0000
  O   O15       1.0  0.15600  0.45300  0.95800  1.0000
  O   O16       1.0  0.84400  0.54700  0.95800  1.0000
  Se  Se1       1.0  0.00000  0.00000  0.00000  1.0000
  Se  Se2       1.0  0.50000  0.50000  0.50000  1.0000
