data_image0
_chemical_formula_structural       Ce2K5NaO24S6
_chemical_formula_sum              "Ce2 K5 Na1 O24 S6"
_cell_length_a       7.62776
_cell_length_b       9.1304
_cell_length_c       9.32765
_cell_angle_alpha    60.6971
_cell_angle_beta     100.003
_cell_angle_gamma    110.788

_space_group_name_H-M_alt    "P 1"
_space_group_IT_number       1

loop_
  _space_group_symop_operation_xyz
  'x, y, z'

loop_
  _atom_site_type_symbol
  _atom_site_label
  _atom_site_symmetry_multiplicity
  _atom_site_fract_x
  _atom_site_fract_y
  _atom_site_fract_z
  _atom_site_occupancy
  Ce  Ce1       1.0  0.50000  0.85900  0.28200  1.0000
  Ce  Ce2       1.0  0.50000  0.14100  0.71800  1.0000
  K   K1        1.0  0.50000  0.50000  0.00000  1.0000
  K   K2        1.0  0.11600  0.06460  0.31300  1.0000
  K   K3        1.0  0.88400  0.62200  0.31300  1.0000
  K   K4        1.0  0.11600  0.37800  0.68700  1.0000
  K   K5        1.0  0.88400  0.93500  0.68700  1.0000
  Na  Na1       1.0  0.00000  0.50000  0.00000  1.0000
  O   O1        1.0  0.64100  0.14500  0.00000  1.0000
  O   O2        1.0  0.98500  0.23400  0.00000  1.0000
  O   O3        1.0  0.01480  0.76600  0.00000  1.0000
  O   O4        1.0  0.35900  0.85500  0.00000  1.0000
  O   O5        1.0  0.79600  0.92400  0.15000  1.0000
  O   O6        1.0  0.20400  0.92600  0.15000  1.0000
  O   O7        1.0  0.78000  0.38600  0.19800  1.0000
  O   O8        1.0  0.22000  0.41600  0.19800  1.0000
  O   O9        1.0  0.48800  0.14500  0.28300  1.0000
  O   O10       1.0  0.51200  0.57200  0.28300  1.0000
  O   O11       1.0  0.77500  0.07700  0.36100  1.0000
  O   O12       1.0  0.22500  0.56200  0.36100  1.0000
  O   O13       1.0  0.69700  0.22600  0.48400  1.0000
  O   O14       1.0  0.30300  0.29000  0.48400  1.0000
  O   O15       1.0  0.69700  0.71000  0.51600  1.0000
  O   O16       1.0  0.30300  0.77400  0.51600  1.0000
  O   O17       1.0  0.77500  0.43800  0.63900  1.0000
  O   O18       1.0  0.22500  0.92300  0.63900  1.0000
  O   O19       1.0  0.48800  0.42800  0.71700  1.0000
  O   O20       1.0  0.51200  0.85500  0.71700  1.0000
  O   O21       1.0  0.78000  0.58400  0.80200  1.0000
  O   O22       1.0  0.22000  0.61400  0.80200  1.0000
  O   O23       1.0  0.79600  0.07400  0.85000  1.0000
  O   O24       1.0  0.20400  0.07630  0.85000  1.0000
  S   S1        1.0  0.81000  0.09700  0.00000  1.0000
  S   S2        1.0  0.19000  0.90300  0.00000  1.0000
  S   S3        1.0  0.68600  0.21100  0.33000  1.0000
  S   S4        1.0  0.31400  0.45900  0.33000  1.0000
  S   S5        1.0  0.68600  0.54100  0.67000  1.0000
  S   S6        1.0  0.31400  0.78900  0.67000  1.0000
