data_image0
_chemical_formula_structural       H30Th8
_chemical_formula_sum              "H30 Th8"
_cell_length_a       7.8246
_cell_length_b       7.8246
_cell_length_c       7.8246
_cell_angle_alpha    109.471
_cell_angle_beta     109.471
_cell_angle_gamma    109.471

_space_group_name_H-M_alt    "P 1"
_space_group_IT_number       1

loop_
  _space_group_symop_operation_xyz
  'x, y, z'

loop_
  _atom_site_type_symbol
  _atom_site_label
  _atom_site_symmetry_multiplicity
  _atom_site_fract_x
  _atom_site_fract_y
  _atom_site_fract_z
  _atom_site_occupancy
  H   H1        1.0  0.40500  0.18700  0.03620  1.0000
  H   H2        1.0  0.78200  0.63100  0.09480  1.0000
  H   H3        1.0  0.25000  0.37500  0.12500  1.0000
  H   H4        1.0  0.59500  0.78200  0.13100  1.0000
  H   H5        1.0  0.36900  0.96400  0.15100  1.0000
  H   H6        1.0  0.90500  0.03620  0.18700  1.0000
  H   H7        1.0  0.81300  0.34900  0.21800  1.0000
  H   H8        1.0  0.12500  0.87500  0.25000  1.0000
  H   H9        1.0  0.63100  0.59500  0.28200  1.0000
  H   H10       1.0  0.34900  0.71800  0.31300  1.0000
  H   H11       1.0  0.31300  0.21800  0.34900  1.0000
  H   H12       1.0  0.15100  0.46400  0.36900  1.0000
  H   H13       1.0  0.75000  0.12500  0.37500  1.0000
  H   H14       1.0  0.03620  0.68700  0.40500  1.0000
  H   H15       1.0  0.65100  0.36900  0.46400  1.0000
  H   H16       1.0  0.68700  0.90500  0.53600  1.0000
  H   H17       1.0  0.13100  0.28200  0.59500  1.0000
  H   H18       1.0  0.87500  0.75000  0.62500  1.0000
  H   H19       1.0  0.28200  0.09480  0.63100  1.0000
  H   H20       1.0  0.46400  0.86900  0.65100  1.0000
  H   H21       1.0  0.53600  0.40500  0.68700  1.0000
  H   H22       1.0  0.84900  0.31300  0.71800  1.0000
  H   H23       1.0  0.37500  0.62500  0.75000  1.0000
  H   H24       1.0  0.09480  0.13100  0.78200  1.0000
  H   H25       1.0  0.21800  0.84900  0.81300  1.0000
  H   H26       1.0  0.71800  0.81300  0.84900  1.0000
  H   H27       1.0  0.96400  0.65100  0.86900  1.0000
  H   H28       1.0  0.62500  0.25000  0.87500  1.0000
  H   H29       1.0  0.18700  0.53600  0.90500  1.0000
  H   H30       1.0  0.86900  0.15100  0.96400  1.0000
  Th  Th1       1.0  0.08160  0.00000  0.00000  1.0000
  Th  Th2       1.0  0.58200  0.00000  0.00000  1.0000
  Th  Th3       1.0  0.00000  0.50000  0.08160  1.0000
  Th  Th4       1.0  0.91800  0.91800  0.41800  1.0000
  Th  Th5       1.0  0.50000  0.58200  0.50000  1.0000
  Th  Th6       1.0  0.50000  0.08160  0.50000  1.0000
  Th  Th7       1.0  0.00000  0.50000  0.58200  1.0000
  Th  Th8       1.0  0.41800  0.41800  0.91800  1.0000
