data_image0
_chemical_formula_structural       Ge6Pr8S24
_chemical_formula_sum              "Ge6 Pr8 S24"
_cell_length_a       8.05006
_cell_length_b       11.5859
_cell_length_c       11.5859
_cell_angle_alpha    114.805
_cell_angle_beta     103.392
_cell_angle_gamma    103.392

_space_group_name_H-M_alt    "P 1"
_space_group_IT_number       1

loop_
  _space_group_symop_operation_xyz
  'x, y, z'

loop_
  _atom_site_type_symbol
  _atom_site_label
  _atom_site_symmetry_multiplicity
  _atom_site_fract_x
  _atom_site_fract_y
  _atom_site_fract_z
  _atom_site_occupancy
  Ge  Ge1       1.0  0.53400  0.38600  0.17400  1.0000
  Ge  Ge2       1.0  0.36000  0.82600  0.21200  1.0000
  Ge  Ge3       1.0  0.03410  0.17400  0.38600  1.0000
  Ge  Ge4       1.0  0.14800  0.78800  0.61400  1.0000
  Ge  Ge5       1.0  0.64800  0.61400  0.78800  1.0000
  Ge  Ge6       1.0  0.86000  0.21200  0.82600  1.0000
  Pr  Pr1       1.0  0.00507  0.00000  0.00000  1.0000
  Pr  Pr2       1.0  0.50500  0.00000  0.00000  1.0000
  Pr  Pr3       1.0  0.79000  0.76200  0.22400  1.0000
  Pr  Pr4       1.0  0.02800  0.46200  0.23800  1.0000
  Pr  Pr5       1.0  0.52800  0.23800  0.46200  1.0000
  Pr  Pr6       1.0  0.56600  0.77600  0.53800  1.0000
  Pr  Pr7       1.0  0.29000  0.22400  0.76200  1.0000
  Pr  Pr8       1.0  0.06620  0.53800  0.77600  1.0000
  S   S1        1.0  0.81800  0.18700  0.00177  1.0000
  S   S2        1.0  0.41700  0.71100  0.02630  1.0000
  S   S3        1.0  0.68900  0.46800  0.07230  1.0000
  S   S4        1.0  0.81600  0.99800  0.18500  1.0000
  S   S5        1.0  0.31800  0.00177  0.18700  1.0000
  S   S6        1.0  0.41700  0.54400  0.26500  1.0000
  S   S7        1.0  0.15200  0.73500  0.27900  1.0000
  S   S8        1.0  0.70600  0.31500  0.28900  1.0000
  S   S9        1.0  0.20600  0.28900  0.31500  1.0000
  S   S10       1.0  0.61700  0.92800  0.39600  1.0000
  S   S11       1.0  0.87300  0.72100  0.45600  1.0000
  S   S12       1.0  0.18900  0.07230  0.46800  1.0000
  S   S13       1.0  0.22100  0.60400  0.53200  1.0000
  S   S14       1.0  0.91700  0.26500  0.54400  1.0000
  S   S15       1.0  0.72100  0.53200  0.60400  1.0000
  S   S16       1.0  0.39100  0.97400  0.68500  1.0000
  S   S17       1.0  0.91700  0.02630  0.71100  1.0000
  S   S18       1.0  0.37300  0.45600  0.72100  1.0000
  S   S19       1.0  0.65200  0.27900  0.73500  1.0000
  S   S20       1.0  0.63100  0.81500  0.81300  1.0000
  S   S21       1.0  0.13100  0.81300  0.81500  1.0000
  S   S22       1.0  0.11700  0.39600  0.92800  1.0000
  S   S23       1.0  0.89100  0.68500  0.97400  1.0000
  S   S24       1.0  0.31600  0.18500  0.99800  1.0000
