data_image0
_chemical_formula_structural       In22Rb16
_chemical_formula_sum              "In22 Rb16"
_cell_length_a       10.3303
_cell_length_b       10.3303
_cell_length_c       18.4944
_cell_angle_alpha    106.217
_cell_angle_beta     90
_cell_angle_gamma    120

_space_group_name_H-M_alt    "P 1"
_space_group_IT_number       1

loop_
  _space_group_symop_operation_xyz
  'x, y, z'

loop_
  _atom_site_type_symbol
  _atom_site_label
  _atom_site_symmetry_multiplicity
  _atom_site_fract_x
  _atom_site_fract_y
  _atom_site_fract_z
  _atom_site_occupancy
  In  In1       1.0  0.70100  0.40200  0.10300  1.0000
  In  In2       1.0  0.43300  0.16100  0.16000  1.0000
  In  In3       1.0  0.99900  0.43200  0.16000  1.0000
  In  In4       1.0  0.72800  0.72700  0.16000  1.0000
  In  In5       1.0  0.75000  0.29500  0.25000  1.0000
  In  In6       1.0  0.54500  0.50000  0.25000  1.0000
  In  In7       1.0  0.95500  0.70500  0.25000  1.0000
  In  In8       1.0  0.50100  0.27300  0.34000  1.0000
  In  In9       1.0  0.06700  0.56800  0.34000  1.0000
  In  In10      1.0  0.77200  0.83900  0.34000  1.0000
  In  In11      1.0  0.79900  0.59800  0.39700  1.0000
  In  In12      1.0  0.20100  0.40200  0.60300  1.0000
  In  In13      1.0  0.22800  0.16100  0.66000  1.0000
  In  In14      1.0  0.93300  0.43200  0.66000  1.0000
  In  In15      1.0  0.49900  0.72700  0.66000  1.0000
  In  In16      1.0  0.04490  0.29500  0.75000  1.0000
  In  In17      1.0  0.45500  0.50000  0.75000  1.0000
  In  In18      1.0  0.25000  0.70500  0.75000  1.0000
  In  In19      1.0  0.27200  0.27300  0.84000  1.0000
  In  In20      1.0  0.00078  0.56800  0.84000  1.0000
  In  In21      1.0  0.56700  0.83900  0.84000  1.0000
  In  In22      1.0  0.29900  0.59800  0.89700  1.0000
  Rb  Rb1       1.0  0.32000  0.41200  0.06560  1.0000
  Rb  Rb2       1.0  0.09230  0.74600  0.06560  1.0000
  Rb  Rb3       1.0  0.65400  0.97300  0.06560  1.0000
  Rb  Rb4       1.0  0.07950  0.15900  0.23800  1.0000
  Rb  Rb5       1.0  0.42100  0.84100  0.26200  1.0000
  Rb  Rb6       1.0  0.18000  0.02670  0.43400  1.0000
  Rb  Rb7       1.0  0.84600  0.25400  0.43400  1.0000
  Rb  Rb8       1.0  0.40800  0.58800  0.43400  1.0000
  Rb  Rb9       1.0  0.59200  0.41200  0.56600  1.0000
  Rb  Rb10      1.0  0.15400  0.74600  0.56600  1.0000
  Rb  Rb11      1.0  0.82000  0.97300  0.56600  1.0000
  Rb  Rb12      1.0  0.57900  0.15900  0.73800  1.0000
  Rb  Rb13      1.0  0.92100  0.84100  0.76200  1.0000
  Rb  Rb14      1.0  0.34600  0.02670  0.93400  1.0000
  Rb  Rb15      1.0  0.90800  0.25400  0.93400  1.0000
  Rb  Rb16      1.0  0.68000  0.58800  0.93400  1.0000
