data_image0
_chemical_formula_structural       C2Cu2H16N4O10P4
_chemical_formula_sum              "C2 Cu2 H16 N4 O10 P4"
_cell_length_a       7.2971
_cell_length_b       7.2971
_cell_length_c       9.03644
_cell_angle_alpha    88.3115
_cell_angle_beta     88.3115
_cell_angle_gamma    67.7597

_space_group_name_H-M_alt    "P 1"
_space_group_IT_number       1

loop_
  _space_group_symop_operation_xyz
  'x, y, z'

loop_
  _atom_site_type_symbol
  _atom_site_label
  _atom_site_symmetry_multiplicity
  _atom_site_fract_x
  _atom_site_fract_y
  _atom_site_fract_z
  _atom_site_occupancy
  C   C1        1.0  0.39400  0.60600  0.25000  1.0000
  C   C2        1.0  0.60600  0.39400  0.75000  1.0000
  Cu  Cu1       1.0  0.00000  0.00000  0.00000  1.0000
  Cu  Cu2       1.0  0.00000  0.00000  0.50000  1.0000
  H   H1        1.0  0.59900  0.25800  0.00049  1.0000
  H   H2        1.0  0.84400  0.57500  0.00913  1.0000
  H   H3        1.0  0.23100  0.32800  0.01730  1.0000
  H   H4        1.0  0.61400  0.91300  0.21900  1.0000
  H   H5        1.0  0.08740  0.38600  0.28100  1.0000
  H   H6        1.0  0.67200  0.76900  0.48300  1.0000
  H   H7        1.0  0.42500  0.15600  0.49100  1.0000
  H   H8        1.0  0.74200  0.40100  0.50000  1.0000
  H   H9        1.0  0.25800  0.59900  0.50000  1.0000
  H   H10       1.0  0.57500  0.84400  0.50900  1.0000
  H   H11       1.0  0.32800  0.23100  0.51700  1.0000
  H   H12       1.0  0.91300  0.61400  0.71900  1.0000
  H   H13       1.0  0.38600  0.08740  0.78100  1.0000
  H   H14       1.0  0.76900  0.67200  0.98300  1.0000
  H   H15       1.0  0.15600  0.42500  0.99100  1.0000
  H   H16       1.0  0.40100  0.74200  0.00000  1.0000
  N   N1        1.0  0.82300  0.29000  0.22700  1.0000
  N   N2        1.0  0.71000  0.17700  0.27300  1.0000
  N   N3        1.0  0.29000  0.82300  0.72700  1.0000
  N   N4        1.0  0.17700  0.71000  0.77300  1.0000
  O   O1        1.0  0.55400  0.15000  0.02740  1.0000
  O   O2        1.0  0.86600  0.27400  0.07990  1.0000
  O   O3        1.0  0.25300  0.74700  0.25000  1.0000
  O   O4        1.0  0.72600  0.13400  0.42000  1.0000
  O   O5        1.0  0.85000  0.44600  0.47300  1.0000
  O   O6        1.0  0.15000  0.55400  0.52700  1.0000
  O   O7        1.0  0.27400  0.86600  0.58000  1.0000
  O   O8        1.0  0.74700  0.25300  0.75000  1.0000
  O   O9        1.0  0.13400  0.72600  0.92000  1.0000
  O   O10       1.0  0.44600  0.85000  0.97300  1.0000
  P   P1        1.0  0.72700  0.00389  0.13700  1.0000
  P   P2        1.0  0.99600  0.27300  0.36300  1.0000
  P   P3        1.0  0.00389  0.72700  0.63700  1.0000
  P   P4        1.0  0.27300  0.99600  0.86300  1.0000
