data_image0
_chemical_formula_structural       Rb16Tl22
_chemical_formula_sum              "Rb16 Tl22"
_cell_length_a       10.3124
_cell_length_b       10.3124
_cell_length_c       18.5111
_cell_angle_alpha    90
_cell_angle_beta     106.174
_cell_angle_gamma    120

_space_group_name_H-M_alt    "P 1"
_space_group_IT_number       1

loop_
  _space_group_symop_operation_xyz
  'x, y, z'

loop_
  _atom_site_type_symbol
  _atom_site_label
  _atom_site_symmetry_multiplicity
  _atom_site_fract_x
  _atom_site_fract_y
  _atom_site_fract_z
  _atom_site_occupancy
  Rb  Rb1       1.0  0.41100  0.32300  0.06470  1.0000
  Rb  Rb2       1.0  0.74100  0.08740  0.06470  1.0000
  Rb  Rb3       1.0  0.97700  0.65400  0.06470  1.0000
  Rb  Rb4       1.0  0.15900  0.07950  0.23800  1.0000
  Rb  Rb5       1.0  0.84100  0.42100  0.26200  1.0000
  Rb  Rb6       1.0  0.02260  0.17700  0.43500  1.0000
  Rb  Rb7       1.0  0.25900  0.84600  0.43500  1.0000
  Rb  Rb8       1.0  0.58900  0.41300  0.43500  1.0000
  Rb  Rb9       1.0  0.41100  0.58700  0.56500  1.0000
  Rb  Rb10      1.0  0.74100  0.15400  0.56500  1.0000
  Rb  Rb11      1.0  0.97700  0.82300  0.56500  1.0000
  Rb  Rb12      1.0  0.15900  0.57900  0.73800  1.0000
  Rb  Rb13      1.0  0.84100  0.92100  0.76200  1.0000
  Rb  Rb14      1.0  0.02260  0.34600  0.93500  1.0000
  Rb  Rb15      1.0  0.25900  0.91300  0.93500  1.0000
  Rb  Rb16      1.0  0.58900  0.67700  0.93500  1.0000
  Tl  Tl1       1.0  0.39700  0.69900  0.09600  1.0000
  Tl  Tl2       1.0  0.14700  0.42000  0.15700  1.0000
  Tl  Tl3       1.0  0.43000  0.01030  0.15700  1.0000
  Tl  Tl4       1.0  0.73700  0.72700  0.15700  1.0000
  Tl  Tl5       1.0  0.28600  0.75000  0.25000  1.0000
  Tl  Tl6       1.0  0.50000  0.53600  0.25000  1.0000
  Tl  Tl7       1.0  0.71400  0.96400  0.25000  1.0000
  Tl  Tl8       1.0  0.26300  0.49000  0.34300  1.0000
  Tl  Tl9       1.0  0.57000  0.08010  0.34300  1.0000
  Tl  Tl10      1.0  0.85300  0.77300  0.34300  1.0000
  Tl  Tl11      1.0  0.60300  0.80100  0.40400  1.0000
  Tl  Tl12      1.0  0.39700  0.19900  0.59600  1.0000
  Tl  Tl13      1.0  0.14700  0.22700  0.65700  1.0000
  Tl  Tl14      1.0  0.43000  0.92000  0.65700  1.0000
  Tl  Tl15      1.0  0.73700  0.51000  0.65700  1.0000
  Tl  Tl16      1.0  0.28600  0.03620  0.75000  1.0000
  Tl  Tl17      1.0  0.50000  0.46400  0.75000  1.0000
  Tl  Tl18      1.0  0.71400  0.25000  0.75000  1.0000
  Tl  Tl19      1.0  0.26300  0.27300  0.84300  1.0000
  Tl  Tl20      1.0  0.57000  0.99000  0.84300  1.0000
  Tl  Tl21      1.0  0.85300  0.58000  0.84300  1.0000
  Tl  Tl22      1.0  0.60300  0.30100  0.90400  1.0000
