data_image0
_chemical_formula_structural       In22K16
_chemical_formula_sum              "In22 K16"
_cell_length_a       10.1057
_cell_length_b       10.1057
_cell_length_c       18.0786
_cell_angle_alpha    106.23
_cell_angle_beta     90
_cell_angle_gamma    120

_space_group_name_H-M_alt    "P 1"
_space_group_IT_number       1

loop_
  _space_group_symop_operation_xyz
  'x, y, z'

loop_
  _atom_site_type_symbol
  _atom_site_label
  _atom_site_symmetry_multiplicity
  _atom_site_fract_x
  _atom_site_fract_y
  _atom_site_fract_z
  _atom_site_occupancy
  In  In1       1.0  0.70000  0.40000  0.10000  1.0000
  In  In2       1.0  0.72800  0.73300  0.15800  1.0000
  In  In3       1.0  0.00495  0.43000  0.15800  1.0000
  In  In4       1.0  0.42500  0.15300  0.15800  1.0000
  In  In5       1.0  0.96100  0.71100  0.25000  1.0000
  In  In6       1.0  0.53900  0.50000  0.25000  1.0000
  In  In7       1.0  0.75000  0.28900  0.25000  1.0000
  In  In8       1.0  0.77200  0.84700  0.34200  1.0000
  In  In9       1.0  0.07510  0.57000  0.34200  1.0000
  In  In10      1.0  0.49500  0.26700  0.34200  1.0000
  In  In11      1.0  0.80000  0.60000  0.40000  1.0000
  In  In12      1.0  0.20000  0.40000  0.60000  1.0000
  In  In13      1.0  0.50500  0.73300  0.65800  1.0000
  In  In14      1.0  0.92500  0.43000  0.65800  1.0000
  In  In15      1.0  0.22800  0.15300  0.65800  1.0000
  In  In16      1.0  0.25000  0.71100  0.75000  1.0000
  In  In17      1.0  0.46100  0.50000  0.75000  1.0000
  In  In18      1.0  0.03890  0.28900  0.75000  1.0000
  In  In19      1.0  0.57500  0.84700  0.84200  1.0000
  In  In20      1.0  0.99500  0.57000  0.84200  1.0000
  In  In21      1.0  0.27200  0.26700  0.84200  1.0000
  In  In22      1.0  0.30000  0.60000  0.90000  1.0000
  K   K1        1.0  0.65100  0.97200  0.06480  1.0000
  K   K2        1.0  0.09230  0.74300  0.06480  1.0000
  K   K3        1.0  0.32200  0.41400  0.06480  1.0000
  K   K4        1.0  0.07940  0.15900  0.23800  1.0000
  K   K5        1.0  0.42100  0.84100  0.26200  1.0000
  K   K6        1.0  0.40800  0.58600  0.43500  1.0000
  K   K7        1.0  0.84900  0.25700  0.43500  1.0000
  K   K8        1.0  0.17800  0.02760  0.43500  1.0000
  K   K9        1.0  0.82200  0.97200  0.56500  1.0000
  K   K10       1.0  0.15100  0.74300  0.56500  1.0000
  K   K11       1.0  0.59200  0.41400  0.56500  1.0000
  K   K12       1.0  0.57900  0.15900  0.73800  1.0000
  K   K13       1.0  0.92100  0.84100  0.76200  1.0000
  K   K14       1.0  0.67800  0.58600  0.93500  1.0000
  K   K15       1.0  0.90800  0.25700  0.93500  1.0000
  K   K16       1.0  0.34900  0.02760  0.93500  1.0000
