data_image0
_chemical_formula_structural       Cu2K4O24P8
_chemical_formula_sum              "Cu2 K4 O24 P8"
_cell_length_a       7.79539
_cell_length_b       8.12321
_cell_length_c       8.12321
_cell_angle_alpha    95.8313
_cell_angle_beta     97.0224
_cell_angle_gamma    97.0224

_space_group_name_H-M_alt    "P 1"
_space_group_IT_number       1

loop_
  _space_group_symop_operation_xyz
  'x, y, z'

loop_
  _atom_site_type_symbol
  _atom_site_label
  _atom_site_symmetry_multiplicity
  _atom_site_fract_x
  _atom_site_fract_y
  _atom_site_fract_z
  _atom_site_occupancy
  Cu  Cu1       1.0  0.75100  0.83900  0.16300  1.0000
  Cu  Cu2       1.0  0.25100  0.16300  0.83900  1.0000
  K   K1        1.0  0.41400  0.47400  0.19700  1.0000
  K   K2        1.0  0.91400  0.19700  0.47400  1.0000
  K   K3        1.0  0.09730  0.76100  0.50600  1.0000
  K   K4        1.0  0.59700  0.50600  0.76100  1.0000
  O   O1        1.0  0.15500  0.14500  0.04710  1.0000
  O   O2        1.0  0.28100  0.88200  0.13000  1.0000
  O   O3        1.0  0.65500  0.04710  0.14500  1.0000
  O   O4        1.0  0.85000  0.31200  0.15900  1.0000
  O   O5        1.0  0.78200  0.60600  0.18200  1.0000
  O   O6        1.0  0.10100  0.54400  0.23800  1.0000
  O   O7        1.0  0.05040  0.98600  0.28500  1.0000
  O   O8        1.0  0.35000  0.15900  0.31200  1.0000
  O   O9        1.0  0.71700  0.86700  0.40400  1.0000
  O   O10       1.0  0.47900  0.64800  0.48900  1.0000
  O   O11       1.0  0.42700  0.94100  0.49300  1.0000
  O   O12       1.0  0.60100  0.23800  0.54400  1.0000
  O   O13       1.0  0.28200  0.18200  0.60600  1.0000
  O   O14       1.0  0.97900  0.48900  0.64800  1.0000
  O   O15       1.0  0.66000  0.86100  0.70100  1.0000
  O   O16       1.0  0.97800  0.98700  0.71300  1.0000
  O   O17       1.0  0.36000  0.95700  0.84600  1.0000
  O   O18       1.0  0.16000  0.70100  0.86100  1.0000
  O   O19       1.0  0.21700  0.40400  0.86700  1.0000
  O   O20       1.0  0.78100  0.13000  0.88200  1.0000
  O   O21       1.0  0.92700  0.49300  0.94100  1.0000
  O   O22       1.0  0.86000  0.84600  0.95700  1.0000
  O   O23       1.0  0.55000  0.28500  0.98600  1.0000
  O   O24       1.0  0.47800  0.71300  0.98700  1.0000
  P   P1        1.0  0.69200  0.18900  0.04250  1.0000
  P   P2        1.0  0.92500  0.50400  0.14100  1.0000
  P   P3        1.0  0.19200  0.04250  0.18900  1.0000
  P   P4        1.0  0.42500  0.14100  0.50400  1.0000
  P   P5        1.0  0.57600  0.82000  0.50900  1.0000
  P   P6        1.0  0.83600  0.95200  0.81700  1.0000
  P   P7        1.0  0.07610  0.50900  0.82000  1.0000
  P   P8        1.0  0.33600  0.81700  0.95200  1.0000
