data_image0
_chemical_formula_structural       Na4O24Sr2V8
_chemical_formula_sum              "Na4 O24 Sr2 V8"
_cell_length_a       10.5311
_cell_length_b       10.5311
_cell_length_c       4.89832
_cell_angle_alpha    90
_cell_angle_beta     90
_cell_angle_gamma    90

_space_group_name_H-M_alt    "P 1"
_space_group_IT_number       1

loop_
  _space_group_symop_operation_xyz
  'x, y, z'

loop_
  _atom_site_type_symbol
  _atom_site_label
  _atom_site_symmetry_multiplicity
  _atom_site_fract_x
  _atom_site_fract_y
  _atom_site_fract_z
  _atom_site_occupancy
  Na  Na1       1.0  0.00000  0.00000  0.50000  1.0000
  Na  Na2       1.0  0.50000  0.00000  0.50000  1.0000
  Na  Na3       1.0  0.00000  0.50000  0.50000  1.0000
  Na  Na4       1.0  0.50000  0.50000  0.50000  1.0000
  O   O1        1.0  0.86700  0.13300  0.17100  1.0000
  O   O2        1.0  0.63300  0.36700  0.17100  1.0000
  O   O3        1.0  0.13300  0.63300  0.17100  1.0000
  O   O4        1.0  0.36700  0.86700  0.17100  1.0000
  O   O5        1.0  0.17700  0.05420  0.23700  1.0000
  O   O6        1.0  0.44600  0.17700  0.23700  1.0000
  O   O7        1.0  0.05420  0.32300  0.23700  1.0000
  O   O8        1.0  0.32300  0.44600  0.23700  1.0000
  O   O9        1.0  0.82300  0.55400  0.23700  1.0000
  O   O10       1.0  0.55400  0.67700  0.23700  1.0000
  O   O11       1.0  0.94600  0.82300  0.23700  1.0000
  O   O12       1.0  0.67700  0.94600  0.23700  1.0000
  O   O13       1.0  0.32300  0.05420  0.76300  1.0000
  O   O14       1.0  0.05420  0.17700  0.76300  1.0000
  O   O15       1.0  0.44600  0.32300  0.76300  1.0000
  O   O16       1.0  0.17700  0.44600  0.76300  1.0000
  O   O17       1.0  0.67700  0.55400  0.76300  1.0000
  O   O18       1.0  0.94600  0.67700  0.76300  1.0000
  O   O19       1.0  0.55400  0.82300  0.76300  1.0000
  O   O20       1.0  0.82300  0.94600  0.76300  1.0000
  O   O21       1.0  0.63300  0.13300  0.82900  1.0000
  O   O22       1.0  0.86700  0.36700  0.82900  1.0000
  O   O23       1.0  0.36700  0.63300  0.82900  1.0000
  O   O24       1.0  0.13300  0.86700  0.82900  1.0000
  Sr  Sr1       1.0  0.25000  0.25000  0.50000  1.0000
  Sr  Sr2       1.0  0.75000  0.75000  0.50000  1.0000
  V   V1        1.0  0.75000  0.03360  0.00000  1.0000
  V   V2        1.0  0.53400  0.25000  0.00000  1.0000
  V   V3        1.0  0.96600  0.25000  0.00000  1.0000
  V   V4        1.0  0.75000  0.46600  0.00000  1.0000
  V   V5        1.0  0.25000  0.53400  0.00000  1.0000
  V   V6        1.0  0.03360  0.75000  0.00000  1.0000
  V   V7        1.0  0.46600  0.75000  0.00000  1.0000
  V   V8        1.0  0.25000  0.96600  0.00000  1.0000
