data_image0
_chemical_formula_structural       Cs2I6O26V4
_chemical_formula_sum              "Cs2 I6 O26 V4"
_cell_length_a       7.81668
_cell_length_b       9.47058
_cell_length_c       9.47058
_cell_angle_alpha    94.5818
_cell_angle_beta     114.373
_cell_angle_gamma    114.373

_space_group_name_H-M_alt    "P 1"
_space_group_IT_number       1

loop_
  _space_group_symop_operation_xyz
  'x, y, z'

loop_
  _atom_site_type_symbol
  _atom_site_label
  _atom_site_symmetry_multiplicity
  _atom_site_fract_x
  _atom_site_fract_y
  _atom_site_fract_z
  _atom_site_occupancy
  Cs  Cs1       1.0  0.00928  0.63800  0.13800  1.0000
  Cs  Cs2       1.0  0.23200  0.36200  0.86200  1.0000
  I   I1        1.0  0.13000  0.25200  0.24200  1.0000
  I   I2        1.0  0.63600  0.25800  0.24800  1.0000
  I   I3        1.0  0.09790  0.99100  0.49100  1.0000
  I   I4        1.0  0.61600  0.00929  0.50900  1.0000
  I   I5        1.0  0.13000  0.74200  0.75200  1.0000
  I   I6        1.0  0.63600  0.74800  0.75800  1.0000
  O   O1        1.0  0.67200  0.00000  0.00000  1.0000
  O   O2        1.0  0.61900  0.71200  0.01550  1.0000
  O   O3        1.0  0.54300  0.22500  0.02310  1.0000
  O   O4        1.0  0.24100  0.17600  0.14000  1.0000
  O   O5        1.0  0.61900  0.51500  0.21200  1.0000
  O   O6        1.0  0.57900  0.04570  0.24400  1.0000
  O   O7        1.0  0.54500  0.76300  0.26300  1.0000
  O   O8        1.0  0.29600  0.47700  0.27500  1.0000
  O   O9        1.0  0.91300  0.97800  0.27700  1.0000
  O   O10       1.0  0.92600  0.36000  0.32400  1.0000
  O   O11       1.0  0.24600  0.92300  0.42300  1.0000
  O   O12       1.0  0.28900  0.25600  0.45400  1.0000
  O   O13       1.0  0.91300  0.77700  0.47800  1.0000
  O   O14       1.0  0.67200  0.50000  0.50000  1.0000
  O   O15       1.0  0.65800  0.22300  0.52200  1.0000
  O   O16       1.0  0.57900  0.74400  0.54600  1.0000
  O   O17       1.0  0.90100  0.07720  0.57700  1.0000
  O   O18       1.0  0.24100  0.64000  0.67600  1.0000
  O   O19       1.0  0.65800  0.02190  0.72300  1.0000
  O   O20       1.0  0.54300  0.52300  0.72500  1.0000
  O   O21       1.0  0.51900  0.23700  0.73700  1.0000
  O   O22       1.0  0.28900  0.95400  0.75600  1.0000
  O   O23       1.0  0.89100  0.48500  0.78800  1.0000
  O   O24       1.0  0.92600  0.82400  0.86000  1.0000
  O   O25       1.0  0.29600  0.77500  0.97700  1.0000
  O   O26       1.0  0.89100  0.28800  0.98500  1.0000
  V   V1        1.0  0.60000  0.85500  0.11100  1.0000
  V   V2        1.0  0.60000  0.61100  0.35500  1.0000
  V   V3        1.0  0.63400  0.38900  0.64500  1.0000
  V   V4        1.0  0.63400  0.14500  0.88900  1.0000
