data_image0
_chemical_formula_structural       N3V2
_chemical_formula_sum              "N3 V2"
_cell_length_a       2.79888
_cell_length_b       2.79885
_cell_length_c       6.23372
_cell_angle_alpha    90
_cell_angle_beta     89.9994
_cell_angle_gamma    120

_space_group_name_H-M_alt    "P 1"
_space_group_IT_number       1

loop_
  _space_group_symop_operation_xyz
  'x, y, z'

loop_
  _atom_site_type_symbol
  _atom_site_label
  _atom_site_symmetry_multiplicity
  _atom_site_fract_x
  _atom_site_fract_y
  _atom_site_fract_z
  _atom_site_occupancy
  N   N1        1.0  0.00000  0.00000  0.10700  1.0000
  N   N2        1.0  0.00000  0.00000  0.50000  1.0000
  N   N3        1.0  0.00001  0.00001  0.89300  1.0000
  V   V1        1.0  0.66700  0.33300  0.30200  1.0000
  V   V2        1.0  0.33300  0.66700  0.69800  1.0000
