data_image0
_chemical_formula_structural       As4Ca4Cu2H8O20
_chemical_formula_sum              "As4 Ca4 Cu2 H8 O20"
_cell_length_a       5.8618
_cell_length_b       12.7854
_cell_length_c       5.7025
_cell_angle_alpha    90
_cell_angle_beta     109.425
_cell_angle_gamma    90

_space_group_name_H-M_alt    "P 1"
_space_group_IT_number       1

loop_
  _space_group_symop_operation_xyz
  'x, y, z'

loop_
  _atom_site_type_symbol
  _atom_site_label
  _atom_site_symmetry_multiplicity
  _atom_site_fract_x
  _atom_site_fract_y
  _atom_site_fract_z
  _atom_site_occupancy
  As  As1       1.0  0.22600  0.37900  0.04630  1.0000
  As  As2       1.0  0.77400  0.87900  0.45400  1.0000
  As  As3       1.0  0.22600  0.12100  0.54600  1.0000
  As  As4       1.0  0.77400  0.62100  0.95400  1.0000
  Ca  Ca1       1.0  0.56400  0.12300  0.21200  1.0000
  Ca  Ca2       1.0  0.43600  0.62300  0.28800  1.0000
  Ca  Ca3       1.0  0.56400  0.37700  0.71200  1.0000
  Ca  Ca4       1.0  0.43600  0.87700  0.78800  1.0000
  Cu  Cu1       1.0  0.00000  0.00000  0.00000  1.0000
  Cu  Cu2       1.0  0.00000  0.50000  0.50000  1.0000
  H   H1        1.0  0.09980  0.80200  0.01390  1.0000
  H   H2        1.0  0.31500  0.85900  0.19300  1.0000
  H   H3        1.0  0.68500  0.35900  0.30700  1.0000
  H   H4        1.0  0.90000  0.30200  0.48600  1.0000
  H   H5        1.0  0.09980  0.69800  0.51400  1.0000
  H   H6        1.0  0.31500  0.64100  0.69300  1.0000
  H   H7        1.0  0.68500  0.14100  0.80700  1.0000
  H   H8        1.0  0.90000  0.19800  0.98600  1.0000
  O   O1        1.0  0.86900  0.13500  0.00051  1.0000
  O   O2        1.0  0.04750  0.67500  0.01910  1.0000
  O   O3        1.0  0.44700  0.29300  0.05010  1.0000
  O   O4        1.0  0.76200  0.53800  0.18200  1.0000
  O   O5        1.0  0.69700  0.94600  0.18400  1.0000
  O   O6        1.0  0.30300  0.44600  0.31600  1.0000
  O   O7        1.0  0.23800  0.03780  0.31800  1.0000
  O   O8        1.0  0.55300  0.79300  0.45000  1.0000
  O   O9        1.0  0.95300  0.17500  0.48100  1.0000
  O   O10       1.0  0.13100  0.63500  0.49900  1.0000
  O   O11       1.0  0.86900  0.36500  0.50100  1.0000
  O   O12       1.0  0.04750  0.82500  0.51900  1.0000
  O   O13       1.0  0.44700  0.20700  0.55000  1.0000
  O   O14       1.0  0.76200  0.96200  0.68200  1.0000
  O   O15       1.0  0.69700  0.55400  0.68400  1.0000
  O   O16       1.0  0.30300  0.05410  0.81600  1.0000
  O   O17       1.0  0.23800  0.46200  0.81800  1.0000
  O   O18       1.0  0.55300  0.70700  0.95000  1.0000
  O   O19       1.0  0.95300  0.32500  0.98100  1.0000
  O   O20       1.0  0.13100  0.86500  0.99900  1.0000
