data_image0
_chemical_formula_structural       Hg6Tb2
_chemical_formula_sum              "Hg6 Tb2"
_cell_length_a       6.58206
_cell_length_b       6.58206
_cell_length_c       5.0507
_cell_angle_alpha    90
_cell_angle_beta     90
_cell_angle_gamma    120

_space_group_name_H-M_alt    "P 1"
_space_group_IT_number       1

loop_
  _space_group_symop_operation_xyz
  'x, y, z'

loop_
  _atom_site_type_symbol
  _atom_site_label
  _atom_site_symmetry_multiplicity
  _atom_site_fract_x
  _atom_site_fract_y
  _atom_site_fract_z
  _atom_site_occupancy
  Hg  Hg1       1.0  0.16600  0.33200  0.25000  1.0000
  Hg  Hg2       1.0  0.66800  0.83400  0.25000  1.0000
  Hg  Hg3       1.0  0.16600  0.83400  0.25000  1.0000
  Hg  Hg4       1.0  0.83400  0.66800  0.75000  1.0000
  Hg  Hg5       1.0  0.33200  0.16600  0.75000  1.0000
  Hg  Hg6       1.0  0.83400  0.16600  0.75000  1.0000
  Tb  Tb1       1.0  0.33300  0.66700  0.75000  1.0000
  Tb  Tb2       1.0  0.66700  0.33300  0.25000  1.0000
