data_image0
_chemical_formula_structural       B10Na6O20Sr2
_chemical_formula_sum              "B10 Na6 O20 Sr2"
_cell_length_a       7.23749
_cell_length_b       7.51806
_cell_length_c       9.65878
_cell_angle_alpha    80.4733
_cell_angle_beta     70.2662
_cell_angle_gamma    61.5766

_space_group_name_H-M_alt    "P 1"
_space_group_IT_number       1

loop_
  _space_group_symop_operation_xyz
  'x, y, z'

loop_
  _atom_site_type_symbol
  _atom_site_label
  _atom_site_symmetry_multiplicity
  _atom_site_fract_x
  _atom_site_fract_y
  _atom_site_fract_z
  _atom_site_occupancy
  B   B1        1.0  0.13700  0.67600  0.08020  1.0000
  B   B2        1.0  0.38800  0.33100  0.13600  1.0000
  B   B3        1.0  0.30400  0.62500  0.28700  1.0000
  B   B4        1.0  0.49200  0.77300  0.37700  1.0000
  B   B5        1.0  0.84300  0.24800  0.45300  1.0000
  B   B6        1.0  0.15700  0.75200  0.54700  1.0000
  B   B7        1.0  0.50800  0.22700  0.62300  1.0000
  B   B8        1.0  0.69600  0.37500  0.71300  1.0000
  B   B9        1.0  0.61200  0.66900  0.86400  1.0000
  B   B10       1.0  0.86300  0.32400  0.92000  1.0000
  Na  Na1       1.0  0.27800  0.01470  0.11600  1.0000
  Na  Na2       1.0  0.85000  0.50700  0.16400  1.0000
  Na  Na3       1.0  0.20900  0.27600  0.44600  1.0000
  Na  Na4       1.0  0.79100  0.72400  0.55400  1.0000
  Na  Na5       1.0  0.15000  0.49300  0.83600  1.0000
  Na  Na6       1.0  0.72200  0.98500  0.88400  1.0000
  O   O1        1.0  0.99300  0.20400  0.00150  1.0000
  O   O2        1.0  0.23300  0.46500  0.06350  1.0000
  O   O3        1.0  0.50800  0.13700  0.10500  1.0000
  O   O4        1.0  0.17000  0.75100  0.18800  1.0000
  O   O5        1.0  0.41200  0.40900  0.24800  1.0000
  O   O6        1.0  0.47300  0.68800  0.26900  1.0000
  O   O7        1.0  0.98500  0.22000  0.31800  1.0000
  O   O8        1.0  0.66800  0.80000  0.35700  1.0000
  O   O9        1.0  0.15800  0.64800  0.43900  1.0000
  O   O10       1.0  0.68400  0.17400  0.48900  1.0000
  O   O11       1.0  0.31600  0.82600  0.51100  1.0000
  O   O12       1.0  0.84200  0.35200  0.56100  1.0000
  O   O13       1.0  0.33200  0.20000  0.64300  1.0000
  O   O14       1.0  0.01480  0.78000  0.68200  1.0000
  O   O15       1.0  0.52700  0.31200  0.73100  1.0000
  O   O16       1.0  0.58800  0.59100  0.75200  1.0000
  O   O17       1.0  0.83000  0.24900  0.81200  1.0000
  O   O18       1.0  0.49200  0.86300  0.89500  1.0000
  O   O19       1.0  0.76700  0.53500  0.93600  1.0000
  O   O20       1.0  0.00715  0.79600  0.99800  1.0000
  Sr  Sr1       1.0  0.78700  0.05400  0.22500  1.0000
  Sr  Sr2       1.0  0.21300  0.94600  0.77500  1.0000
