data_image0
_chemical_formula_structural       H14I2O20S2
_chemical_formula_sum              "H14 I2 O20 S2"
_cell_length_a       5.56555
_cell_length_b       5.62158
_cell_length_c       11.7786
_cell_angle_alpha    87.2294
_cell_angle_beta     86.0547
_cell_angle_gamma    73.5216

_space_group_name_H-M_alt    "P 1"
_space_group_IT_number       1

loop_
  _space_group_symop_operation_xyz
  'x, y, z'

loop_
  _atom_site_type_symbol
  _atom_site_label
  _atom_site_symmetry_multiplicity
  _atom_site_fract_x
  _atom_site_fract_y
  _atom_site_fract_z
  _atom_site_occupancy
  H   H1        1.0  0.28500  0.65800  0.09530  1.0000
  H   H2        1.0  0.63200  0.94700  0.10800  1.0000
  H   H3        1.0  0.06910  0.25000  0.15000  1.0000
  H   H4        1.0  0.85400  0.83800  0.34100  1.0000
  H   H5        1.0  0.51800  0.30900  0.36200  1.0000
  H   H6        1.0  0.05000  0.32600  0.36800  1.0000
  H   H7        1.0  0.43900  0.78200  0.44500  1.0000
  H   H8        1.0  0.56100  0.21800  0.55500  1.0000
  H   H9        1.0  0.95000  0.67400  0.63200  1.0000
  H   H10       1.0  0.48200  0.69100  0.63800  1.0000
  H   H11       1.0  0.14600  0.16200  0.65900  1.0000
  H   H12       1.0  0.93100  0.75000  0.85000  1.0000
  H   H13       1.0  0.36800  0.05250  0.89200  1.0000
  H   H14       1.0  0.71500  0.34200  0.90500  1.0000
  I   I1        1.0  0.00000  0.00000  0.00000  1.0000
  I   I2        1.0  0.00000  0.00000  0.50000  1.0000
  O   O1        1.0  0.10800  0.68100  0.07250  1.0000
  O   O2        1.0  0.18800  0.13300  0.09570  1.0000
  O   O3        1.0  0.70900  0.08850  0.10100  1.0000
  O   O4        1.0  0.56900  0.65400  0.13600  1.0000
  O   O5        1.0  0.90000  0.40800  0.25500  1.0000
  O   O6        1.0  0.45800  0.40600  0.29000  1.0000
  O   O7        1.0  0.59800  0.77000  0.33100  1.0000
  O   O8        1.0  0.01480  0.88500  0.35100  1.0000
  O   O9        1.0  0.13900  0.25500  0.44000  1.0000
  O   O10       1.0  0.66500  0.20600  0.47900  1.0000
  O   O11       1.0  0.33500  0.79400  0.52100  1.0000
  O   O12       1.0  0.86100  0.74500  0.56000  1.0000
  O   O13       1.0  0.98500  0.11500  0.64900  1.0000
  O   O14       1.0  0.40200  0.23000  0.66900  1.0000
  O   O15       1.0  0.54200  0.59400  0.71000  1.0000
  O   O16       1.0  0.09980  0.59200  0.74500  1.0000
  O   O17       1.0  0.43100  0.34600  0.86400  1.0000
  O   O18       1.0  0.29100  0.91200  0.89900  1.0000
  O   O19       1.0  0.81200  0.86700  0.90400  1.0000
  O   O20       1.0  0.89200  0.31900  0.92800  1.0000
  S   S1        1.0  0.63900  0.56400  0.25000  1.0000
  S   S2        1.0  0.36100  0.43600  0.75000  1.0000
