data_image0
_chemical_formula_structural       KSe2Yb
_chemical_formula_sum              "K1 Se2 Yb1"
_cell_length_a       4.30047
_cell_length_b       4.30047
_cell_length_c       8.04009
_cell_angle_alpha    90
_cell_angle_beta     105.512
_cell_angle_gamma    60

_space_group_name_H-M_alt    "P 1"
_space_group_IT_number       1

loop_
  _space_group_symop_operation_xyz
  'x, y, z'

loop_
  _atom_site_type_symbol
  _atom_site_label
  _atom_site_symmetry_multiplicity
  _atom_site_fract_x
  _atom_site_fract_y
  _atom_site_fract_z
  _atom_site_occupancy
  K   K1        1.0  0.00000  0.50000  0.50000  1.0000
  Se  Se1       1.0  0.47000  0.26500  0.20600  1.0000
  Se  Se2       1.0  0.53000  0.73500  0.79400  1.0000
  Yb  Yb1       1.0  0.00000  0.00000  0.00000  1.0000
