data_image0
_chemical_formula_structural       Te6Zr2
_chemical_formula_sum              "Te6 Zr2"
_cell_length_a       5.92503
_cell_length_b       3.94038
_cell_length_c       10.2145
_cell_angle_alpha    90
_cell_angle_beta     84.3304
_cell_angle_gamma    90

_space_group_name_H-M_alt    "P 1"
_space_group_IT_number       1

loop_
  _space_group_symop_operation_xyz
  'x, y, z'

loop_
  _atom_site_type_symbol
  _atom_site_label
  _atom_site_symmetry_multiplicity
  _atom_site_fract_x
  _atom_site_fract_y
  _atom_site_fract_z
  _atom_site_occupancy
  Te  Te1       1.0  0.07720  0.25000  0.16200  1.0000
  Te  Te2       1.0  0.56000  0.25000  0.17100  1.0000
  Te  Te3       1.0  0.76200  0.75000  0.44500  1.0000
  Te  Te4       1.0  0.23800  0.25000  0.55500  1.0000
  Te  Te5       1.0  0.44000  0.75000  0.82900  1.0000
  Te  Te6       1.0  0.92300  0.75000  0.83800  1.0000
  Zr  Zr1       1.0  0.28400  0.75000  0.33200  1.0000
  Zr  Zr2       1.0  0.71600  0.25000  0.66800  1.0000
