data_image0
_chemical_formula_structural       Bi2Mg3
_chemical_formula_sum              "Bi2 Mg3"
_cell_length_a       4.68922
_cell_length_b       4.68928
_cell_length_c       7.39311
_cell_angle_alpha    90
_cell_angle_beta     89.9989
_cell_angle_gamma    120

_space_group_name_H-M_alt    "P 1"
_space_group_IT_number       1

loop_
  _space_group_symop_operation_xyz
  'x, y, z'

loop_
  _atom_site_type_symbol
  _atom_site_label
  _atom_site_symmetry_multiplicity
  _atom_site_fract_x
  _atom_site_fract_y
  _atom_site_fract_z
  _atom_site_occupancy
  Bi  Bi1       1.0  0.33300  0.66700  0.22000  1.0000
  Bi  Bi2       1.0  0.66700  0.33300  0.78000  1.0000
  Mg  Mg1       1.0  0.00000  0.00000  0.00000  1.0000
  Mg  Mg2       1.0  0.66700  0.33300  0.37100  1.0000
  Mg  Mg3       1.0  0.33300  0.66700  0.62900  1.0000
