data_image0
_chemical_formula_structural       GaSi3
_chemical_formula_sum              "Ga1 Si3"
_cell_length_a       5.219
_cell_length_b       5.219
_cell_length_c       5.219
_cell_angle_alpha    137.941
_cell_angle_beta     137.941
_cell_angle_gamma    60.9935

_space_group_name_H-M_alt    "P 1"
_space_group_IT_number       1

loop_
  _space_group_symop_operation_xyz
  'x, y, z'

loop_
  _atom_site_type_symbol
  _atom_site_label
  _atom_site_symmetry_multiplicity
  _atom_site_fract_x
  _atom_site_fract_y
  _atom_site_fract_z
  _atom_site_occupancy
  Ga  Ga1       1.0  0.00000  0.00000  0.00000  1.0000
  Si  Si1       1.0  0.75000  0.25000  0.50000  1.0000
  Si  Si2       1.0  0.25000  0.75000  0.50000  1.0000
  Si  Si3       1.0  0.50000  0.50000  0.00000  1.0000
