data_image0
_chemical_formula_structural       C4Cl8Cu2H20N4
_chemical_formula_sum              "C4 Cl8 Cu2 H20 N4"
_cell_length_a       8.162
_cell_length_b       7.27902
_cell_length_c       7.02031
_cell_angle_alpha    90
_cell_angle_beta     89.8173
_cell_angle_gamma    90

_space_group_name_H-M_alt    "P 1"
_space_group_IT_number       1

loop_
  _space_group_symop_operation_xyz
  'x, y, z'

loop_
  _atom_site_type_symbol
  _atom_site_label
  _atom_site_symmetry_multiplicity
  _atom_site_fract_x
  _atom_site_fract_y
  _atom_site_fract_z
  _atom_site_occupancy
  C   C1        1.0  0.06700  0.94600  0.05040  1.0000
  C   C2        1.0  0.93300  0.44600  0.45000  1.0000
  C   C3        1.0  0.06690  0.55400  0.55000  1.0000
  C   C4        1.0  0.93300  0.05360  0.95000  1.0000
  Cl  Cl1       1.0  0.21600  0.46100  0.02870  1.0000
  Cl  Cl2       1.0  0.53600  0.28500  0.24000  1.0000
  Cl  Cl3       1.0  0.46400  0.78500  0.26000  1.0000
  Cl  Cl4       1.0  0.78400  0.96100  0.47100  1.0000
  Cl  Cl5       1.0  0.21600  0.03880  0.52900  1.0000
  Cl  Cl6       1.0  0.53600  0.21500  0.74000  1.0000
  Cl  Cl7       1.0  0.46400  0.71500  0.76000  1.0000
  Cl  Cl8       1.0  0.78400  0.53900  0.97100  1.0000
  Cu  Cu1       1.0  0.50000  0.50000  0.00000  1.0000
  Cu  Cu2       1.0  0.50000  0.00000  0.50000  1.0000
  H   H1        1.0  0.06620  0.80100  0.00969  1.0000
  H   H2        1.0  0.24000  0.16100  0.03520  1.0000
  H   H3        1.0  0.32200  0.94900  0.07210  1.0000
  H   H4        1.0  0.74800  0.98800  0.14700  1.0000
  H   H5        1.0  0.05450  0.95600  0.20600  1.0000
  H   H6        1.0  0.94500  0.45600  0.29400  1.0000
  H   H7        1.0  0.25200  0.48800  0.35300  1.0000
  H   H8        1.0  0.67800  0.44900  0.42800  1.0000
  H   H9        1.0  0.76000  0.66100  0.46500  1.0000
  H   H10       1.0  0.93400  0.30100  0.49000  1.0000
  H   H11       1.0  0.06620  0.69900  0.51000  1.0000
  H   H12       1.0  0.24000  0.33900  0.53500  1.0000
  H   H13       1.0  0.32200  0.55100  0.57200  1.0000
  H   H14       1.0  0.74800  0.51200  0.64700  1.0000
  H   H15       1.0  0.05450  0.54400  0.70600  1.0000
  H   H16       1.0  0.94500  0.04430  0.79400  1.0000
  H   H17       1.0  0.25200  0.01250  0.85300  1.0000
  H   H18       1.0  0.67800  0.05150  0.92800  1.0000
  H   H19       1.0  0.76000  0.83900  0.96500  1.0000
  H   H20       1.0  0.93400  0.19900  0.99000  1.0000
  N   N1        1.0  0.77000  0.97800  0.00063  1.0000
  N   N2        1.0  0.23000  0.47800  0.49900  1.0000
  N   N3        1.0  0.77000  0.52200  0.50100  1.0000
  N   N4        1.0  0.23000  0.02210  0.99900  1.0000
