data_image0
_chemical_formula_structural       I6O26Rb2V4
_chemical_formula_sum              "I6 O26 Rb2 V4"
_cell_length_a       7.75729
_cell_length_b       9.41682
_cell_length_c       9.41682
_cell_angle_alpha    94.8546
_cell_angle_beta     114.323
_cell_angle_gamma    114.323

_space_group_name_H-M_alt    "P 1"
_space_group_IT_number       1

loop_
  _space_group_symop_operation_xyz
  'x, y, z'

loop_
  _atom_site_type_symbol
  _atom_site_label
  _atom_site_symmetry_multiplicity
  _atom_site_fract_x
  _atom_site_fract_y
  _atom_site_fract_z
  _atom_site_occupancy
  I   I1        1.0  0.70100  0.25300  0.23900  1.0000
  I   I2        1.0  0.20900  0.26100  0.24700  1.0000
  I   I3        1.0  0.69900  0.98600  0.48600  1.0000
  I   I4        1.0  0.22700  0.01420  0.51400  1.0000
  I   I5        1.0  0.70100  0.73900  0.75300  1.0000
  I   I6        1.0  0.20900  0.74700  0.76100  1.0000
  O   O1        1.0  0.65800  0.00000  0.00000  1.0000
  O   O2        1.0  0.44100  0.70500  0.00971  1.0000
  O   O3        1.0  0.03810  0.21700  0.01810  1.0000
  O   O4        1.0  0.41100  0.18100  0.12600  1.0000
  O   O5        1.0  0.44100  0.51000  0.20500  1.0000
  O   O6        1.0  0.03990  0.05190  0.25000  1.0000
  O   O7        1.0  0.81600  0.76500  0.26500  1.0000
  O   O8        1.0  0.66200  0.97300  0.27200  1.0000
  O   O9        1.0  0.80300  0.48200  0.28300  1.0000
  O   O10       1.0  0.10400  0.37400  0.31900  1.0000
  O   O11       1.0  0.41000  0.91400  0.41400  1.0000
  O   O12       1.0  0.73800  0.25000  0.44800  1.0000
  O   O13       1.0  0.66200  0.77200  0.47300  1.0000
  O   O14       1.0  0.65800  0.50000  0.50000  1.0000
  O   O15       1.0  0.41800  0.22800  0.52700  1.0000
  O   O16       1.0  0.03990  0.75000  0.55200  1.0000
  O   O17       1.0  0.08260  0.08620  0.58600  1.0000
  O   O18       1.0  0.41100  0.62600  0.68100  1.0000
  O   O19       1.0  0.03810  0.51800  0.71700  1.0000
  O   O20       1.0  0.41800  0.02750  0.72800  1.0000
  O   O21       1.0  0.78600  0.23500  0.73500  1.0000
  O   O22       1.0  0.73800  0.94800  0.75000  1.0000
  O   O23       1.0  0.72700  0.49000  0.79500  1.0000
  O   O24       1.0  0.10400  0.81900  0.87400  1.0000
  O   O25       1.0  0.80300  0.78300  0.98200  1.0000
  O   O26       1.0  0.72700  0.29500  0.99000  1.0000
  Rb  Rb1       1.0  0.09530  0.63800  0.13800  1.0000
  Rb  Rb2       1.0  0.31900  0.36200  0.86200  1.0000
  V   V1        1.0  0.69900  0.85500  0.11100  1.0000
  V   V2        1.0  0.69900  0.61100  0.35500  1.0000
  V   V3        1.0  0.73400  0.38900  0.64500  1.0000
  V   V4        1.0  0.73400  0.14500  0.88900  1.0000
