data_image0
_chemical_formula_structural       BaO3Ti
_chemical_formula_sum              "Ba1 O3 Ti1"
_cell_length_a       4.0159
_cell_length_b       4.0159
_cell_length_c       4.0159
_cell_angle_alpha    89.8777
_cell_angle_beta     89.8777
_cell_angle_gamma    89.8777

_space_group_name_H-M_alt    "P 1"
_space_group_IT_number       1

loop_
  _space_group_symop_operation_xyz
  'x, y, z'

loop_
  _atom_site_type_symbol
  _atom_site_label
  _atom_site_symmetry_multiplicity
  _atom_site_fract_x
  _atom_site_fract_y
  _atom_site_fract_z
  _atom_site_occupancy
  Ba  Ba1       1.0  0.00001  0.00001  0.00001  1.0000
  O   O1        1.0  0.51100  0.51100  0.01560  1.0000
  O   O2        1.0  0.51100  0.01560  0.51100  1.0000
  O   O3        1.0  0.01560  0.51100  0.51100  1.0000
  Ti  Ti1       1.0  0.49000  0.49000  0.49000  1.0000
