data_image0
_chemical_formula_structural       NaS2Yb
_chemical_formula_sum              "Na1 S2 Yb1"
_cell_length_a       4.02679
_cell_length_b       4.0268
_cell_length_c       6.96994
_cell_angle_alpha    90
_cell_angle_beta     106.79
_cell_angle_gamma    60

_space_group_name_H-M_alt    "P 1"
_space_group_IT_number       1

loop_
  _space_group_symop_operation_xyz
  'x, y, z'

loop_
  _atom_site_type_symbol
  _atom_site_label
  _atom_site_symmetry_multiplicity
  _atom_site_fract_x
  _atom_site_fract_y
  _atom_site_fract_z
  _atom_site_occupancy
  Na  Na1       1.0  0.00000  0.50000  0.50000  1.0000
  S   S1        1.0  0.48900  0.25600  0.23300  1.0000
  S   S2        1.0  0.51100  0.74400  0.76700  1.0000
  Yb  Yb1       1.0  0.00000  0.00000  0.00000  1.0000
