data_image0
_chemical_formula_structural       Pd2Rb4Se32
_chemical_formula_sum              "Pd2 Rb4 Se32"
_cell_length_a       12.8793
_cell_length_b       12.8793
_cell_length_c       6.98331
_cell_angle_alpha    90
_cell_angle_beta     90
_cell_angle_gamma    90

_space_group_name_H-M_alt    "P 1"
_space_group_IT_number       1

loop_
  _space_group_symop_operation_xyz
  'x, y, z'

loop_
  _atom_site_type_symbol
  _atom_site_label
  _atom_site_symmetry_multiplicity
  _atom_site_fract_x
  _atom_site_fract_y
  _atom_site_fract_z
  _atom_site_occupancy
  Pd  Pd1       1.0  0.00000  0.00000  0.00000  1.0000
  Pd  Pd2       1.0  0.50000  0.50000  0.00000  1.0000
  Rb  Rb1       1.0  0.50000  0.00000  0.00000  1.0000
  Rb  Rb2       1.0  0.00000  0.50000  0.00000  1.0000
  Rb  Rb3       1.0  0.00000  0.00000  0.50000  1.0000
  Rb  Rb4       1.0  0.50000  0.50000  0.50000  1.0000
  Se  Se1       1.0  0.03160  0.18800  0.02980  1.0000
  Se  Se2       1.0  0.53200  0.31200  0.02980  1.0000
  Se  Se3       1.0  0.46800  0.68800  0.02980  1.0000
  Se  Se4       1.0  0.96800  0.81200  0.02980  1.0000
  Se  Se5       1.0  0.20900  0.20300  0.12900  1.0000
  Se  Se6       1.0  0.70900  0.29700  0.12900  1.0000
  Se  Se7       1.0  0.29100  0.70300  0.12900  1.0000
  Se  Se8       1.0  0.79100  0.79700  0.12900  1.0000
  Se  Se9       1.0  0.69300  0.08150  0.40700  1.0000
  Se  Se10      1.0  0.19300  0.41800  0.40700  1.0000
  Se  Se11      1.0  0.80700  0.58200  0.40700  1.0000
  Se  Se12      1.0  0.30700  0.91800  0.40700  1.0000
  Se  Se13      1.0  0.42300  0.19300  0.41300  1.0000
  Se  Se14      1.0  0.92300  0.30700  0.41300  1.0000
  Se  Se15      1.0  0.07740  0.69300  0.41300  1.0000
  Se  Se16      1.0  0.57700  0.80700  0.41300  1.0000
  Se  Se17      1.0  0.30700  0.07740  0.58700  1.0000
  Se  Se18      1.0  0.80700  0.42300  0.58700  1.0000
  Se  Se19      1.0  0.19300  0.57700  0.58700  1.0000
  Se  Se20      1.0  0.69300  0.92300  0.58700  1.0000
  Se  Se21      1.0  0.58200  0.19300  0.59300  1.0000
  Se  Se22      1.0  0.08150  0.30700  0.59300  1.0000
  Se  Se23      1.0  0.91800  0.69300  0.59300  1.0000
  Se  Se24      1.0  0.41800  0.80700  0.59300  1.0000
  Se  Se25      1.0  0.79700  0.20900  0.87100  1.0000
  Se  Se26      1.0  0.29700  0.29100  0.87100  1.0000
  Se  Se27      1.0  0.70300  0.70900  0.87100  1.0000
  Se  Se28      1.0  0.20300  0.79100  0.87100  1.0000
  Se  Se29      1.0  0.81200  0.03160  0.97000  1.0000
  Se  Se30      1.0  0.31200  0.46800  0.97000  1.0000
  Se  Se31      1.0  0.68800  0.53200  0.97000  1.0000
  Se  Se32      1.0  0.18800  0.96800  0.97000  1.0000
