data_image0
_chemical_formula_structural       RbS2Ti
_chemical_formula_sum              "Rb1 S2 Ti1"
_cell_length_a       3.66773
_cell_length_b       3.66773
_cell_length_c       7.93364
_cell_angle_alpha    103.365
_cell_angle_beta     76.6352
_cell_angle_gamma    120

_space_group_name_H-M_alt    "P 1"
_space_group_IT_number       1

loop_
  _space_group_symop_operation_xyz
  'x, y, z'

loop_
  _atom_site_type_symbol
  _atom_site_label
  _atom_site_symmetry_multiplicity
  _atom_site_fract_x
  _atom_site_fract_y
  _atom_site_fract_z
  _atom_site_occupancy
  Rb  Rb1       1.0  0.81800  0.18200  0.54600  1.0000
  S   S1        1.0  0.59400  0.40600  0.21900  1.0000
  S   S2        1.0  0.38000  0.62000  0.86100  1.0000
  Ti  Ti1       1.0  0.98700  0.01320  0.03950  1.0000
