data_image0
_chemical_formula_structural       LaRbSe2
_chemical_formula_sum              "La1 Rb1 Se2"
_cell_length_a       4.46918
_cell_length_b       4.46918
_cell_length_c       8.36522
_cell_angle_alpha    105.493
_cell_angle_beta     105.493
_cell_angle_gamma    60

_space_group_name_H-M_alt    "P 1"
_space_group_IT_number       1

loop_
  _space_group_symop_operation_xyz
  'x, y, z'

loop_
  _atom_site_type_symbol
  _atom_site_label
  _atom_site_symmetry_multiplicity
  _atom_site_fract_x
  _atom_site_fract_y
  _atom_site_fract_z
  _atom_site_occupancy
  La  La1       1.0  0.50000  0.50000  0.50000  1.0000
  Rb  Rb1       1.0  0.00000  0.00000  0.00000  1.0000
  Se  Se1       1.0  0.76600  0.76600  0.29800  1.0000
  Se  Se2       1.0  0.23400  0.23400  0.70200  1.0000
