data_image0
_chemical_formula_structural       O10Pr18Sb10
_chemical_formula_sum              "O10 Pr18 Sb10"
_cell_length_a       10.2857
_cell_length_b       10.2857
_cell_length_c       9.26761
_cell_angle_alpha    90
_cell_angle_beta     90
_cell_angle_gamma    90

_space_group_name_H-M_alt    "P 1"
_space_group_IT_number       1

loop_
  _space_group_symop_operation_xyz
  'x, y, z'

loop_
  _atom_site_type_symbol
  _atom_site_label
  _atom_site_symmetry_multiplicity
  _atom_site_fract_x
  _atom_site_fract_y
  _atom_site_fract_z
  _atom_site_occupancy
  O   O1        1.0  0.25000  0.25000  0.06740  1.0000
  O   O2        1.0  0.87100  0.02570  0.09040  1.0000
  O   O3        1.0  0.62900  0.47400  0.09040  1.0000
  O   O4        1.0  0.02570  0.62900  0.09040  1.0000
  O   O5        1.0  0.47400  0.87100  0.09040  1.0000
  O   O6        1.0  0.52600  0.12900  0.91000  1.0000
  O   O7        1.0  0.97400  0.37100  0.91000  1.0000
  O   O8        1.0  0.37100  0.52600  0.91000  1.0000
  O   O9        1.0  0.12900  0.97400  0.91000  1.0000
  O   O10       1.0  0.75000  0.75000  0.93300  1.0000
  Pr  Pr1       1.0  0.83100  0.52300  0.00128  1.0000
  Pr  Pr2       1.0  0.52300  0.66900  0.00128  1.0000
  Pr  Pr3       1.0  0.97700  0.83100  0.00128  1.0000
  Pr  Pr4       1.0  0.66900  0.97700  0.00128  1.0000
  Pr  Pr5       1.0  0.25000  0.25000  0.33300  1.0000
  Pr  Pr6       1.0  0.85400  0.04580  0.34600  1.0000
  Pr  Pr7       1.0  0.64600  0.45400  0.34600  1.0000
  Pr  Pr8       1.0  0.04580  0.64600  0.34600  1.0000
  Pr  Pr9       1.0  0.45400  0.85400  0.34600  1.0000
  Pr  Pr10      1.0  0.54600  0.14600  0.65400  1.0000
  Pr  Pr11      1.0  0.95400  0.35400  0.65400  1.0000
  Pr  Pr12      1.0  0.35400  0.54600  0.65400  1.0000
  Pr  Pr13      1.0  0.14600  0.95400  0.65400  1.0000
  Pr  Pr14      1.0  0.75000  0.75000  0.66700  1.0000
  Pr  Pr15      1.0  0.33100  0.02340  0.99900  1.0000
  Pr  Pr16      1.0  0.02340  0.16900  0.99900  1.0000
  Pr  Pr17      1.0  0.47700  0.33100  0.99900  1.0000
  Pr  Pr18      1.0  0.16900  0.47700  0.99900  1.0000
  Sb  Sb1       1.0  0.55300  0.15300  0.30000  1.0000
  Sb  Sb2       1.0  0.94700  0.34700  0.30000  1.0000
  Sb  Sb3       1.0  0.34700  0.55300  0.30000  1.0000
  Sb  Sb4       1.0  0.15300  0.94700  0.30000  1.0000
  Sb  Sb5       1.0  0.75000  0.75000  0.31400  1.0000
  Sb  Sb6       1.0  0.25000  0.25000  0.68600  1.0000
  Sb  Sb7       1.0  0.84700  0.05350  0.70000  1.0000
  Sb  Sb8       1.0  0.65300  0.44700  0.70000  1.0000
  Sb  Sb9       1.0  0.05350  0.65300  0.70000  1.0000
  Sb  Sb10      1.0  0.44700  0.84700  0.70000  1.0000
