data_image0
_chemical_formula_structural       K6P10Ru2Se20
_chemical_formula_sum              "K6 P10 Ru2 Se20"
_cell_length_a       11.3641
_cell_length_b       7.39043
_cell_length_c       12.6718
_cell_angle_alpha    90
_cell_angle_beta     93.1918
_cell_angle_gamma    90

_space_group_name_H-M_alt    "P 1"
_space_group_IT_number       1

loop_
  _space_group_symop_operation_xyz
  'x, y, z'

loop_
  _atom_site_type_symbol
  _atom_site_label
  _atom_site_symmetry_multiplicity
  _atom_site_fract_x
  _atom_site_fract_y
  _atom_site_fract_z
  _atom_site_occupancy
  K   K1        1.0  0.90400  0.25000  0.07110  1.0000
  K   K2        1.0  0.47300  0.75000  0.38700  1.0000
  K   K3        1.0  0.98200  0.75000  0.39300  1.0000
  K   K4        1.0  0.01780  0.25000  0.60700  1.0000
  K   K5        1.0  0.52700  0.25000  0.61300  1.0000
  K   K6        1.0  0.09590  0.75000  0.92900  1.0000
  P   P1        1.0  0.72300  0.75000  0.05770  1.0000
  P   P2        1.0  0.47600  0.02010  0.08390  1.0000
  P   P3        1.0  0.47600  0.48000  0.08390  1.0000
  P   P4        1.0  0.13600  0.25000  0.27400  1.0000
  P   P5        1.0  0.27700  0.25000  0.40800  1.0000
  P   P6        1.0  0.72300  0.75000  0.59200  1.0000
  P   P7        1.0  0.86400  0.75000  0.72600  1.0000
  P   P8        1.0  0.52400  0.52000  0.91600  1.0000
  P   P9        1.0  0.52400  0.98000  0.91600  1.0000
  P   P10       1.0  0.27700  0.25000  0.94200  1.0000
  Ru  Ru1       1.0  0.35000  0.25000  0.11500  1.0000
  Ru  Ru2       1.0  0.65000  0.75000  0.88500  1.0000
  Se  Se1       1.0  0.90700  0.75000  0.11900  1.0000
  Se  Se2       1.0  0.37900  0.75000  0.12200  1.0000
  Se  Se3       1.0  0.66000  0.50900  0.16200  1.0000
  Se  Se4       1.0  0.66000  0.99100  0.16200  1.0000
  Se  Se5       1.0  0.18600  0.02290  0.16900  1.0000
  Se  Se6       1.0  0.18600  0.47700  0.16900  1.0000
  Se  Se7       1.0  0.43900  0.25000  0.31200  1.0000
  Se  Se8       1.0  0.96300  0.25000  0.33500  1.0000
  Se  Se9       1.0  0.25900  0.00241  0.49800  1.0000
  Se  Se10      1.0  0.25900  0.49800  0.49800  1.0000
  Se  Se11      1.0  0.74100  0.50200  0.50200  1.0000
  Se  Se12      1.0  0.74100  0.99800  0.50200  1.0000
  Se  Se13      1.0  0.03730  0.75000  0.66500  1.0000
  Se  Se14      1.0  0.56100  0.75000  0.68800  1.0000
  Se  Se15      1.0  0.81400  0.52300  0.83100  1.0000
  Se  Se16      1.0  0.81400  0.97700  0.83100  1.0000
  Se  Se17      1.0  0.34000  0.00865  0.83800  1.0000
  Se  Se18      1.0  0.34000  0.49100  0.83800  1.0000
  Se  Se19      1.0  0.62100  0.25000  0.87800  1.0000
  Se  Se20      1.0  0.09280  0.25000  0.88100  1.0000
