data_image0
_chemical_formula_structural       Cd6Tm2
_chemical_formula_sum              "Cd6 Tm2"
_cell_length_a       4.81303
_cell_length_b       6.40478
_cell_length_c       6.40478
_cell_angle_alpha    112.395
_cell_angle_beta     90
_cell_angle_gamma    90

_space_group_name_H-M_alt    "P 1"
_space_group_IT_number       1

loop_
  _space_group_symop_operation_xyz
  'x, y, z'

loop_
  _atom_site_type_symbol
  _atom_site_label
  _atom_site_symmetry_multiplicity
  _atom_site_fract_x
  _atom_site_fract_y
  _atom_site_fract_z
  _atom_site_occupancy
  Cd  Cd1       1.0  0.25000  0.31200  0.12100  1.0000
  Cd  Cd2       1.0  0.25000  0.82300  0.17700  1.0000
  Cd  Cd3       1.0  0.75000  0.12100  0.31200  1.0000
  Cd  Cd4       1.0  0.25000  0.87900  0.68800  1.0000
  Cd  Cd5       1.0  0.75000  0.17700  0.82300  1.0000
  Cd  Cd6       1.0  0.75000  0.68800  0.87900  1.0000
  Tm  Tm1       1.0  0.75000  0.63200  0.36800  1.0000
  Tm  Tm2       1.0  0.25000  0.36800  0.63200  1.0000
