data_image0
_chemical_formula_structural       N8O24Pd2Rb4
_chemical_formula_sum              "N8 O24 Pd2 Rb4"
_cell_length_a       7.68184
_cell_length_b       7.5505
_cell_length_c       9.61103
_cell_angle_alpha    90
_cell_angle_beta     100.828
_cell_angle_gamma    90

_space_group_name_H-M_alt    "P 1"
_space_group_IT_number       1

loop_
  _space_group_symop_operation_xyz
  'x, y, z'

loop_
  _atom_site_type_symbol
  _atom_site_label
  _atom_site_symmetry_multiplicity
  _atom_site_fract_x
  _atom_site_fract_y
  _atom_site_fract_z
  _atom_site_occupancy
  N   N1        1.0  0.66300  0.65300  0.01440  1.0000
  N   N2        1.0  0.83000  0.04400  0.20700  1.0000
  N   N3        1.0  0.17000  0.54400  0.29300  1.0000
  N   N4        1.0  0.33700  0.15300  0.48600  1.0000
  N   N5        1.0  0.66300  0.84700  0.51400  1.0000
  N   N6        1.0  0.83000  0.45600  0.70700  1.0000
  N   N7        1.0  0.17000  0.95600  0.79300  1.0000
  N   N8        1.0  0.33700  0.34700  0.98600  1.0000
  O   O1        1.0  0.53200  0.67500  0.07110  1.0000
  O   O2        1.0  0.79300  0.56000  0.08920  1.0000
  O   O3        1.0  0.32400  0.29000  0.10400  1.0000
  O   O4        1.0  0.70600  0.10300  0.11600  1.0000
  O   O5        1.0  0.16300  0.61000  0.16500  1.0000
  O   O6        1.0  0.94100  0.93400  0.18400  1.0000
  O   O7        1.0  0.05940  0.43400  0.31600  1.0000
  O   O8        1.0  0.83700  0.11000  0.33500  1.0000
  O   O9        1.0  0.29400  0.60300  0.38400  1.0000
  O   O10       1.0  0.67600  0.79000  0.39600  1.0000
  O   O11       1.0  0.20700  0.05970  0.41100  1.0000
  O   O12       1.0  0.46800  0.17500  0.42900  1.0000
  O   O13       1.0  0.53200  0.82500  0.57100  1.0000
  O   O14       1.0  0.79300  0.94000  0.58900  1.0000
  O   O15       1.0  0.32400  0.21000  0.60400  1.0000
  O   O16       1.0  0.70600  0.39700  0.61600  1.0000
  O   O17       1.0  0.16300  0.89000  0.66500  1.0000
  O   O18       1.0  0.94100  0.56600  0.68400  1.0000
  O   O19       1.0  0.05940  0.06640  0.81600  1.0000
  O   O20       1.0  0.83700  0.39000  0.83500  1.0000
  O   O21       1.0  0.29400  0.89700  0.88400  1.0000
  O   O22       1.0  0.67600  0.71000  0.89600  1.0000
  O   O23       1.0  0.20700  0.44000  0.91100  1.0000
  O   O24       1.0  0.46800  0.32500  0.92900  1.0000
  Pd  Pd1       1.0  0.00000  0.50000  0.00000  1.0000
  Pd  Pd2       1.0  0.00000  0.00000  0.50000  1.0000
  Rb  Rb1       1.0  0.34900  0.93400  0.18400  1.0000
  Rb  Rb2       1.0  0.65100  0.43400  0.31600  1.0000
  Rb  Rb3       1.0  0.34900  0.56600  0.68400  1.0000
  Rb  Rb4       1.0  0.65100  0.06590  0.81600  1.0000
