data_image0
_chemical_formula_structural       C4Ca2H16O12P4
_chemical_formula_sum              "C4 Ca2 H16 O12 P4"
_cell_length_a       5.54905
_cell_length_b       7.19203
_cell_length_c       10.3459
_cell_angle_alpha    107.7
_cell_angle_beta     105.556
_cell_angle_gamma    90

_space_group_name_H-M_alt    "P 1"
_space_group_IT_number       1

loop_
  _space_group_symop_operation_xyz
  'x, y, z'

loop_
  _atom_site_type_symbol
  _atom_site_label
  _atom_site_symmetry_multiplicity
  _atom_site_fract_x
  _atom_site_fract_y
  _atom_site_fract_z
  _atom_site_occupancy
  C   C1        1.0  0.46400  0.63900  0.37200  1.0000
  C   C2        1.0  0.90800  0.13900  0.37200  1.0000
  C   C3        1.0  0.09160  0.86100  0.62800  1.0000
  C   C4        1.0  0.53600  0.36100  0.62800  1.0000
  Ca  Ca1       1.0  0.87200  0.25000  0.00000  1.0000
  Ca  Ca2       1.0  0.12800  0.75000  0.00000  1.0000
  H   H1        1.0  0.80900  0.62800  0.20700  1.0000
  H   H2        1.0  0.39800  0.12800  0.20700  1.0000
  H   H3        1.0  0.49900  0.78100  0.35900  1.0000
  H   H4        1.0  0.86000  0.28100  0.35900  1.0000
  H   H5        1.0  0.28800  0.63700  0.40000  1.0000
  H   H6        1.0  0.11300  0.13700  0.40000  1.0000
  H   H7        1.0  0.83700  0.11400  0.45500  1.0000
  H   H8        1.0  0.61800  0.61400  0.45500  1.0000
  H   H9        1.0  0.16300  0.88600  0.54500  1.0000
  H   H10       1.0  0.38200  0.38600  0.54500  1.0000
  H   H11       1.0  0.88700  0.86300  0.60000  1.0000
  H   H12       1.0  0.71200  0.36300  0.60000  1.0000
  H   H13       1.0  0.14000  0.71900  0.64100  1.0000
  H   H14       1.0  0.50100  0.21900  0.64100  1.0000
  H   H15       1.0  0.60200  0.87200  0.79300  1.0000
  H   H16       1.0  0.19100  0.37200  0.79300  1.0000
  O   O1        1.0  0.86500  0.98700  0.09040  1.0000
  O   O2        1.0  0.22600  0.48700  0.09040  1.0000
  O   O3        1.0  0.49100  0.92200  0.17700  1.0000
  O   O4        1.0  0.68600  0.42200  0.17700  1.0000
  O   O5        1.0  0.32900  0.26300  0.23800  1.0000
  O   O6        1.0  0.90800  0.76300  0.23800  1.0000
  O   O7        1.0  0.67100  0.73700  0.76200  1.0000
  O   O8        1.0  0.09170  0.23700  0.76200  1.0000
  O   O9        1.0  0.50900  0.07810  0.82300  1.0000
  O   O10       1.0  0.31400  0.57800  0.82300  1.0000
  O   O11       1.0  0.77400  0.51300  0.91000  1.0000
  O   O12       1.0  0.13500  0.01350  0.91000  1.0000
  P   P1        1.0  0.77800  0.94800  0.20800  1.0000
  P   P2        1.0  0.43000  0.44800  0.20800  1.0000
  P   P3        1.0  0.57000  0.55200  0.79200  1.0000
  P   P4        1.0  0.22200  0.05250  0.79200  1.0000
