data_image0
_chemical_formula_structural       Co3H16O16P2
_chemical_formula_sum              "Co3 H16 O16 P2"
_cell_length_a       4.81849
_cell_length_b       8.12613
_cell_length_c       8.12613
_cell_angle_alpha    90.9059
_cell_angle_beta     102.522
_cell_angle_gamma    102.522

_space_group_name_H-M_alt    "P 1"
_space_group_IT_number       1

loop_
  _space_group_symop_operation_xyz
  'x, y, z'

loop_
  _atom_site_type_symbol
  _atom_site_label
  _atom_site_symmetry_multiplicity
  _atom_site_fract_x
  _atom_site_fract_y
  _atom_site_fract_z
  _atom_site_occupancy
  Co  Co1       1.0  0.00000  0.00000  0.00000  1.0000
  Co  Co2       1.0  0.00000  0.61700  0.38300  1.0000
  Co  Co3       1.0  0.00000  0.38300  0.61700  1.0000
  H   H1        1.0  0.64500  0.18500  0.04690  1.0000
  H   H2        1.0  0.74200  0.83000  0.16800  1.0000
  H   H3        1.0  0.25800  0.83200  0.17000  1.0000
  H   H4        1.0  0.64500  0.04690  0.18500  1.0000
  H   H5        1.0  0.00418  0.39500  0.18600  1.0000
  H   H6        1.0  0.46900  0.66500  0.26400  1.0000
  H   H7        1.0  0.53100  0.73600  0.33500  1.0000
  H   H8        1.0  0.00418  0.18600  0.39500  1.0000
  H   H9        1.0  0.99600  0.81400  0.60500  1.0000
  H   H10       1.0  0.46900  0.26400  0.66500  1.0000
  H   H11       1.0  0.53100  0.33500  0.73600  1.0000
  H   H12       1.0  0.99600  0.60500  0.81400  1.0000
  H   H13       1.0  0.35500  0.95300  0.81500  1.0000
  H   H14       1.0  0.74200  0.16800  0.83000  1.0000
  H   H15       1.0  0.25800  0.17000  0.83200  1.0000
  H   H16       1.0  0.35500  0.81500  0.95300  1.0000
  O   O1        1.0  0.16300  0.81200  0.04990  1.0000
  O   O2        1.0  0.52100  0.14600  0.14600  1.0000
  O   O3        1.0  0.83700  0.95000  0.18800  1.0000
  O   O4        1.0  0.31700  0.38800  0.19500  1.0000
  O   O5        1.0  0.82700  0.43600  0.20800  1.0000
  O   O6        1.0  0.31700  0.19500  0.38800  1.0000
  O   O7        1.0  0.82700  0.20800  0.43600  1.0000
  O   O8        1.0  0.69400  0.46600  0.46600  1.0000
  O   O9        1.0  0.30600  0.53400  0.53400  1.0000
  O   O10       1.0  0.17300  0.79200  0.56400  1.0000
  O   O11       1.0  0.68300  0.80500  0.61200  1.0000
  O   O12       1.0  0.17300  0.56400  0.79200  1.0000
  O   O13       1.0  0.68300  0.61200  0.80500  1.0000
  O   O14       1.0  0.16300  0.04990  0.81200  1.0000
  O   O15       1.0  0.47900  0.85400  0.85400  1.0000
  O   O16       1.0  0.83700  0.18800  0.95000  1.0000
  P   P1        1.0  0.56300  0.30600  0.30600  1.0000
  P   P2        1.0  0.43700  0.69400  0.69400  1.0000
