data_image0
_chemical_formula_structural       AgCrS2
_chemical_formula_sum              "Ag1 Cr1 S2"
_cell_length_a       3.53252
_cell_length_b       3.53252
_cell_length_c       7.10682
_cell_angle_alpha    75.6095
_cell_angle_beta     104.391
_cell_angle_gamma    120

_space_group_name_H-M_alt    "P 1"
_space_group_IT_number       1

loop_
  _space_group_symop_operation_xyz
  'x, y, z'

loop_
  _atom_site_type_symbol
  _atom_site_label
  _atom_site_symmetry_multiplicity
  _atom_site_fract_x
  _atom_site_fract_y
  _atom_site_fract_z
  _atom_site_occupancy
  Ag  Ag1       1.0  0.84600  0.15400  0.53900  1.0000
  Cr  Cr1       1.0  0.00006  0.00000  0.00017  1.0000
  S   S1        1.0  0.72700  0.27300  0.18200  1.0000
  S   S2        1.0  0.26800  0.73200  0.80300  1.0000
