data_image0
_chemical_formula_structural       Cs3Ga9
_chemical_formula_sum              "Cs3 Ga9"
_cell_length_a       6.44478
_cell_length_b       6.44478
_cell_length_c       8.97393
_cell_angle_alpha    111.044
_cell_angle_beta     111.044
_cell_angle_gamma    90

_space_group_name_H-M_alt    "P 1"
_space_group_IT_number       1

loop_
  _space_group_symop_operation_xyz
  'x, y, z'

loop_
  _atom_site_type_symbol
  _atom_site_label
  _atom_site_symmetry_multiplicity
  _atom_site_fract_x
  _atom_site_fract_y
  _atom_site_fract_z
  _atom_site_occupancy
  Cs  Cs1       1.0  0.00000  0.00000  0.00000  1.0000
  Cs  Cs2       1.0  0.62900  0.12900  0.25800  1.0000
  Cs  Cs3       1.0  0.87100  0.37100  0.74200  1.0000
  Ga  Ga1       1.0  0.50000  0.50000  0.00000  1.0000
  Ga  Ga2       1.0  0.30300  0.61000  0.21900  1.0000
  Ga  Ga3       1.0  0.91700  0.61000  0.21900  1.0000
  Ga  Ga4       1.0  0.22500  0.01510  0.45000  1.0000
  Ga  Ga5       1.0  0.22500  0.43500  0.45000  1.0000
  Ga  Ga6       1.0  0.56500  0.77500  0.55000  1.0000
  Ga  Ga7       1.0  0.98500  0.77500  0.55000  1.0000
  Ga  Ga8       1.0  0.39000  0.08350  0.78100  1.0000
  Ga  Ga9       1.0  0.39000  0.69700  0.78100  1.0000
