data_image0
_chemical_formula_structural       K4Mn2O24V8
_chemical_formula_sum              "K4 Mn2 O24 V8"
_cell_length_a       8.11124
_cell_length_b       9.15314
_cell_length_c       8.59466
_cell_angle_alpha    90
_cell_angle_beta     109.679
_cell_angle_gamma    90

_space_group_name_H-M_alt    "P 1"
_space_group_IT_number       1

loop_
  _space_group_symop_operation_xyz
  'x, y, z'

loop_
  _atom_site_type_symbol
  _atom_site_label
  _atom_site_symmetry_multiplicity
  _atom_site_fract_x
  _atom_site_fract_y
  _atom_site_fract_z
  _atom_site_occupancy
  K   K1        1.0  0.35600  0.30000  0.09170  1.0000
  K   K2        1.0  0.14400  0.80000  0.40800  1.0000
  K   K3        1.0  0.85600  0.20000  0.59200  1.0000
  K   K4        1.0  0.64400  0.70000  0.90800  1.0000
  Mn  Mn1       1.0  0.00000  0.00000  0.00000  1.0000
  Mn  Mn2       1.0  0.50000  0.50000  0.50000  1.0000
  O   O1        1.0  0.68000  0.41900  0.04110  1.0000
  O   O2        1.0  0.15200  0.81400  0.08110  1.0000
  O   O3        1.0  0.83700  0.92800  0.13300  1.0000
  O   O4        1.0  0.52300  0.81700  0.15800  1.0000
  O   O5        1.0  0.15700  0.11400  0.20900  1.0000
  O   O6        1.0  0.62400  0.11600  0.22500  1.0000
  O   O7        1.0  0.87600  0.61600  0.27500  1.0000
  O   O8        1.0  0.34300  0.61400  0.29100  1.0000
  O   O9        1.0  0.97700  0.31700  0.34200  1.0000
  O   O10       1.0  0.66300  0.42800  0.36700  1.0000
  O   O11       1.0  0.34800  0.31400  0.41900  1.0000
  O   O12       1.0  0.82000  0.91900  0.45900  1.0000
  O   O13       1.0  0.18000  0.08100  0.54100  1.0000
  O   O14       1.0  0.65200  0.68600  0.58100  1.0000
  O   O15       1.0  0.33700  0.57200  0.63300  1.0000
  O   O16       1.0  0.02340  0.68300  0.65800  1.0000
  O   O17       1.0  0.65700  0.38600  0.70900  1.0000
  O   O18       1.0  0.12400  0.38400  0.72500  1.0000
  O   O19       1.0  0.37600  0.88400  0.77500  1.0000
  O   O20       1.0  0.84300  0.88600  0.79100  1.0000
  O   O21       1.0  0.47700  0.18300  0.84200  1.0000
  O   O22       1.0  0.16300  0.07190  0.86700  1.0000
  O   O23       1.0  0.84800  0.18600  0.91900  1.0000
  O   O24       1.0  0.32000  0.58100  0.95900  1.0000
  V   V1        1.0  0.33000  0.70900  0.12100  1.0000
  V   V2        1.0  0.69800  0.94800  0.24000  1.0000
  V   V3        1.0  0.80200  0.44800  0.26000  1.0000
  V   V4        1.0  0.17000  0.20900  0.37900  1.0000
  V   V5        1.0  0.83000  0.79100  0.62100  1.0000
  V   V6        1.0  0.19800  0.55200  0.74000  1.0000
  V   V7        1.0  0.30200  0.05250  0.76000  1.0000
  V   V8        1.0  0.67000  0.29100  0.87900  1.0000
