data_image0
_chemical_formula_structural       Ba4Co8Ho4O22
_chemical_formula_sum              "Ba4 Co8 Ho4 O22"
_cell_length_a       7.61172
_cell_length_b       7.82002
_cell_length_c       7.55011
_cell_angle_alpha    90
_cell_angle_beta     90
_cell_angle_gamma    90

_space_group_name_H-M_alt    "P 1"
_space_group_IT_number       1

loop_
  _space_group_symop_operation_xyz
  'x, y, z'

loop_
  _atom_site_type_symbol
  _atom_site_label
  _atom_site_symmetry_multiplicity
  _atom_site_fract_x
  _atom_site_fract_y
  _atom_site_fract_z
  _atom_site_occupancy
  Ba  Ba1       1.0  0.00000  0.24200  0.00000  1.0000
  Ba  Ba2       1.0  0.50000  0.24200  0.00000  1.0000
  Ba  Ba3       1.0  0.00000  0.75800  0.00000  1.0000
  Ba  Ba4       1.0  0.50000  0.75800  0.00000  1.0000
  Co  Co1       1.0  0.25000  0.50000  0.24800  1.0000
  Co  Co2       1.0  0.75000  0.50000  0.25400  1.0000
  Co  Co3       1.0  0.75000  0.00000  0.27000  1.0000
  Co  Co4       1.0  0.25000  0.00000  0.29600  1.0000
  Co  Co5       1.0  0.75000  0.00000  0.70400  1.0000
  Co  Co6       1.0  0.25000  0.00000  0.73000  1.0000
  Co  Co7       1.0  0.25000  0.50000  0.74600  1.0000
  Co  Co8       1.0  0.75000  0.50000  0.75200  1.0000
  Ho  Ho1       1.0  0.00000  0.27900  0.50000  1.0000
  Ho  Ho2       1.0  0.50000  0.27900  0.50000  1.0000
  Ho  Ho3       1.0  0.00000  0.72100  0.50000  1.0000
  Ho  Ho4       1.0  0.50000  0.72100  0.50000  1.0000
  O   O1        1.0  0.75000  0.50000  0.00539  1.0000
  O   O2        1.0  0.75000  0.00000  0.01780  1.0000
  O   O3        1.0  0.50000  0.50000  0.28000  1.0000
  O   O4        1.0  0.00000  0.50000  0.28000  1.0000
  O   O5        1.0  0.75000  0.24500  0.29800  1.0000
  O   O6        1.0  0.75000  0.75500  0.29800  1.0000
  O   O7        1.0  0.25000  0.23100  0.30300  1.0000
  O   O8        1.0  0.25000  0.76900  0.30300  1.0000
  O   O9        1.0  0.50600  0.00000  0.32100  1.0000
  O   O10       1.0  0.99400  0.00000  0.32100  1.0000
  O   O11       1.0  0.25000  0.50000  0.50000  1.0000
  O   O12       1.0  0.75000  0.50000  0.50000  1.0000
  O   O13       1.0  0.00589  0.00000  0.67900  1.0000
  O   O14       1.0  0.49400  0.00000  0.67900  1.0000
  O   O15       1.0  0.75000  0.23100  0.69700  1.0000
  O   O16       1.0  0.75000  0.76900  0.69700  1.0000
  O   O17       1.0  0.25000  0.24500  0.70200  1.0000
  O   O18       1.0  0.25000  0.75500  0.70200  1.0000
  O   O19       1.0  0.00047  0.50000  0.72000  1.0000
  O   O20       1.0  0.50000  0.50000  0.72000  1.0000
  O   O21       1.0  0.25000  0.00000  0.98200  1.0000
  O   O22       1.0  0.25000  0.50000  0.99500  1.0000
