data_image0
_chemical_formula_structural       Lu2O2S
_chemical_formula_sum              "Lu2 O2 S1"
_cell_length_a       3.68381
_cell_length_b       3.68392
_cell_length_c       6.44515
_cell_angle_alpha    90
_cell_angle_beta     89.9991
_cell_angle_gamma    120.001

_space_group_name_H-M_alt    "P 1"
_space_group_IT_number       1

loop_
  _space_group_symop_operation_xyz
  'x, y, z'

loop_
  _atom_site_type_symbol
  _atom_site_label
  _atom_site_symmetry_multiplicity
  _atom_site_fract_x
  _atom_site_fract_y
  _atom_site_fract_z
  _atom_site_occupancy
  Lu  Lu1       1.0  0.33300  0.66700  0.28300  1.0000
  Lu  Lu2       1.0  0.66700  0.33300  0.71700  1.0000
  O   O1        1.0  0.66700  0.33300  0.37100  1.0000
  O   O2        1.0  0.33300  0.66700  0.62900  1.0000
  S   S1        1.0  0.00000  0.00000  0.00000  1.0000
