data_image0
_chemical_formula_structural       Cl4CrH18KN6O8
_chemical_formula_sum              "Cl4 Cr1 H18 K1 N6 O8"
_cell_length_a       6.84317
_cell_length_b       6.84317
_cell_length_c       9.79613
_cell_angle_alpha    110.443
_cell_angle_beta     69.5568
_cell_angle_gamma    120

_space_group_name_H-M_alt    "P 1"
_space_group_IT_number       1

loop_
  _space_group_symop_operation_xyz
  'x, y, z'

loop_
  _atom_site_type_symbol
  _atom_site_label
  _atom_site_symmetry_multiplicity
  _atom_site_fract_x
  _atom_site_fract_y
  _atom_site_fract_z
  _atom_site_occupancy
  Cl  Cl1       1.0  0.61800  0.38200  0.14500  1.0000
  Cl  Cl2       1.0  0.18400  0.81600  0.44900  1.0000
  Cl  Cl3       1.0  0.81600  0.18400  0.55100  1.0000
  Cl  Cl4       1.0  0.38200  0.61800  0.85500  1.0000
  Cr  Cr1       1.0  0.00000  0.00000  0.00000  1.0000
  H   H1        1.0  0.19600  0.44800  0.05610  1.0000
  H   H2        1.0  0.19600  0.80400  0.05610  1.0000
  H   H3        1.0  0.55200  0.80400  0.05610  1.0000
  H   H4        1.0  0.21000  0.03000  0.19600  1.0000
  H   H5        1.0  0.62300  0.03000  0.19600  1.0000
  H   H6        1.0  0.21000  0.37700  0.19600  1.0000
  H   H7        1.0  0.97000  0.37700  0.19600  1.0000
  H   H8        1.0  0.62300  0.79000  0.19600  1.0000
  H   H9        1.0  0.97000  0.79000  0.19600  1.0000
  H   H10       1.0  0.03000  0.21000  0.80400  1.0000
  H   H11       1.0  0.37700  0.21000  0.80400  1.0000
  H   H12       1.0  0.03000  0.62300  0.80400  1.0000
  H   H13       1.0  0.79000  0.62300  0.80400  1.0000
  H   H14       1.0  0.37700  0.97000  0.80400  1.0000
  H   H15       1.0  0.79000  0.97000  0.80400  1.0000
  H   H16       1.0  0.44800  0.19600  0.94400  1.0000
  H   H17       1.0  0.80400  0.19600  0.94400  1.0000
  H   H18       1.0  0.80400  0.55200  0.94400  1.0000
  K   K1        1.0  0.50000  0.50000  0.50000  1.0000
  N   N1        1.0  0.10400  0.33700  0.12900  1.0000
  N   N2        1.0  0.10400  0.89600  0.12900  1.0000
  N   N3        1.0  0.66300  0.89600  0.12900  1.0000
  N   N4        1.0  0.33700  0.10400  0.87100  1.0000
  N   N5        1.0  0.89600  0.10400  0.87100  1.0000
  N   N6        1.0  0.89600  0.66300  0.87100  1.0000
  O   O1        1.0  0.87000  0.13000  0.39000  1.0000
  O   O2        1.0  0.31800  0.02910  0.39200  1.0000
  O   O3        1.0  0.31800  0.68200  0.39200  1.0000
  O   O4        1.0  0.97100  0.68200  0.39200  1.0000
  O   O5        1.0  0.02910  0.31800  0.60800  1.0000
  O   O6        1.0  0.68200  0.31800  0.60800  1.0000
  O   O7        1.0  0.68200  0.97100  0.60800  1.0000
  O   O8        1.0  0.13000  0.87000  0.61000  1.0000
