data_image0
_chemical_formula_structural       Cl16O4Se8Te6W4
_chemical_formula_sum              "Cl16 O4 Se8 Te6 W4"
_cell_length_a       8.23737
_cell_length_b       8.23737
_cell_length_c       15.8913
_cell_angle_alpha    98.1491
_cell_angle_beta     81.8509
_cell_angle_gamma    96.6327

_space_group_name_H-M_alt    "P 1"
_space_group_IT_number       1

loop_
  _space_group_symop_operation_xyz
  'x, y, z'

loop_
  _atom_site_type_symbol
  _atom_site_label
  _atom_site_symmetry_multiplicity
  _atom_site_fract_x
  _atom_site_fract_y
  _atom_site_fract_z
  _atom_site_occupancy
  Cl  Cl1       1.0  0.39400  0.28100  0.01950  1.0000
  Cl  Cl2       1.0  0.52500  0.85100  0.03460  1.0000
  Cl  Cl3       1.0  0.18400  0.60600  0.05490  1.0000
  Cl  Cl4       1.0  0.50800  0.28200  0.25100  1.0000
  Cl  Cl5       1.0  0.75500  0.62300  0.26800  1.0000
  Cl  Cl6       1.0  0.18400  0.49100  0.28800  1.0000
  Cl  Cl7       1.0  0.44000  0.84900  0.31000  1.0000
  Cl  Cl8       1.0  0.46300  0.25400  0.49600  1.0000
  Cl  Cl9       1.0  0.71900  0.60600  0.52000  1.0000
  Cl  Cl10      1.0  0.14900  0.47500  0.53500  1.0000
  Cl  Cl11      1.0  0.39400  0.81600  0.55500  1.0000
  Cl  Cl12      1.0  0.71800  0.49200  0.75100  1.0000
  Cl  Cl13      1.0  0.37700  0.24500  0.76800  1.0000
  Cl  Cl14      1.0  0.50900  0.81600  0.78800  1.0000
  Cl  Cl15      1.0  0.15100  0.56000  0.81000  1.0000
  Cl  Cl16      1.0  0.74600  0.53700  0.99600  1.0000
  O   O1        1.0  0.47400  0.57600  0.15700  1.0000
  O   O2        1.0  0.45400  0.55100  0.40800  1.0000
  O   O3        1.0  0.42400  0.52600  0.65700  1.0000
  O   O4        1.0  0.44900  0.54600  0.90800  1.0000
  Se  Se1       1.0  0.87400  0.25300  0.11800  1.0000
  Se  Se2       1.0  0.14900  0.96800  0.19100  1.0000
  Se  Se3       1.0  0.86200  0.22500  0.37700  1.0000
  Se  Se4       1.0  0.03960  0.87300  0.43300  1.0000
  Se  Se5       1.0  0.74700  0.12600  0.61800  1.0000
  Se  Se6       1.0  0.03190  0.85100  0.69100  1.0000
  Se  Se7       1.0  0.77500  0.13800  0.87700  1.0000
  Se  Se8       1.0  0.12700  0.96000  0.93300  1.0000
  Te  Te1       1.0  0.86300  0.96600  0.15500  1.0000
  Te  Te2       1.0  0.14800  0.12700  0.34800  1.0000
  Te  Te3       1.0  0.75200  0.96900  0.46100  1.0000
  Te  Te4       1.0  0.03440  0.13700  0.65500  1.0000
  Te  Te5       1.0  0.87300  0.85200  0.84800  1.0000
  Te  Te6       1.0  0.03100  0.24800  0.96100  1.0000
  W   W1        1.0  0.46300  0.56800  0.04780  1.0000
  W   W2        1.0  0.46800  0.56000  0.29700  1.0000
  W   W3        1.0  0.43200  0.53700  0.54800  1.0000
  W   W4        1.0  0.44000  0.53200  0.79700  1.0000
