data_image0
_chemical_formula_structural       B2H10In2N2O18P4
_chemical_formula_sum              "B2 H10 In2 N2 O18 P4"
_cell_length_a       5.25165
_cell_length_b       8.40154
_cell_length_c       8.33006
_cell_angle_alpha    92.3113
_cell_angle_beta     93.0645
_cell_angle_gamma    80.8179

_space_group_name_H-M_alt    "P 1"
_space_group_IT_number       1

loop_
  _space_group_symop_operation_xyz
  'x, y, z'

loop_
  _atom_site_type_symbol
  _atom_site_label
  _atom_site_symmetry_multiplicity
  _atom_site_fract_x
  _atom_site_fract_y
  _atom_site_fract_z
  _atom_site_occupancy
  B   B1        1.0  0.09880  0.43600  0.23200  1.0000
  B   B2        1.0  0.90100  0.56400  0.76800  1.0000
  H   H1        1.0  0.64900  0.15400  0.04550  1.0000
  H   H2        1.0  0.85200  0.00295  0.13500  1.0000
  H   H3        1.0  0.57200  0.07760  0.21900  1.0000
  H   H4        1.0  0.81200  0.19200  0.21900  1.0000
  H   H5        1.0  0.40100  0.46500  0.38400  1.0000
  H   H6        1.0  0.59900  0.53500  0.61600  1.0000
  H   H7        1.0  0.18800  0.80800  0.78100  1.0000
  H   H8        1.0  0.42800  0.92200  0.78100  1.0000
  H   H9        1.0  0.14800  0.99700  0.86500  1.0000
  H   H10       1.0  0.35100  0.84600  0.95500  1.0000
  In  In1       1.0  0.27100  0.79100  0.31900  1.0000
  In  In2       1.0  0.72900  0.20900  0.68100  1.0000
  N   N1        1.0  0.72200  0.10700  0.15500  1.0000
  N   N2        1.0  0.27800  0.89300  0.84500  1.0000
  O   O1        1.0  0.25400  0.35600  0.10000  1.0000
  O   O2        1.0  0.01410  0.78800  0.10100  1.0000
  O   O3        1.0  0.53700  0.78100  0.13200  1.0000
  O   O4        1.0  0.85600  0.53000  0.17700  1.0000
  O   O5        1.0  0.30200  0.04040  0.31800  1.0000
  O   O6        1.0  0.26200  0.53600  0.32500  1.0000
  O   O7        1.0  0.02730  0.31400  0.33600  1.0000
  O   O8        1.0  0.90600  0.85800  0.42200  1.0000
  O   O9        1.0  0.46700  0.26600  0.47800  1.0000
  O   O10       1.0  0.53300  0.73400  0.52200  1.0000
  O   O11       1.0  0.09380  0.14200  0.57800  1.0000
  O   O12       1.0  0.97300  0.68600  0.66400  1.0000
  O   O13       1.0  0.73800  0.46400  0.67500  1.0000
  O   O14       1.0  0.69800  0.96000  0.68200  1.0000
  O   O15       1.0  0.14400  0.47000  0.82300  1.0000
  O   O16       1.0  0.46300  0.21900  0.86800  1.0000
  O   O17       1.0  0.98600  0.21200  0.89900  1.0000
  O   O18       1.0  0.74600  0.64400  0.90000  1.0000
  P   P1        1.0  0.79400  0.68800  0.08050  1.0000
  P   P2        1.0  0.22600  0.18700  0.43300  1.0000
  P   P3        1.0  0.77400  0.81300  0.56700  1.0000
  P   P4        1.0  0.20600  0.31200  0.92000  1.0000
