data_image0
_chemical_formula_structural       Hg14O20P4
_chemical_formula_sum              "Hg14 O20 P4"
_cell_length_a       6.3173
_cell_length_b       10.0475
_cell_length_c       9.65455
_cell_angle_alpha    90
_cell_angle_beta     95.6816
_cell_angle_gamma    90

_space_group_name_H-M_alt    "P 1"
_space_group_IT_number       1

loop_
  _space_group_symop_operation_xyz
  'x, y, z'

loop_
  _atom_site_type_symbol
  _atom_site_label
  _atom_site_symmetry_multiplicity
  _atom_site_fract_x
  _atom_site_fract_y
  _atom_site_fract_z
  _atom_site_occupancy
  Hg  Hg1       1.0  0.50000  0.00000  0.00000  1.0000
  Hg  Hg2       1.0  0.01250  0.84700  0.08650  1.0000
  Hg  Hg3       1.0  0.76100  0.63700  0.15200  1.0000
  Hg  Hg4       1.0  0.18800  0.61200  0.18500  1.0000
  Hg  Hg5       1.0  0.81200  0.11200  0.31500  1.0000
  Hg  Hg6       1.0  0.23900  0.13700  0.34800  1.0000
  Hg  Hg7       1.0  0.98700  0.34700  0.41300  1.0000
  Hg  Hg8       1.0  0.50000  0.50000  0.50000  1.0000
  Hg  Hg9       1.0  0.01250  0.65300  0.58700  1.0000
  Hg  Hg10      1.0  0.76100  0.86300  0.65200  1.0000
  Hg  Hg11      1.0  0.18800  0.88800  0.68500  1.0000
  Hg  Hg12      1.0  0.81200  0.38800  0.81500  1.0000
  Hg  Hg13      1.0  0.23900  0.36300  0.84800  1.0000
  Hg  Hg14      1.0  0.98700  0.15300  0.91300  1.0000
  O   O1        1.0  0.45200  0.65500  0.00811  1.0000
  O   O2        1.0  0.81500  0.03360  0.06710  1.0000
  O   O3        1.0  0.27300  0.39900  0.16000  1.0000
  O   O4        1.0  0.50300  0.20000  0.20200  1.0000
  O   O5        1.0  0.67700  0.42900  0.23400  1.0000
  O   O6        1.0  0.32300  0.92900  0.26600  1.0000
  O   O7        1.0  0.49700  0.70000  0.29800  1.0000
  O   O8        1.0  0.72700  0.89900  0.34000  1.0000
  O   O9        1.0  0.18500  0.53400  0.43300  1.0000
  O   O10       1.0  0.54800  0.15500  0.49200  1.0000
  O   O11       1.0  0.45200  0.84500  0.50800  1.0000
  O   O12       1.0  0.81500  0.46600  0.56700  1.0000
  O   O13       1.0  0.27300  0.10100  0.66000  1.0000
  O   O14       1.0  0.50300  0.30000  0.70200  1.0000
  O   O15       1.0  0.67700  0.07100  0.73400  1.0000
  O   O16       1.0  0.32300  0.57100  0.76600  1.0000
  O   O17       1.0  0.49700  0.80000  0.79800  1.0000
  O   O18       1.0  0.72700  0.60100  0.84000  1.0000
  O   O19       1.0  0.18500  0.96600  0.93300  1.0000
  O   O20       1.0  0.54800  0.34500  0.99200  1.0000
  P   P1        1.0  0.50200  0.34700  0.14700  1.0000
  P   P2        1.0  0.49800  0.84700  0.35300  1.0000
  P   P3        1.0  0.50200  0.15300  0.64700  1.0000
  P   P4        1.0  0.49800  0.65300  0.85300  1.0000
