data_image0
_chemical_formula_structural       Nd4O26Te4W4
_chemical_formula_sum              "Nd4 O26 Te4 W4"
_cell_length_a       6.64067
_cell_length_b       6.86151
_cell_length_c       11.4641
_cell_angle_alpha    90.2594
_cell_angle_beta     98.1725
_cell_angle_gamma    93.9408

_space_group_name_H-M_alt    "P 1"
_space_group_IT_number       1

loop_
  _space_group_symop_operation_xyz
  'x, y, z'

loop_
  _atom_site_type_symbol
  _atom_site_label
  _atom_site_symmetry_multiplicity
  _atom_site_fract_x
  _atom_site_fract_y
  _atom_site_fract_z
  _atom_site_occupancy
  Nd  Nd1       1.0  0.22800  0.13500  0.11900  1.0000
  Nd  Nd2       1.0  0.63500  0.36600  0.36900  1.0000
  Nd  Nd3       1.0  0.36500  0.63400  0.63100  1.0000
  Nd  Nd4       1.0  0.77200  0.86500  0.88100  1.0000
  O   O1        1.0  0.72100  0.66500  0.04770  1.0000
  O   O2        1.0  0.83900  0.04860  0.06930  1.0000
  O   O3        1.0  0.01070  0.41300  0.14200  1.0000
  O   O4        1.0  0.48100  0.89400  0.14800  1.0000
  O   O5        1.0  0.57600  0.31300  0.15700  1.0000
  O   O6        1.0  0.07590  0.82900  0.19200  1.0000
  O   O7        1.0  0.35100  0.53900  0.27400  1.0000
  O   O8        1.0  0.79800  0.65000  0.28200  1.0000
  O   O9        1.0  0.79600  0.04400  0.31500  1.0000
  O   O10       1.0  0.32400  0.13600  0.32300  1.0000
  O   O11       1.0  0.01380  0.38700  0.38000  1.0000
  O   O12       1.0  0.18400  0.75800  0.43400  1.0000
  O   O13       1.0  0.61100  0.65800  0.48200  1.0000
  O   O14       1.0  0.38900  0.34200  0.51800  1.0000
  O   O15       1.0  0.81600  0.24200  0.56600  1.0000
  O   O16       1.0  0.98600  0.61300  0.62000  1.0000
  O   O17       1.0  0.67600  0.86400  0.67700  1.0000
  O   O18       1.0  0.20400  0.95600  0.68500  1.0000
  O   O19       1.0  0.20200  0.35000  0.71800  1.0000
  O   O20       1.0  0.64900  0.46100  0.72600  1.0000
  O   O21       1.0  0.92400  0.17100  0.80800  1.0000
  O   O22       1.0  0.42400  0.68700  0.84300  1.0000
  O   O23       1.0  0.51900  0.10600  0.85200  1.0000
  O   O24       1.0  0.98900  0.58700  0.85800  1.0000
  O   O25       1.0  0.16100  0.95100  0.93100  1.0000
  O   O26       1.0  0.27900  0.33500  0.95200  1.0000
  Te  Te1       1.0  0.74800  0.38100  0.04480  1.0000
  Te  Te2       1.0  0.17200  0.17400  0.44800  1.0000
  Te  Te3       1.0  0.82800  0.82600  0.55200  1.0000
  Te  Te4       1.0  0.25200  0.61900  0.95500  1.0000
  W   W1        1.0  0.74700  0.87900  0.18900  1.0000
  W   W2        1.0  0.11500  0.62500  0.29700  1.0000
  W   W3        1.0  0.88500  0.37500  0.70300  1.0000
  W   W4        1.0  0.25300  0.12100  0.81100  1.0000
