data_image0
_chemical_formula_structural       K2Mo10O26
_chemical_formula_sum              "K2 Mo10 O26"
_cell_length_a       5.56281
_cell_length_b       5.56281
_cell_length_c       16.739
_cell_angle_alpha    90
_cell_angle_beta     90
_cell_angle_gamma    106.755

_space_group_name_H-M_alt    "P 1"
_space_group_IT_number       1

loop_
  _space_group_symop_operation_xyz
  'x, y, z'

loop_
  _atom_site_type_symbol
  _atom_site_label
  _atom_site_symmetry_multiplicity
  _atom_site_fract_x
  _atom_site_fract_y
  _atom_site_fract_z
  _atom_site_occupancy
  K   K1        1.0  0.86000  0.14000  0.25000  1.0000
  K   K2        1.0  0.14000  0.86000  0.75000  1.0000
  Mo  Mo1       1.0  0.00000  0.00000  0.00000  1.0000
  Mo  Mo2       1.0  0.61500  0.38500  0.07610  1.0000
  Mo  Mo3       1.0  0.22800  0.77200  0.13900  1.0000
  Mo  Mo4       1.0  0.22800  0.77200  0.36100  1.0000
  Mo  Mo5       1.0  0.61500  0.38500  0.42400  1.0000
  Mo  Mo6       1.0  0.00000  0.00000  0.50000  1.0000
  Mo  Mo7       1.0  0.38500  0.61500  0.57600  1.0000
  Mo  Mo8       1.0  0.77200  0.22800  0.63900  1.0000
  Mo  Mo9       1.0  0.77200  0.22800  0.86100  1.0000
  Mo  Mo10      1.0  0.38500  0.61500  0.92400  1.0000
  O   O1        1.0  0.30700  0.30700  0.00000  1.0000
  O   O2        1.0  0.69300  0.69300  0.00000  1.0000
  O   O3        1.0  0.22200  0.77800  0.01080  1.0000
  O   O4        1.0  0.00600  0.99400  0.11200  1.0000
  O   O5        1.0  0.49800  0.08250  0.13000  1.0000
  O   O6        1.0  0.91800  0.50200  0.13000  1.0000
  O   O7        1.0  0.43800  0.56200  0.13900  1.0000
  O   O8        1.0  0.20700  0.79300  0.25000  1.0000
  O   O9        1.0  0.43800  0.56200  0.36100  1.0000
  O   O10       1.0  0.49800  0.08250  0.37000  1.0000
  O   O11       1.0  0.91800  0.50200  0.37000  1.0000
  O   O12       1.0  0.00600  0.99400  0.38800  1.0000
  O   O13       1.0  0.22200  0.77800  0.48900  1.0000
  O   O14       1.0  0.30700  0.30700  0.50000  1.0000
  O   O15       1.0  0.69300  0.69300  0.50000  1.0000
  O   O16       1.0  0.77800  0.22200  0.51100  1.0000
  O   O17       1.0  0.99400  0.00600  0.61200  1.0000
  O   O18       1.0  0.08250  0.49800  0.63000  1.0000
  O   O19       1.0  0.50200  0.91800  0.63000  1.0000
  O   O20       1.0  0.56200  0.43800  0.63900  1.0000
  O   O21       1.0  0.79300  0.20700  0.75000  1.0000
  O   O22       1.0  0.56200  0.43800  0.86100  1.0000
  O   O23       1.0  0.08250  0.49800  0.87000  1.0000
  O   O24       1.0  0.50200  0.91800  0.87000  1.0000
  O   O25       1.0  0.99400  0.00600  0.88800  1.0000
  O   O26       1.0  0.77800  0.22200  0.98900  1.0000
