data_image0
_chemical_formula_structural       PdSn3Sr
_chemical_formula_sum              "Pd1 Sn3 Sr1"
_cell_length_a       4.85287
_cell_length_b       4.85287
_cell_length_c       6.63132
_cell_angle_alpha    111.463
_cell_angle_beta     111.463
_cell_angle_gamma    90

_space_group_name_H-M_alt    "P 1"
_space_group_IT_number       1

loop_
  _space_group_symop_operation_xyz
  'x, y, z'

loop_
  _atom_site_type_symbol
  _atom_site_label
  _atom_site_symmetry_multiplicity
  _atom_site_fract_x
  _atom_site_fract_y
  _atom_site_fract_z
  _atom_site_occupancy
  Pd  Pd1       1.0  0.64100  0.64100  0.28300  1.0000
  Sn  Sn1       1.0  0.74500  0.24500  0.49100  1.0000
  Sn  Sn2       1.0  0.24500  0.74500  0.49100  1.0000
  Sn  Sn3       1.0  0.40900  0.40900  0.81900  1.0000
  Sr  Sr1       1.0  0.00000  0.00000  0.99900  1.0000
