data_image0
_chemical_formula_structural       H2MnO2
_chemical_formula_sum              "H2 Mn1 O2"
_cell_length_a       3.31894
_cell_length_b       3.31893
_cell_length_c       4.66451
_cell_angle_alpha    90
_cell_angle_beta     90.0004
_cell_angle_gamma    120

_space_group_name_H-M_alt    "P 1"
_space_group_IT_number       1

loop_
  _space_group_symop_operation_xyz
  'x, y, z'

loop_
  _atom_site_type_symbol
  _atom_site_label
  _atom_site_symmetry_multiplicity
  _atom_site_fract_x
  _atom_site_fract_y
  _atom_site_fract_z
  _atom_site_occupancy
  H   H1        1.0  0.33300  0.66700  0.44100  1.0000
  H   H2        1.0  0.66700  0.33300  0.55900  1.0000
  Mn  Mn1       1.0  0.00000  0.00000  0.00000  1.0000
  O   O1        1.0  0.33300  0.66700  0.23200  1.0000
  O   O2        1.0  0.66700  0.33300  0.76800  1.0000
