data_image0
_chemical_formula_structural       Ge6O24Sb8
_chemical_formula_sum              "Ge6 O24 Sb8"
_cell_length_a       9.01411
_cell_length_b       9.01411
_cell_length_c       9.01411
_cell_angle_alpha    109.471
_cell_angle_beta     109.471
_cell_angle_gamma    109.471

_space_group_name_H-M_alt    "P 1"
_space_group_IT_number       1

loop_
  _space_group_symop_operation_xyz
  'x, y, z'

loop_
  _atom_site_type_symbol
  _atom_site_label
  _atom_site_symmetry_multiplicity
  _atom_site_fract_x
  _atom_site_fract_y
  _atom_site_fract_z
  _atom_site_occupancy
  Ge  Ge1       1.0  0.25000  0.87500  0.12500  1.0000
  Ge  Ge2       1.0  0.87500  0.12500  0.25000  1.0000
  Ge  Ge3       1.0  0.75000  0.62500  0.37500  1.0000
  Ge  Ge4       1.0  0.37500  0.75000  0.62500  1.0000
  Ge  Ge5       1.0  0.62500  0.37500  0.75000  1.0000
  Ge  Ge6       1.0  0.12500  0.25000  0.87500  1.0000
  O   O1        1.0  0.71300  0.91100  0.05280  1.0000
  O   O2        1.0  0.14100  0.30100  0.08860  1.0000
  O   O3        1.0  0.30100  0.08860  0.14100  1.0000
  O   O4        1.0  0.44700  0.85900  0.16000  1.0000
  O   O5        1.0  0.84000  0.28700  0.19900  1.0000
  O   O6        1.0  0.55300  0.41100  0.21300  1.0000
  O   O7        1.0  0.19900  0.84000  0.28700  1.0000
  O   O8        1.0  0.08860  0.14100  0.30100  1.0000
  O   O9        1.0  0.69900  0.78700  0.34000  1.0000
  O   O10       1.0  0.94700  0.66000  0.35900  1.0000
  O   O11       1.0  0.21300  0.55300  0.41100  1.0000
  O   O12       1.0  0.85900  0.16000  0.44700  1.0000
  O   O13       1.0  0.41100  0.21300  0.55300  1.0000
  O   O14       1.0  0.80100  0.64100  0.58900  1.0000
  O   O15       1.0  0.58900  0.80100  0.64100  1.0000
  O   O16       1.0  0.35900  0.94700  0.66000  1.0000
  O   O17       1.0  0.78700  0.34000  0.69900  1.0000
  O   O18       1.0  0.91100  0.05280  0.71300  1.0000
  O   O19       1.0  0.34000  0.69900  0.78700  1.0000
  O   O20       1.0  0.64100  0.58900  0.80100  1.0000
  O   O21       1.0  0.28700  0.19900  0.84000  1.0000
  O   O22       1.0  0.16000  0.44700  0.85900  1.0000
  O   O23       1.0  0.05280  0.71300  0.91100  1.0000
  O   O24       1.0  0.66000  0.35900  0.94700  1.0000
  Sb  Sb1       1.0  0.50000  0.18400  0.00000  1.0000
  Sb  Sb2       1.0  0.50000  0.68400  0.00000  1.0000
  Sb  Sb3       1.0  0.00000  0.50000  0.18400  1.0000
  Sb  Sb4       1.0  0.31600  0.31600  0.31600  1.0000
  Sb  Sb5       1.0  0.18400  0.00000  0.50000  1.0000
  Sb  Sb6       1.0  0.68400  0.00000  0.50000  1.0000
  Sb  Sb7       1.0  0.00000  0.50000  0.68400  1.0000
  Sb  Sb8       1.0  0.81600  0.81600  0.81600  1.0000
