data_image0
_chemical_formula_structural       P6Sr2
_chemical_formula_sum              "P6 Sr2"
_cell_length_a       5.71494
_cell_length_b       5.88812
_cell_length_c       5.88812
_cell_angle_alpha    103.192
_cell_angle_beta     108.096
_cell_angle_gamma    71.904

_space_group_name_H-M_alt    "P 1"
_space_group_IT_number       1

loop_
  _space_group_symop_operation_xyz
  'x, y, z'

loop_
  _atom_site_type_symbol
  _atom_site_label
  _atom_site_symmetry_multiplicity
  _atom_site_fract_x
  _atom_site_fract_y
  _atom_site_fract_z
  _atom_site_occupancy
  P   P1        1.0  0.30800  0.99000  0.01040  1.0000
  P   P2        1.0  0.68000  0.39600  0.11600  1.0000
  P   P3        1.0  0.32000  0.11600  0.39600  1.0000
  P   P4        1.0  0.68000  0.88400  0.60400  1.0000
  P   P5        1.0  0.32000  0.60400  0.88400  1.0000
  P   P6        1.0  0.69200  0.01040  0.99000  1.0000
  Sr  Sr1       1.0  0.14800  0.66200  0.33800  1.0000
  Sr  Sr2       1.0  0.85200  0.33800  0.66200  1.0000
