data_image0
_chemical_formula_structural       BaCd2Sb2
_chemical_formula_sum              "Ba1 Cd2 Sb2"
_cell_length_a       4.82366
_cell_length_b       4.82352
_cell_length_c       8.15021
_cell_angle_alpha    89.9992
_cell_angle_beta     90
_cell_angle_gamma    120.001

_space_group_name_H-M_alt    "P 1"
_space_group_IT_number       1

loop_
  _space_group_symop_operation_xyz
  'x, y, z'

loop_
  _atom_site_type_symbol
  _atom_site_label
  _atom_site_symmetry_multiplicity
  _atom_site_fract_x
  _atom_site_fract_y
  _atom_site_fract_z
  _atom_site_occupancy
  Ba  Ba1       1.0  0.00000  0.00000  0.00000  1.0000
  Cd  Cd1       1.0  0.33300  0.66700  0.36900  1.0000
  Cd  Cd2       1.0  0.66700  0.33300  0.63100  1.0000
  Sb  Sb1       1.0  0.66700  0.33300  0.26300  1.0000
  Sb  Sb2       1.0  0.33300  0.66700  0.73700  1.0000
