data_image0
_chemical_formula_structural       Al8Ba2O24Sb4
_chemical_formula_sum              "Al8 Ba2 O24 Sb4"
_cell_length_a       8.248
_cell_length_b       8.248
_cell_length_c       8.248
_cell_angle_alpha    115.415
_cell_angle_beta     106.584
_cell_angle_gamma    106.584

_space_group_name_H-M_alt    "P 1"
_space_group_IT_number       1

loop_
  _space_group_symop_operation_xyz
  'x, y, z'

loop_
  _atom_site_type_symbol
  _atom_site_label
  _atom_site_symmetry_multiplicity
  _atom_site_fract_x
  _atom_site_fract_y
  _atom_site_fract_z
  _atom_site_occupancy
  Al  Al1       1.0  0.18400  0.49900  0.01570  1.0000
  Al  Al2       1.0  0.48400  0.98400  0.16800  1.0000
  Al  Al3       1.0  0.81600  0.83200  0.31600  1.0000
  Al  Al4       1.0  0.48400  0.31600  0.49900  1.0000
  Al  Al5       1.0  0.51600  0.68400  0.50100  1.0000
  Al  Al6       1.0  0.18400  0.16800  0.68400  1.0000
  Al  Al7       1.0  0.51600  0.01570  0.83200  1.0000
  Al  Al8       1.0  0.81600  0.50100  0.98400  1.0000
  Ba  Ba1       1.0  0.00000  0.21400  0.21400  1.0000
  Ba  Ba2       1.0  0.00000  0.78600  0.78600  1.0000
  O   O1        1.0  0.64400  0.17600  0.13100  1.0000
  O   O2        1.0  0.63100  0.84500  0.13800  1.0000
  O   O3        1.0  0.95000  0.80300  0.14700  1.0000
  O   O4        1.0  0.29300  0.78600  0.15500  1.0000
  O   O5        1.0  0.70700  0.54900  0.15800  1.0000
  O   O6        1.0  0.04490  0.53200  0.17600  1.0000
  O   O7        1.0  0.34500  0.14700  0.19700  1.0000
  O   O8        1.0  0.36900  0.50600  0.21400  1.0000
  O   O9        1.0  0.60900  0.15800  0.45100  1.0000
  O   O10       1.0  0.64400  0.51300  0.46800  1.0000
  O   O11       1.0  0.95500  0.13100  0.48700  1.0000
  O   O12       1.0  0.70700  0.86200  0.49400  1.0000
  O   O13       1.0  0.29300  0.13800  0.50600  1.0000
  O   O14       1.0  0.04490  0.86900  0.51300  1.0000
  O   O15       1.0  0.35600  0.48700  0.53200  1.0000
  O   O16       1.0  0.39100  0.84200  0.54900  1.0000
  O   O17       1.0  0.63100  0.49400  0.78600  1.0000
  O   O18       1.0  0.65500  0.85300  0.80300  1.0000
  O   O19       1.0  0.95500  0.46800  0.82400  1.0000
  O   O20       1.0  0.29300  0.45100  0.84200  1.0000
  O   O21       1.0  0.70700  0.21400  0.84500  1.0000
  O   O22       1.0  0.05000  0.19700  0.85300  1.0000
  O   O23       1.0  0.36900  0.15500  0.86200  1.0000
  O   O24       1.0  0.35600  0.82400  0.86900  1.0000
  Sb  Sb1       1.0  0.51300  0.35000  0.16300  1.0000
  Sb  Sb2       1.0  0.18800  0.83700  0.35000  1.0000
  Sb  Sb3       1.0  0.81200  0.16300  0.65000  1.0000
  Sb  Sb4       1.0  0.48700  0.65000  0.83700  1.0000
