data_image0
_chemical_formula_structural       B6Ba10C2N2O18
_chemical_formula_sum              "B6 Ba10 C2 N2 O18"
_cell_length_a       7.96019
_cell_length_b       9.03875
_cell_length_c       9.03875
_cell_angle_alpha    70.6974
_cell_angle_beta     90
_cell_angle_gamma    90

_space_group_name_H-M_alt    "P 1"
_space_group_IT_number       1

loop_
  _space_group_symop_operation_xyz
  'x, y, z'

loop_
  _atom_site_type_symbol
  _atom_site_label
  _atom_site_symmetry_multiplicity
  _atom_site_fract_x
  _atom_site_fract_y
  _atom_site_fract_z
  _atom_site_occupancy
  B   B1        1.0  0.96900  0.48500  0.09550  1.0000
  B   B2        1.0  0.50000  0.87200  0.12800  1.0000
  B   B3        1.0  0.53100  0.09550  0.48500  1.0000
  B   B4        1.0  0.03100  0.90500  0.51500  1.0000
  B   B5        1.0  0.00000  0.12800  0.87200  1.0000
  B   B6        1.0  0.46900  0.51500  0.90500  1.0000
  Ba  Ba1       1.0  0.75000  0.13900  0.13900  1.0000
  Ba  Ba2       1.0  0.25000  0.14500  0.14500  1.0000
  Ba  Ba3       1.0  0.56300  0.50800  0.23700  1.0000
  Ba  Ba4       1.0  0.00000  0.74000  0.26000  1.0000
  Ba  Ba5       1.0  0.43700  0.76300  0.49200  1.0000
  Ba  Ba6       1.0  0.93700  0.23700  0.50800  1.0000
  Ba  Ba7       1.0  0.50000  0.26000  0.74000  1.0000
  Ba  Ba8       1.0  0.06300  0.49200  0.76300  1.0000
  Ba  Ba9       1.0  0.75000  0.85500  0.85500  1.0000
  Ba  Ba10      1.0  0.25000  0.86100  0.86100  1.0000
  C   C1        1.0  0.25000  0.38300  0.38300  1.0000
  C   C2        1.0  0.75000  0.61700  0.61700  1.0000
  N   N1        1.0  0.25000  0.46300  0.46300  1.0000
  N   N2        1.0  0.75000  0.53700  0.53700  1.0000
  O   O1        1.0  0.00000  0.99400  0.00575  1.0000
  O   O2        1.0  0.51100  0.36700  0.00888  1.0000
  O   O3        1.0  0.00829  0.35000  0.06140  1.0000
  O   O4        1.0  0.34700  0.80400  0.19100  1.0000
  O   O5        1.0  0.65300  0.80900  0.19600  1.0000
  O   O6        1.0  0.88300  0.47200  0.23200  1.0000
  O   O7        1.0  0.49200  0.06140  0.35000  1.0000
  O   O8        1.0  0.98900  0.00888  0.36700  1.0000
  O   O9        1.0  0.61700  0.23200  0.47200  1.0000
  O   O10       1.0  0.11700  0.76800  0.52800  1.0000
  O   O11       1.0  0.48900  0.99100  0.63300  1.0000
  O   O12       1.0  0.99200  0.93900  0.65000  1.0000
  O   O13       1.0  0.38300  0.52800  0.76800  1.0000
  O   O14       1.0  0.15300  0.19100  0.80400  1.0000
  O   O15       1.0  0.84700  0.19600  0.80900  1.0000
  O   O16       1.0  0.50800  0.65000  0.93900  1.0000
  O   O17       1.0  0.01110  0.63300  0.99100  1.0000
  O   O18       1.0  0.50000  0.00575  0.99400  1.0000
