data_image0
_chemical_formula_structural       Ru8Si24Tb6
_chemical_formula_sum              "Ru8 Si24 Tb6"
_cell_length_a       8.14913
_cell_length_b       8.15335
_cell_length_c       10.1365
_cell_angle_alpha    90
_cell_angle_beta     113.701
_cell_angle_gamma    90

_space_group_name_H-M_alt    "P 1"
_space_group_IT_number       1

loop_
  _space_group_symop_operation_xyz
  'x, y, z'

loop_
  _atom_site_type_symbol
  _atom_site_label
  _atom_site_symmetry_multiplicity
  _atom_site_fract_x
  _atom_site_fract_y
  _atom_site_fract_z
  _atom_site_occupancy
  Ru  Ru1       1.0  0.37300  0.12700  0.00000  1.0000
  Ru  Ru2       1.0  0.87300  0.37300  0.00000  1.0000
  Ru  Ru3       1.0  0.12700  0.62700  0.00000  1.0000
  Ru  Ru4       1.0  0.62700  0.87300  0.00000  1.0000
  Ru  Ru5       1.0  0.16900  0.00000  0.33800  1.0000
  Ru  Ru6       1.0  0.66900  0.50000  0.33800  1.0000
  Ru  Ru7       1.0  0.83100  0.00000  0.66200  1.0000
  Ru  Ru8       1.0  0.33100  0.50000  0.66200  1.0000
  Si  Si1       1.0  0.66700  0.16700  0.00000  1.0000
  Si  Si2       1.0  0.16700  0.33300  0.00000  1.0000
  Si  Si3       1.0  0.83300  0.66700  0.00000  1.0000
  Si  Si4       1.0  0.33300  0.83300  0.00000  1.0000
  Si  Si5       1.0  0.38900  0.00570  0.23400  1.0000
  Si  Si6       1.0  0.88900  0.49400  0.23400  1.0000
  Si  Si7       1.0  0.34500  0.50600  0.23400  1.0000
  Si  Si8       1.0  0.84500  0.99400  0.23400  1.0000
  Si  Si9       1.0  0.61200  0.22800  0.23400  1.0000
  Si  Si10      1.0  0.11200  0.27200  0.23400  1.0000
  Si  Si11      1.0  0.12200  0.72800  0.23400  1.0000
  Si  Si12      1.0  0.62200  0.77200  0.23400  1.0000
  Si  Si13      1.0  0.70500  0.00000  0.41000  1.0000
  Si  Si14      1.0  0.20500  0.50000  0.41000  1.0000
  Si  Si15      1.0  0.29500  0.00000  0.59000  1.0000
  Si  Si16      1.0  0.79500  0.50000  0.59000  1.0000
  Si  Si17      1.0  0.37800  0.22800  0.76600  1.0000
  Si  Si18      1.0  0.87800  0.27200  0.76600  1.0000
  Si  Si19      1.0  0.88800  0.72800  0.76600  1.0000
  Si  Si20      1.0  0.38800  0.77200  0.76600  1.0000
  Si  Si21      1.0  0.15500  0.00570  0.76600  1.0000
  Si  Si22      1.0  0.65500  0.49400  0.76600  1.0000
  Si  Si23      1.0  0.11100  0.50600  0.76600  1.0000
  Si  Si24      1.0  0.61100  0.99400  0.76600  1.0000
  Tb  Tb1       1.0  0.00000  0.00000  0.00000  1.0000
  Tb  Tb2       1.0  0.50000  0.50000  0.00000  1.0000
  Tb  Tb3       1.0  0.49700  0.25000  0.50000  1.0000
  Tb  Tb4       1.0  0.99700  0.25000  0.50000  1.0000
  Tb  Tb5       1.0  0.00310  0.75000  0.50000  1.0000
  Tb  Tb6       1.0  0.50300  0.75000  0.50000  1.0000
