data_image0
_chemical_formula_structural       Bi4Mo4O26Se4
_chemical_formula_sum              "Bi4 Mo4 O26 Se4"
_cell_length_a       6.55567
_cell_length_b       6.86947
_cell_length_c       11.5172
_cell_angle_alpha    89.7271
_cell_angle_beta     82.2456
_cell_angle_gamma    86.2851

_space_group_name_H-M_alt    "P 1"
_space_group_IT_number       1

loop_
  _space_group_symop_operation_xyz
  'x, y, z'

loop_
  _atom_site_type_symbol
  _atom_site_label
  _atom_site_symmetry_multiplicity
  _atom_site_fract_x
  _atom_site_fract_y
  _atom_site_fract_z
  _atom_site_occupancy
  Bi  Bi1       1.0  0.79000  0.13200  0.11300  1.0000
  Bi  Bi2       1.0  0.36300  0.38200  0.35900  1.0000
  Bi  Bi3       1.0  0.63700  0.61800  0.64100  1.0000
  Bi  Bi4       1.0  0.21000  0.86800  0.88700  1.0000
  Mo  Mo1       1.0  0.25500  0.88800  0.19100  1.0000
  Mo  Mo2       1.0  0.87500  0.64100  0.30100  1.0000
  Mo  Mo3       1.0  0.12500  0.35900  0.69900  1.0000
  Mo  Mo4       1.0  0.74500  0.11200  0.80900  1.0000
  O   O1        1.0  0.27700  0.66000  0.04970  1.0000
  O   O2        1.0  0.15900  0.04170  0.06650  1.0000
  O   O3        1.0  0.99800  0.41800  0.14000  1.0000
  O   O4        1.0  0.52100  0.89900  0.14800  1.0000
  O   O5        1.0  0.40800  0.33100  0.15500  1.0000
  O   O6        1.0  0.91800  0.83600  0.19300  1.0000
  O   O7        1.0  0.64100  0.54700  0.27500  1.0000
  O   O8        1.0  0.19700  0.65800  0.28600  1.0000
  O   O9        1.0  0.20400  0.05440  0.30900  1.0000
  O   O10       1.0  0.68900  0.15000  0.32400  1.0000
  O   O11       1.0  0.97500  0.39300  0.38300  1.0000
  O   O12       1.0  0.80700  0.76900  0.43300  1.0000
  O   O13       1.0  0.38200  0.66100  0.48600  1.0000
  O   O14       1.0  0.61800  0.33900  0.51400  1.0000
  O   O15       1.0  0.19300  0.23100  0.56700  1.0000
  O   O16       1.0  0.02460  0.60700  0.61700  1.0000
  O   O17       1.0  0.31100  0.85000  0.67600  1.0000
  O   O18       1.0  0.79600  0.94600  0.69100  1.0000
  O   O19       1.0  0.80300  0.34200  0.71400  1.0000
  O   O20       1.0  0.35900  0.45300  0.72500  1.0000
  O   O21       1.0  0.08180  0.16400  0.80700  1.0000
  O   O22       1.0  0.59200  0.66900  0.84500  1.0000
  O   O23       1.0  0.47900  0.10100  0.85200  1.0000
  O   O24       1.0  0.00226  0.58200  0.86000  1.0000
  O   O25       1.0  0.84100  0.95800  0.93300  1.0000
  O   O26       1.0  0.72300  0.34000  0.95000  1.0000
  Se  Se1       1.0  0.24300  0.40800  0.05700  1.0000
  Se  Se2       1.0  0.81900  0.20000  0.43900  1.0000
  Se  Se3       1.0  0.18100  0.80000  0.56100  1.0000
  Se  Se4       1.0  0.75700  0.59200  0.94300  1.0000
