data_image0
_chemical_formula_structural       B2Ir2Zn
_chemical_formula_sum              "B2 Ir2 Zn1"
_cell_length_a       2.99092
_cell_length_b       2.99092
_cell_length_c       6.68579
_cell_angle_alpha    102.925
_cell_angle_beta     102.925
_cell_angle_gamma    90

_space_group_name_H-M_alt    "P 1"
_space_group_IT_number       1

loop_
  _space_group_symop_operation_xyz
  'x, y, z'

loop_
  _atom_site_type_symbol
  _atom_site_label
  _atom_site_symmetry_multiplicity
  _atom_site_fract_x
  _atom_site_fract_y
  _atom_site_fract_z
  _atom_site_occupancy
  B   B1        1.0  0.75000  0.25000  0.50000  1.0000
  B   B2        1.0  0.25000  0.75000  0.50000  1.0000
  Ir  Ir1       1.0  0.62700  0.62700  0.25500  1.0000
  Ir  Ir2       1.0  0.37300  0.37300  0.74500  1.0000
  Zn  Zn1       1.0  0.00000  0.00000  0.00000  1.0000
