data_image0
_chemical_formula_structural       Ni8Sn20Yb10
_chemical_formula_sum              "Ni8 Sn20 Yb10"
_cell_length_a       13.866
_cell_length_b       13.866
_cell_length_c       4.53517
_cell_angle_alpha    90
_cell_angle_beta     90
_cell_angle_gamma    90

_space_group_name_H-M_alt    "P 1"
_space_group_IT_number       1

loop_
  _space_group_symop_operation_xyz
  'x, y, z'

loop_
  _atom_site_type_symbol
  _atom_site_label
  _atom_site_symmetry_multiplicity
  _atom_site_fract_x
  _atom_site_fract_y
  _atom_site_fract_z
  _atom_site_occupancy
  Ni  Ni1       1.0  0.75500  0.03220  0.00000  1.0000
  Ni  Ni2       1.0  0.03220  0.24500  0.00000  1.0000
  Ni  Ni3       1.0  0.53200  0.25500  0.00000  1.0000
  Ni  Ni4       1.0  0.25500  0.46800  0.00000  1.0000
  Ni  Ni5       1.0  0.74500  0.53200  0.00000  1.0000
  Ni  Ni6       1.0  0.46800  0.74500  0.00000  1.0000
  Ni  Ni7       1.0  0.96800  0.75500  0.00000  1.0000
  Ni  Ni8       1.0  0.24500  0.96800  0.00000  1.0000
  Sn  Sn1       1.0  0.57200  0.07170  0.00000  1.0000
  Sn  Sn2       1.0  0.19900  0.15000  0.00000  1.0000
  Sn  Sn3       1.0  0.85000  0.19900  0.00000  1.0000
  Sn  Sn4       1.0  0.35000  0.30100  0.00000  1.0000
  Sn  Sn5       1.0  0.69900  0.35000  0.00000  1.0000
  Sn  Sn6       1.0  0.07170  0.42800  0.00000  1.0000
  Sn  Sn7       1.0  0.92800  0.57200  0.00000  1.0000
  Sn  Sn8       1.0  0.30100  0.65000  0.00000  1.0000
  Sn  Sn9       1.0  0.65000  0.69900  0.00000  1.0000
  Sn  Sn10      1.0  0.15000  0.80100  0.00000  1.0000
  Sn  Sn11      1.0  0.80100  0.85000  0.00000  1.0000
  Sn  Sn12      1.0  0.42800  0.92800  0.00000  1.0000
  Sn  Sn13      1.0  0.83600  0.00938  0.50000  1.0000
  Sn  Sn14      1.0  0.00938  0.16400  0.50000  1.0000
  Sn  Sn15      1.0  0.50900  0.33600  0.50000  1.0000
  Sn  Sn16      1.0  0.33600  0.49100  0.50000  1.0000
  Sn  Sn17      1.0  0.66400  0.50900  0.50000  1.0000
  Sn  Sn18      1.0  0.49100  0.66400  0.50000  1.0000
  Sn  Sn19      1.0  0.99100  0.83600  0.50000  1.0000
  Sn  Sn20      1.0  0.16400  0.99100  0.50000  1.0000
  Yb  Yb1       1.0  0.00000  0.00000  0.00000  1.0000
  Yb  Yb2       1.0  0.50000  0.50000  0.00000  1.0000
  Yb  Yb3       1.0  0.39300  0.10700  0.50000  1.0000
  Yb  Yb4       1.0  0.67900  0.17900  0.50000  1.0000
  Yb  Yb5       1.0  0.17900  0.32100  0.50000  1.0000
  Yb  Yb6       1.0  0.89300  0.39300  0.50000  1.0000
  Yb  Yb7       1.0  0.10700  0.60700  0.50000  1.0000
  Yb  Yb8       1.0  0.82100  0.67900  0.50000  1.0000
  Yb  Yb9       1.0  0.32100  0.82100  0.50000  1.0000
  Yb  Yb10      1.0  0.60700  0.89300  0.50000  1.0000
