data_image0
_chemical_formula_structural       Cu2Gd4O24Se8
_chemical_formula_sum              "Cu2 Gd4 O24 Se8"
_cell_length_a       10.3834
_cell_length_b       6.87125
_cell_length_c       8.1365
_cell_angle_alpha    90
_cell_angle_beta     110.88
_cell_angle_gamma    90

_space_group_name_H-M_alt    "P 1"
_space_group_IT_number       1

loop_
  _space_group_symop_operation_xyz
  'x, y, z'

loop_
  _atom_site_type_symbol
  _atom_site_label
  _atom_site_symmetry_multiplicity
  _atom_site_fract_x
  _atom_site_fract_y
  _atom_site_fract_z
  _atom_site_occupancy
  Cu  Cu1       1.0  0.00000  0.00000  0.00000  1.0000
  Cu  Cu2       1.0  0.00000  0.50000  0.50000  1.0000
  Gd  Gd1       1.0  0.58100  0.33800  0.23400  1.0000
  Gd  Gd2       1.0  0.41900  0.83800  0.26600  1.0000
  Gd  Gd3       1.0  0.58100  0.16200  0.73400  1.0000
  Gd  Gd4       1.0  0.41900  0.66200  0.76600  1.0000
  O   O1        1.0  0.69500  0.27300  0.02520  1.0000
  O   O2        1.0  0.33700  0.11700  0.07320  1.0000
  O   O3        1.0  0.56500  0.64800  0.09150  1.0000
  O   O4        1.0  0.15700  0.88600  0.18000  1.0000
  O   O5        1.0  0.95300  0.12300  0.18200  1.0000
  O   O6        1.0  0.61100  0.99500  0.22400  1.0000
  O   O7        1.0  0.38900  0.49500  0.27600  1.0000
  O   O8        1.0  0.04680  0.62300  0.31800  1.0000
  O   O9        1.0  0.84300  0.38600  0.32000  1.0000
  O   O10       1.0  0.43500  0.14800  0.40900  1.0000
  O   O11       1.0  0.66300  0.61700  0.42700  1.0000
  O   O12       1.0  0.30500  0.77300  0.47500  1.0000
  O   O13       1.0  0.69500  0.22700  0.52500  1.0000
  O   O14       1.0  0.33700  0.38300  0.57300  1.0000
  O   O15       1.0  0.56500  0.85200  0.59100  1.0000
  O   O16       1.0  0.15700  0.61400  0.68000  1.0000
  O   O17       1.0  0.95300  0.37700  0.68200  1.0000
  O   O18       1.0  0.61100  0.50500  0.72400  1.0000
  O   O19       1.0  0.38900  0.00504  0.77600  1.0000
  O   O20       1.0  0.04680  0.87700  0.81800  1.0000
  O   O21       1.0  0.84300  0.11400  0.82000  1.0000
  O   O22       1.0  0.43500  0.35200  0.90900  1.0000
  O   O23       1.0  0.66300  0.88300  0.92700  1.0000
  O   O24       1.0  0.30500  0.72700  0.97500  1.0000
  Se  Se1       1.0  0.86400  0.33900  0.11900  1.0000
  Se  Se2       1.0  0.69500  0.82300  0.14100  1.0000
  Se  Se3       1.0  0.30500  0.32300  0.35900  1.0000
  Se  Se4       1.0  0.13600  0.83900  0.38100  1.0000
  Se  Se5       1.0  0.86400  0.16100  0.61900  1.0000
  Se  Se6       1.0  0.69500  0.67700  0.64100  1.0000
  Se  Se7       1.0  0.30500  0.17700  0.85900  1.0000
  Se  Se8       1.0  0.13600  0.66100  0.88100  1.0000
