data_image0
_chemical_formula_structural       Ga32Rh6
_chemical_formula_sum              "Ga32 Rh6"
_cell_length_a       6.50484
_cell_length_b       6.51801
_cell_length_c       15.7205
_cell_angle_alpha    78.0353
_cell_angle_beta     90
_cell_angle_gamma    90

_space_group_name_H-M_alt    "P 1"
_space_group_IT_number       1

loop_
  _space_group_symop_operation_xyz
  'x, y, z'

loop_
  _atom_site_type_symbol
  _atom_site_label
  _atom_site_symmetry_multiplicity
  _atom_site_fract_x
  _atom_site_fract_y
  _atom_site_fract_z
  _atom_site_occupancy
  Ga  Ga1       1.0  0.14900  0.11500  0.06720  1.0000
  Ga  Ga2       1.0  0.64900  0.31700  0.06720  1.0000
  Ga  Ga3       1.0  0.35100  0.61500  0.06720  1.0000
  Ga  Ga4       1.0  0.85100  0.81700  0.06720  1.0000
  Ga  Ga5       1.0  0.00000  0.42000  0.15900  1.0000
  Ga  Ga6       1.0  0.50000  0.92000  0.15900  1.0000
  Ga  Ga7       1.0  0.14500  0.02200  0.24500  1.0000
  Ga  Ga8       1.0  0.64500  0.23300  0.24500  1.0000
  Ga  Ga9       1.0  0.35500  0.52200  0.24500  1.0000
  Ga  Ga10      1.0  0.85500  0.73300  0.24500  1.0000
  Ga  Ga11      1.0  0.33900  0.14900  0.37900  1.0000
  Ga  Ga12      1.0  0.66100  0.47200  0.37900  1.0000
  Ga  Ga13      1.0  0.16100  0.64900  0.37900  1.0000
  Ga  Ga14      1.0  0.83900  0.97200  0.37900  1.0000
  Ga  Ga15      1.0  0.00000  0.25900  0.48200  1.0000
  Ga  Ga16      1.0  0.50000  0.75900  0.48200  1.0000
  Ga  Ga17      1.0  0.50000  0.24100  0.51800  1.0000
  Ga  Ga18      1.0  0.00000  0.74100  0.51800  1.0000
  Ga  Ga19      1.0  0.83900  0.02800  0.62100  1.0000
  Ga  Ga20      1.0  0.16100  0.35100  0.62100  1.0000
  Ga  Ga21      1.0  0.66100  0.52800  0.62100  1.0000
  Ga  Ga22      1.0  0.33900  0.85100  0.62100  1.0000
  Ga  Ga23      1.0  0.85500  0.26700  0.75500  1.0000
  Ga  Ga24      1.0  0.35500  0.47800  0.75500  1.0000
  Ga  Ga25      1.0  0.64500  0.76700  0.75500  1.0000
  Ga  Ga26      1.0  0.14500  0.97800  0.75500  1.0000
  Ga  Ga27      1.0  0.50000  0.07960  0.84100  1.0000
  Ga  Ga28      1.0  0.00000  0.58000  0.84100  1.0000
  Ga  Ga29      1.0  0.85100  0.18300  0.93300  1.0000
  Ga  Ga30      1.0  0.35100  0.38500  0.93300  1.0000
  Ga  Ga31      1.0  0.64900  0.68300  0.93300  1.0000
  Ga  Ga32      1.0  0.14900  0.88500  0.93300  1.0000
  Rh  Rh1       1.0  0.50000  0.00000  0.00000  1.0000
  Rh  Rh2       1.0  0.00000  0.50000  0.00000  1.0000
  Rh  Rh3       1.0  0.00000  0.34000  0.32000  1.0000
  Rh  Rh4       1.0  0.50000  0.84000  0.32000  1.0000
  Rh  Rh5       1.0  0.50000  0.16000  0.68000  1.0000
  Rh  Rh6       1.0  0.00000  0.66000  0.68000  1.0000
