data_image0
_chemical_formula_structural       Rh8Sc10Si20
_chemical_formula_sum              "Rh8 Sc10 Si20"
_cell_length_a       12.3958
_cell_length_b       12.3958
_cell_length_c       4.05326
_cell_angle_alpha    90
_cell_angle_beta     90
_cell_angle_gamma    90

_space_group_name_H-M_alt    "P 1"
_space_group_IT_number       1

loop_
  _space_group_symop_operation_xyz
  'x, y, z'

loop_
  _atom_site_type_symbol
  _atom_site_label
  _atom_site_symmetry_multiplicity
  _atom_site_fract_x
  _atom_site_fract_y
  _atom_site_fract_z
  _atom_site_occupancy
  Rh  Rh1       1.0  0.24600  0.02050  0.00000  1.0000
  Rh  Rh2       1.0  0.97900  0.24600  0.00000  1.0000
  Rh  Rh3       1.0  0.47900  0.25400  0.00000  1.0000
  Rh  Rh4       1.0  0.74600  0.47900  0.00000  1.0000
  Rh  Rh5       1.0  0.25400  0.52100  0.00000  1.0000
  Rh  Rh6       1.0  0.52100  0.74600  0.00000  1.0000
  Rh  Rh7       1.0  0.02050  0.75400  0.00000  1.0000
  Rh  Rh8       1.0  0.75400  0.97900  0.00000  1.0000
  Sc  Sc1       1.0  0.00000  0.00000  0.00000  1.0000
  Sc  Sc2       1.0  0.50000  0.50000  0.00000  1.0000
  Sc  Sc3       1.0  0.61400  0.11400  0.50000  1.0000
  Sc  Sc4       1.0  0.32500  0.17500  0.50000  1.0000
  Sc  Sc5       1.0  0.82500  0.32500  0.50000  1.0000
  Sc  Sc6       1.0  0.11400  0.38600  0.50000  1.0000
  Sc  Sc7       1.0  0.88600  0.61400  0.50000  1.0000
  Sc  Sc8       1.0  0.17500  0.67500  0.50000  1.0000
  Sc  Sc9       1.0  0.67500  0.82500  0.50000  1.0000
  Sc  Sc10      1.0  0.38600  0.88600  0.50000  1.0000
  Si  Si1       1.0  0.43400  0.06580  0.00000  1.0000
  Si  Si2       1.0  0.79900  0.16400  0.00000  1.0000
  Si  Si3       1.0  0.16400  0.20100  0.00000  1.0000
  Si  Si4       1.0  0.66400  0.29900  0.00000  1.0000
  Si  Si5       1.0  0.29900  0.33600  0.00000  1.0000
  Si  Si6       1.0  0.93400  0.43400  0.00000  1.0000
  Si  Si7       1.0  0.06580  0.56600  0.00000  1.0000
  Si  Si8       1.0  0.70100  0.66400  0.00000  1.0000
  Si  Si9       1.0  0.33600  0.70100  0.00000  1.0000
  Si  Si10      1.0  0.83600  0.79900  0.00000  1.0000
  Si  Si11      1.0  0.20100  0.83600  0.00000  1.0000
  Si  Si12      1.0  0.56600  0.93400  0.00000  1.0000
  Si  Si13      1.0  0.15300  0.00301  0.50000  1.0000
  Si  Si14      1.0  0.99700  0.15300  0.50000  1.0000
  Si  Si15      1.0  0.49700  0.34700  0.50000  1.0000
  Si  Si16      1.0  0.65300  0.49700  0.50000  1.0000
  Si  Si17      1.0  0.34700  0.50300  0.50000  1.0000
  Si  Si18      1.0  0.50300  0.65300  0.50000  1.0000
  Si  Si19      1.0  0.00301  0.84700  0.50000  1.0000
  Si  Si20      1.0  0.84700  0.99700  0.50000  1.0000
