data_image0
_chemical_formula_structural       Cl2OOs
_chemical_formula_sum              "Cl2 O1 Os1"
_cell_length_a       3.60109
_cell_length_b       3.72854
_cell_length_c       6.14156
_cell_angle_alpha    107.671
_cell_angle_beta     107.048
_cell_angle_gamma    90

_space_group_name_H-M_alt    "P 1"
_space_group_IT_number       1

loop_
  _space_group_symop_operation_xyz
  'x, y, z'

loop_
  _atom_site_type_symbol
  _atom_site_label
  _atom_site_symmetry_multiplicity
  _atom_site_fract_x
  _atom_site_fract_y
  _atom_site_fract_z
  _atom_site_occupancy
  Cl  Cl1       1.0  0.64200  0.14200  0.28400  1.0000
  Cl  Cl2       1.0  0.35800  0.85800  0.71600  1.0000
  O   O1        1.0  0.00000  0.50000  0.00000  1.0000
  Os  Os1       1.0  0.00000  0.00000  0.00000  1.0000
