data_image0
_chemical_formula_structural       Ce18O10Sb10
_chemical_formula_sum              "Ce18 O10 Sb10"
_cell_length_a       10.3846
_cell_length_b       10.3846
_cell_length_c       9.35727
_cell_angle_alpha    90
_cell_angle_beta     90
_cell_angle_gamma    90

_space_group_name_H-M_alt    "P 1"
_space_group_IT_number       1

loop_
  _space_group_symop_operation_xyz
  'x, y, z'

loop_
  _atom_site_type_symbol
  _atom_site_label
  _atom_site_symmetry_multiplicity
  _atom_site_fract_x
  _atom_site_fract_y
  _atom_site_fract_z
  _atom_site_occupancy
  Ce  Ce1       1.0  0.83100  0.52300  0.00100  1.0000
  Ce  Ce2       1.0  0.52300  0.66900  0.00100  1.0000
  Ce  Ce3       1.0  0.97700  0.83100  0.00100  1.0000
  Ce  Ce4       1.0  0.66900  0.97700  0.00100  1.0000
  Ce  Ce5       1.0  0.25000  0.25000  0.33500  1.0000
  Ce  Ce6       1.0  0.85300  0.04600  0.34600  1.0000
  Ce  Ce7       1.0  0.64700  0.45400  0.34600  1.0000
  Ce  Ce8       1.0  0.04600  0.64700  0.34600  1.0000
  Ce  Ce9       1.0  0.45400  0.85300  0.34600  1.0000
  Ce  Ce10      1.0  0.54600  0.14700  0.65400  1.0000
  Ce  Ce11      1.0  0.95400  0.35300  0.65400  1.0000
  Ce  Ce12      1.0  0.35300  0.54600  0.65400  1.0000
  Ce  Ce13      1.0  0.14700  0.95400  0.65400  1.0000
  Ce  Ce14      1.0  0.75000  0.75000  0.66500  1.0000
  Ce  Ce15      1.0  0.33100  0.02330  0.99900  1.0000
  Ce  Ce16      1.0  0.02330  0.16900  0.99900  1.0000
  Ce  Ce17      1.0  0.47700  0.33100  0.99900  1.0000
  Ce  Ce18      1.0  0.16900  0.47700  0.99900  1.0000
  O   O1        1.0  0.25000  0.25000  0.06850  1.0000
  O   O2        1.0  0.87100  0.02580  0.09070  1.0000
  O   O3        1.0  0.62900  0.47400  0.09070  1.0000
  O   O4        1.0  0.02580  0.62900  0.09070  1.0000
  O   O5        1.0  0.47400  0.87100  0.09070  1.0000
  O   O6        1.0  0.52600  0.12900  0.90900  1.0000
  O   O7        1.0  0.97400  0.37100  0.90900  1.0000
  O   O8        1.0  0.37100  0.52600  0.90900  1.0000
  O   O9        1.0  0.12900  0.97400  0.90900  1.0000
  O   O10       1.0  0.75000  0.75000  0.93200  1.0000
  Sb  Sb1       1.0  0.55300  0.15300  0.29900  1.0000
  Sb  Sb2       1.0  0.94700  0.34700  0.29900  1.0000
  Sb  Sb3       1.0  0.34700  0.55300  0.29900  1.0000
  Sb  Sb4       1.0  0.15300  0.94700  0.29900  1.0000
  Sb  Sb5       1.0  0.75000  0.75000  0.31200  1.0000
  Sb  Sb6       1.0  0.25000  0.25000  0.68800  1.0000
  Sb  Sb7       1.0  0.84700  0.05320  0.70100  1.0000
  Sb  Sb8       1.0  0.65300  0.44700  0.70100  1.0000
  Sb  Sb9       1.0  0.05320  0.65300  0.70100  1.0000
  Sb  Sb10      1.0  0.44700  0.84700  0.70100  1.0000
