data_image0
_chemical_formula_structural       Ge20Ni8Yb10
_chemical_formula_sum              "Ge20 Ni8 Yb10"
_cell_length_a       12.7464
_cell_length_b       12.7464
_cell_length_c       4.23064
_cell_angle_alpha    90
_cell_angle_beta     90
_cell_angle_gamma    90

_space_group_name_H-M_alt    "P 1"
_space_group_IT_number       1

loop_
  _space_group_symop_operation_xyz
  'x, y, z'

loop_
  _atom_site_type_symbol
  _atom_site_label
  _atom_site_symmetry_multiplicity
  _atom_site_fract_x
  _atom_site_fract_y
  _atom_site_fract_z
  _atom_site_occupancy
  Ge  Ge1       1.0  0.56800  0.06800  0.00000  1.0000
  Ge  Ge2       1.0  0.19900  0.15400  0.00000  1.0000
  Ge  Ge3       1.0  0.84600  0.19900  0.00000  1.0000
  Ge  Ge4       1.0  0.34600  0.30100  0.00000  1.0000
  Ge  Ge5       1.0  0.69900  0.34600  0.00000  1.0000
  Ge  Ge6       1.0  0.06800  0.43200  0.00000  1.0000
  Ge  Ge7       1.0  0.93200  0.56800  0.00000  1.0000
  Ge  Ge8       1.0  0.30100  0.65400  0.00000  1.0000
  Ge  Ge9       1.0  0.65400  0.69900  0.00000  1.0000
  Ge  Ge10      1.0  0.15400  0.80100  0.00000  1.0000
  Ge  Ge11      1.0  0.80100  0.84600  0.00000  1.0000
  Ge  Ge12      1.0  0.43200  0.93200  0.00000  1.0000
  Ge  Ge13      1.0  0.83800  0.00172  0.50000  1.0000
  Ge  Ge14      1.0  0.00172  0.16200  0.50000  1.0000
  Ge  Ge15      1.0  0.50200  0.33800  0.50000  1.0000
  Ge  Ge16      1.0  0.33800  0.49800  0.50000  1.0000
  Ge  Ge17      1.0  0.66200  0.50200  0.50000  1.0000
  Ge  Ge18      1.0  0.49800  0.66200  0.50000  1.0000
  Ge  Ge19      1.0  0.99800  0.83800  0.50000  1.0000
  Ge  Ge20      1.0  0.16200  0.99800  0.50000  1.0000
  Ni  Ni1       1.0  0.75500  0.02680  0.00000  1.0000
  Ni  Ni2       1.0  0.02680  0.24500  0.00000  1.0000
  Ni  Ni3       1.0  0.52700  0.25500  0.00000  1.0000
  Ni  Ni4       1.0  0.25500  0.47300  0.00000  1.0000
  Ni  Ni5       1.0  0.74500  0.52700  0.00000  1.0000
  Ni  Ni6       1.0  0.47300  0.74500  0.00000  1.0000
  Ni  Ni7       1.0  0.97300  0.75500  0.00000  1.0000
  Ni  Ni8       1.0  0.24500  0.97300  0.00000  1.0000
  Yb  Yb1       1.0  0.00000  0.00000  0.00000  1.0000
  Yb  Yb2       1.0  0.50000  0.50000  0.00000  1.0000
  Yb  Yb3       1.0  0.39000  0.11000  0.50000  1.0000
  Yb  Yb4       1.0  0.67800  0.17800  0.50000  1.0000
  Yb  Yb5       1.0  0.17800  0.32200  0.50000  1.0000
  Yb  Yb6       1.0  0.89000  0.39000  0.50000  1.0000
  Yb  Yb7       1.0  0.11000  0.61000  0.50000  1.0000
  Yb  Yb8       1.0  0.82200  0.67800  0.50000  1.0000
  Yb  Yb9       1.0  0.32200  0.82200  0.50000  1.0000
  Yb  Yb10      1.0  0.61000  0.89000  0.50000  1.0000
