data_image0
_chemical_formula_structural       C6CoFeH18N12
_chemical_formula_sum              "C6 Co1 Fe1 H18 N12"
_cell_length_a       7.05831
_cell_length_b       7.05831
_cell_length_c       7.05831
_cell_angle_alpha    97.684
_cell_angle_beta     97.684
_cell_angle_gamma    97.684

_space_group_name_H-M_alt    "P 1"
_space_group_IT_number       1

loop_
  _space_group_symop_operation_xyz
  'x, y, z'

loop_
  _atom_site_type_symbol
  _atom_site_label
  _atom_site_symmetry_multiplicity
  _atom_site_fract_x
  _atom_site_fract_y
  _atom_site_fract_z
  _atom_site_occupancy
  C   C1        1.0  0.87800  0.76100  0.04990  1.0000
  C   C2        1.0  0.23900  0.95000  0.12200  1.0000
  C   C3        1.0  0.95000  0.12200  0.23900  1.0000
  C   C4        1.0  0.04990  0.87800  0.76100  1.0000
  C   C5        1.0  0.76100  0.04990  0.87800  1.0000
  C   C6        1.0  0.12200  0.23900  0.95000  1.0000
  Co  Co1       1.0  0.50000  0.50000  0.50000  1.0000
  Fe  Fe1       1.0  0.00000  0.00000  0.00000  1.0000
  H   H1        1.0  0.43300  0.33900  0.15000  1.0000
  H   H2        1.0  0.66000  0.44300  0.19800  1.0000
  H   H3        1.0  0.26900  0.59400  0.23100  1.0000
  H   H4        1.0  0.59400  0.23100  0.26900  1.0000
  H   H5        1.0  0.15000  0.43300  0.33900  1.0000
  H   H6        1.0  0.55700  0.80200  0.34000  1.0000
  H   H7        1.0  0.76900  0.73100  0.40600  1.0000
  H   H8        1.0  0.33900  0.15000  0.43300  1.0000
  H   H9        1.0  0.19800  0.66000  0.44300  1.0000
  H   H10       1.0  0.80200  0.34000  0.55700  1.0000
  H   H11       1.0  0.66100  0.85000  0.56700  1.0000
  H   H12       1.0  0.23100  0.26900  0.59400  1.0000
  H   H13       1.0  0.44300  0.19800  0.66000  1.0000
  H   H14       1.0  0.85000  0.56700  0.66100  1.0000
  H   H15       1.0  0.40600  0.76900  0.73100  1.0000
  H   H16       1.0  0.73100  0.40600  0.76900  1.0000
  H   H17       1.0  0.34000  0.55700  0.80200  1.0000
  H   H18       1.0  0.56700  0.66100  0.85000  1.0000
  N   N1        1.0  0.79900  0.61100  0.07530  1.0000
  N   N2        1.0  0.38900  0.92500  0.20100  1.0000
  N   N3        1.0  0.55300  0.36400  0.25600  1.0000
  N   N4        1.0  0.25600  0.55300  0.36400  1.0000
  N   N5        1.0  0.92500  0.20100  0.38900  1.0000
  N   N6        1.0  0.63600  0.74400  0.44700  1.0000
  N   N7        1.0  0.36400  0.25600  0.55300  1.0000
  N   N8        1.0  0.07530  0.79900  0.61100  1.0000
  N   N9        1.0  0.74400  0.44700  0.63600  1.0000
  N   N10       1.0  0.44700  0.63600  0.74400  1.0000
  N   N11       1.0  0.61100  0.07530  0.79900  1.0000
  N   N12       1.0  0.20100  0.38900  0.92500  1.0000
