data_image0
_chemical_formula_structural       Al6Fe28Y4
_chemical_formula_sum              "Al6 Fe28 Y4"
_cell_length_a       8.51208
_cell_length_b       8.51313
_cell_length_c       8.18897
_cell_angle_alpha    90
_cell_angle_beta     90
_cell_angle_gamma    119.996

_space_group_name_H-M_alt    "P 1"
_space_group_IT_number       1

loop_
  _space_group_symop_operation_xyz
  'x, y, z'

loop_
  _atom_site_type_symbol
  _atom_site_label
  _atom_site_symmetry_multiplicity
  _atom_site_fract_x
  _atom_site_fract_y
  _atom_site_fract_z
  _atom_site_occupancy
  Al  Al1       1.0  0.50000  0.00000  0.00000  1.0000
  Al  Al2       1.0  0.00000  0.50000  0.00000  1.0000
  Al  Al3       1.0  0.50000  0.50000  0.00000  1.0000
  Al  Al4       1.0  0.50000  0.00000  0.50000  1.0000
  Al  Al5       1.0  0.00000  0.50000  0.50000  1.0000
  Al  Al6       1.0  0.50000  0.50000  0.50000  1.0000
  Fe  Fe1       1.0  0.83400  0.66800  0.01340  1.0000
  Fe  Fe2       1.0  0.33200  0.16600  0.01340  1.0000
  Fe  Fe3       1.0  0.83400  0.16600  0.01340  1.0000
  Fe  Fe4       1.0  0.33300  0.66700  0.11200  1.0000
  Fe  Fe5       1.0  0.02950  0.35100  0.25000  1.0000
  Fe  Fe6       1.0  0.32200  0.35100  0.25000  1.0000
  Fe  Fe7       1.0  0.02950  0.67800  0.25000  1.0000
  Fe  Fe8       1.0  0.64900  0.67800  0.25000  1.0000
  Fe  Fe9       1.0  0.32200  0.97100  0.25000  1.0000
  Fe  Fe10      1.0  0.64900  0.97100  0.25000  1.0000
  Fe  Fe11      1.0  0.33300  0.66700  0.38800  1.0000
  Fe  Fe12      1.0  0.33200  0.16600  0.48700  1.0000
  Fe  Fe13      1.0  0.83400  0.16600  0.48700  1.0000
  Fe  Fe14      1.0  0.83400  0.66800  0.48700  1.0000
  Fe  Fe15      1.0  0.16600  0.33200  0.51300  1.0000
  Fe  Fe16      1.0  0.16600  0.83400  0.51300  1.0000
  Fe  Fe17      1.0  0.66800  0.83400  0.51300  1.0000
  Fe  Fe18      1.0  0.66700  0.33300  0.61200  1.0000
  Fe  Fe19      1.0  0.35100  0.02950  0.75000  1.0000
  Fe  Fe20      1.0  0.67800  0.02950  0.75000  1.0000
  Fe  Fe21      1.0  0.35100  0.32200  0.75000  1.0000
  Fe  Fe22      1.0  0.97100  0.32200  0.75000  1.0000
  Fe  Fe23      1.0  0.67800  0.64900  0.75000  1.0000
  Fe  Fe24      1.0  0.97000  0.64900  0.75000  1.0000
  Fe  Fe25      1.0  0.66700  0.33300  0.88800  1.0000
  Fe  Fe26      1.0  0.16600  0.83400  0.98700  1.0000
  Fe  Fe27      1.0  0.66800  0.83400  0.98700  1.0000
  Fe  Fe28      1.0  0.16600  0.33200  0.98700  1.0000
  Y   Y1        1.0  0.00000  0.00000  0.25000  1.0000
  Y   Y2        1.0  0.66700  0.33300  0.25000  1.0000
  Y   Y3        1.0  0.00000  0.00000  0.75000  1.0000
  Y   Y4        1.0  0.33300  0.66700  0.75000  1.0000
