data_image0
_chemical_formula_structural       Ce8Ge6S24
_chemical_formula_sum              "Ce8 Ge6 S24"
_cell_length_a       8.11272
_cell_length_b       11.6341
_cell_length_c       11.6341
_cell_angle_alpha    114.769
_cell_angle_beta     103.441
_cell_angle_gamma    103.441

_space_group_name_H-M_alt    "P 1"
_space_group_IT_number       1

loop_
  _space_group_symop_operation_xyz
  'x, y, z'

loop_
  _atom_site_type_symbol
  _atom_site_label
  _atom_site_symmetry_multiplicity
  _atom_site_fract_x
  _atom_site_fract_y
  _atom_site_fract_z
  _atom_site_occupancy
  Ce  Ce1       1.0  0.00150  0.00000  0.00000  1.0000
  Ce  Ce2       1.0  0.50200  0.00000  0.00000  1.0000
  Ce  Ce3       1.0  0.79100  0.76400  0.22500  1.0000
  Ce  Ce4       1.0  0.02690  0.46100  0.23600  1.0000
  Ce  Ce5       1.0  0.52700  0.23600  0.46100  1.0000
  Ce  Ce6       1.0  0.56600  0.77500  0.53900  1.0000
  Ce  Ce7       1.0  0.29100  0.22500  0.76400  1.0000
  Ce  Ce8       1.0  0.06600  0.53900  0.77500  1.0000
  Ge  Ge1       1.0  0.53300  0.38700  0.17400  1.0000
  Ge  Ge2       1.0  0.35900  0.82600  0.21200  1.0000
  Ge  Ge3       1.0  0.03290  0.17400  0.38700  1.0000
  Ge  Ge4       1.0  0.14600  0.78800  0.61300  1.0000
  Ge  Ge5       1.0  0.64600  0.61300  0.78800  1.0000
  Ge  Ge6       1.0  0.85900  0.21200  0.82600  1.0000
  S   S1        1.0  0.31300  0.18600  0.00014  1.0000
  S   S2        1.0  0.41600  0.71200  0.02750  1.0000
  S   S3        1.0  0.68600  0.46800  0.07180  1.0000
  S   S4        1.0  0.31300  0.00000  0.18600  1.0000
  S   S5        1.0  0.81300  0.00015  0.18600  1.0000
  S   S6        1.0  0.41700  0.54400  0.26600  1.0000
  S   S7        1.0  0.15200  0.73400  0.27800  1.0000
  S   S8        1.0  0.70300  0.31500  0.28800  1.0000
  S   S9        1.0  0.20300  0.28800  0.31500  1.0000
  S   S10       1.0  0.61400  0.92800  0.39600  1.0000
  S   S11       1.0  0.87300  0.72200  0.45600  1.0000
  S   S12       1.0  0.18600  0.07180  0.46800  1.0000
  S   S13       1.0  0.21800  0.60400  0.53200  1.0000
  S   S14       1.0  0.91700  0.26600  0.54400  1.0000
  S   S15       1.0  0.71800  0.53200  0.60400  1.0000
  S   S16       1.0  0.38800  0.97200  0.68500  1.0000
  S   S17       1.0  0.91600  0.02750  0.71200  1.0000
  S   S18       1.0  0.37300  0.45600  0.72200  1.0000
  S   S19       1.0  0.65200  0.27800  0.73400  1.0000
  S   S20       1.0  0.12700  0.81400  0.81400  1.0000
  S   S21       1.0  0.62700  0.81400  0.81400  1.0000
  S   S22       1.0  0.11400  0.39600  0.92800  1.0000
  S   S23       1.0  0.88800  0.68500  0.97200  1.0000
  S   S24       1.0  0.81300  0.18600  0.00000  1.0000
