data_image0
_chemical_formula_structural       Ge6Nd8S24
_chemical_formula_sum              "Ge6 Nd8 S24"
_cell_length_a       7.99918
_cell_length_b       11.537
_cell_length_c       11.537
_cell_angle_alpha    114.827
_cell_angle_beta     103.363
_cell_angle_gamma    103.363

_space_group_name_H-M_alt    "P 1"
_space_group_IT_number       1

loop_
  _space_group_symop_operation_xyz
  'x, y, z'

loop_
  _atom_site_type_symbol
  _atom_site_label
  _atom_site_symmetry_multiplicity
  _atom_site_fract_x
  _atom_site_fract_y
  _atom_site_fract_z
  _atom_site_occupancy
  Ge  Ge1       1.0  0.53100  0.38600  0.17500  1.0000
  Ge  Ge2       1.0  0.35600  0.82500  0.21200  1.0000
  Ge  Ge3       1.0  0.03070  0.17500  0.38600  1.0000
  Ge  Ge4       1.0  0.14400  0.78800  0.61400  1.0000
  Ge  Ge5       1.0  0.64400  0.61400  0.78800  1.0000
  Ge  Ge6       1.0  0.85600  0.21200  0.82500  1.0000
  Nd  Nd1       1.0  0.00136  0.00000  0.00000  1.0000
  Nd  Nd2       1.0  0.50100  0.00000  0.00000  1.0000
  Nd  Nd3       1.0  0.78600  0.76200  0.22300  1.0000
  Nd  Nd4       1.0  0.02480  0.46200  0.23800  1.0000
  Nd  Nd5       1.0  0.52500  0.23800  0.46200  1.0000
  Nd  Nd6       1.0  0.56300  0.77700  0.53800  1.0000
  Nd  Nd7       1.0  0.28600  0.22300  0.76200  1.0000
  Nd  Nd8       1.0  0.06310  0.53800  0.77700  1.0000
  S   S1        1.0  0.81500  0.18700  0.00282  1.0000
  S   S2        1.0  0.41400  0.71100  0.02560  1.0000
  S   S3        1.0  0.68800  0.46900  0.07320  1.0000
  S   S4        1.0  0.81200  0.99700  0.18400  1.0000
  S   S5        1.0  0.31500  0.00282  0.18700  1.0000
  S   S6        1.0  0.41300  0.54500  0.26600  1.0000
  S   S7        1.0  0.14700  0.73400  0.27900  1.0000
  S   S8        1.0  0.70300  0.31500  0.28900  1.0000
  S   S9        1.0  0.20300  0.28900  0.31500  1.0000
  S   S10       1.0  0.61500  0.92700  0.39600  1.0000
  S   S11       1.0  0.86800  0.72100  0.45500  1.0000
  S   S12       1.0  0.18800  0.07320  0.46900  1.0000
  S   S13       1.0  0.21900  0.60400  0.53100  1.0000
  S   S14       1.0  0.91300  0.26600  0.54500  1.0000
  S   S15       1.0  0.71900  0.53100  0.60400  1.0000
  S   S16       1.0  0.38900  0.97400  0.68500  1.0000
  S   S17       1.0  0.91400  0.02560  0.71100  1.0000
  S   S18       1.0  0.36800  0.45500  0.72100  1.0000
  S   S19       1.0  0.64700  0.27900  0.73400  1.0000
  S   S20       1.0  0.62800  0.81600  0.81300  1.0000
  S   S21       1.0  0.12800  0.81300  0.81600  1.0000
  S   S22       1.0  0.11500  0.39600  0.92700  1.0000
  S   S23       1.0  0.88900  0.68500  0.97400  1.0000
  S   S24       1.0  0.31200  0.18400  0.99700  1.0000
