data_image0
_chemical_formula_structural       C2Ho18O8Sb10
_chemical_formula_sum              "C2 Ho18 O8 Sb10"
_cell_length_a       9.82942
_cell_length_b       9.82942
_cell_length_c       8.922
_cell_angle_alpha    90
_cell_angle_beta     90
_cell_angle_gamma    90

_space_group_name_H-M_alt    "P 1"
_space_group_IT_number       1

loop_
  _space_group_symop_operation_xyz
  'x, y, z'

loop_
  _atom_site_type_symbol
  _atom_site_label
  _atom_site_symmetry_multiplicity
  _atom_site_fract_x
  _atom_site_fract_y
  _atom_site_fract_z
  _atom_site_occupancy
  C   C1        1.0  0.75000  0.75000  0.05950  1.0000
  C   C2        1.0  0.25000  0.25000  0.94100  1.0000
  Ho  Ho1       1.0  0.17000  0.02550  0.00345  1.0000
  Ho  Ho2       1.0  0.47400  0.17000  0.00345  1.0000
  Ho  Ho3       1.0  0.02550  0.33000  0.00345  1.0000
  Ho  Ho4       1.0  0.33000  0.47400  0.00345  1.0000
  Ho  Ho5       1.0  0.75000  0.75000  0.31200  1.0000
  Ho  Ho6       1.0  0.95500  0.14500  0.33800  1.0000
  Ho  Ho7       1.0  0.54500  0.35500  0.33800  1.0000
  Ho  Ho8       1.0  0.14500  0.54500  0.33800  1.0000
  Ho  Ho9       1.0  0.35500  0.95500  0.33800  1.0000
  Ho  Ho10      1.0  0.64500  0.04530  0.66200  1.0000
  Ho  Ho11      1.0  0.85500  0.45500  0.66200  1.0000
  Ho  Ho12      1.0  0.45500  0.64500  0.66200  1.0000
  Ho  Ho13      1.0  0.04530  0.85500  0.66200  1.0000
  Ho  Ho14      1.0  0.25000  0.25000  0.68800  1.0000
  Ho  Ho15      1.0  0.67000  0.52600  0.99700  1.0000
  Ho  Ho16      1.0  0.97400  0.67000  0.99700  1.0000
  Ho  Ho17      1.0  0.52600  0.83000  0.99700  1.0000
  Ho  Ho18      1.0  0.83000  0.97400  0.99700  1.0000
  O   O1        1.0  0.97600  0.12800  0.09360  1.0000
  O   O2        1.0  0.52400  0.37200  0.09360  1.0000
  O   O3        1.0  0.12800  0.52400  0.09360  1.0000
  O   O4        1.0  0.37200  0.97600  0.09360  1.0000
  O   O5        1.0  0.62800  0.02410  0.90600  1.0000
  O   O6        1.0  0.87200  0.47600  0.90600  1.0000
  O   O7        1.0  0.47600  0.62800  0.90600  1.0000
  O   O8        1.0  0.02410  0.87200  0.90600  1.0000
  Sb  Sb1       1.0  0.65300  0.05760  0.30700  1.0000
  Sb  Sb2       1.0  0.84700  0.44200  0.30700  1.0000
  Sb  Sb3       1.0  0.44200  0.65300  0.30700  1.0000
  Sb  Sb4       1.0  0.05760  0.84700  0.30700  1.0000
  Sb  Sb5       1.0  0.25000  0.25000  0.33000  1.0000
  Sb  Sb6       1.0  0.75000  0.75000  0.67000  1.0000
  Sb  Sb7       1.0  0.94200  0.15300  0.69300  1.0000
  Sb  Sb8       1.0  0.55800  0.34700  0.69300  1.0000
  Sb  Sb9       1.0  0.15300  0.55800  0.69300  1.0000
  Sb  Sb10      1.0  0.34700  0.94200  0.69300  1.0000
