data_image0
_chemical_formula_structural       Al10Dy4Fe24
_chemical_formula_sum              "Al10 Dy4 Fe24"
_cell_length_a       8.53178
_cell_length_b       8.53112
_cell_length_c       8.3346
_cell_angle_alpha    90
_cell_angle_beta     90
_cell_angle_gamma    120.003

_space_group_name_H-M_alt    "P 1"
_space_group_IT_number       1

loop_
  _space_group_symop_operation_xyz
  'x, y, z'

loop_
  _atom_site_type_symbol
  _atom_site_label
  _atom_site_symmetry_multiplicity
  _atom_site_fract_x
  _atom_site_fract_y
  _atom_site_fract_z
  _atom_site_occupancy
  Al  Al1       1.0  0.50000  0.00000  0.00000  1.0000
  Al  Al2       1.0  0.00000  0.50000  0.00000  1.0000
  Al  Al3       1.0  0.50000  0.50000  0.00000  1.0000
  Al  Al4       1.0  0.33300  0.66700  0.10300  1.0000
  Al  Al5       1.0  0.33300  0.66700  0.39700  1.0000
  Al  Al6       1.0  0.50000  0.00000  0.50000  1.0000
  Al  Al7       1.0  0.00000  0.50000  0.50000  1.0000
  Al  Al8       1.0  0.50000  0.50000  0.50000  1.0000
  Al  Al9       1.0  0.66700  0.33300  0.60300  1.0000
  Al  Al10      1.0  0.66700  0.33300  0.89700  1.0000
  Dy  Dy1       1.0  0.00000  0.00000  0.25000  1.0000
  Dy  Dy2       1.0  0.66700  0.33300  0.25000  1.0000
  Dy  Dy3       1.0  0.00000  0.00000  0.75000  1.0000
  Dy  Dy4       1.0  0.33300  0.66700  0.75000  1.0000
  Fe  Fe1       1.0  0.32900  0.16400  0.01390  1.0000
  Fe  Fe2       1.0  0.83600  0.16400  0.01390  1.0000
  Fe  Fe3       1.0  0.83600  0.67100  0.01400  1.0000
  Fe  Fe4       1.0  0.02390  0.34700  0.25000  1.0000
  Fe  Fe5       1.0  0.32300  0.34700  0.25000  1.0000
  Fe  Fe6       1.0  0.02390  0.67700  0.25000  1.0000
  Fe  Fe7       1.0  0.65300  0.67700  0.25000  1.0000
  Fe  Fe8       1.0  0.32300  0.97600  0.25000  1.0000
  Fe  Fe9       1.0  0.65300  0.97600  0.25000  1.0000
  Fe  Fe10      1.0  0.83600  0.67100  0.48600  1.0000
  Fe  Fe11      1.0  0.32900  0.16400  0.48600  1.0000
  Fe  Fe12      1.0  0.83600  0.16400  0.48600  1.0000
  Fe  Fe13      1.0  0.16400  0.83600  0.51400  1.0000
  Fe  Fe14      1.0  0.67100  0.83600  0.51400  1.0000
  Fe  Fe15      1.0  0.16400  0.32900  0.51400  1.0000
  Fe  Fe16      1.0  0.34700  0.02390  0.75000  1.0000
  Fe  Fe17      1.0  0.67700  0.02390  0.75000  1.0000
  Fe  Fe18      1.0  0.34700  0.32300  0.75000  1.0000
  Fe  Fe19      1.0  0.97600  0.32300  0.75000  1.0000
  Fe  Fe20      1.0  0.67700  0.65300  0.75000  1.0000
  Fe  Fe21      1.0  0.97600  0.65300  0.75000  1.0000
  Fe  Fe22      1.0  0.16400  0.32900  0.98600  1.0000
  Fe  Fe23      1.0  0.16400  0.83600  0.98600  1.0000
  Fe  Fe24      1.0  0.67100  0.83600  0.98600  1.0000
