data_image0
_chemical_formula_structural       BaPdSi3
_chemical_formula_sum              "Ba1 Pd1 Si3"
_cell_length_a       4.42499
_cell_length_b       4.42499
_cell_length_c       6.00359
_cell_angle_alpha    111.625
_cell_angle_beta     111.625
_cell_angle_gamma    90

_space_group_name_H-M_alt    "P 1"
_space_group_IT_number       1

loop_
  _space_group_symop_operation_xyz
  'x, y, z'

loop_
  _atom_site_type_symbol
  _atom_site_label
  _atom_site_symmetry_multiplicity
  _atom_site_fract_x
  _atom_site_fract_y
  _atom_site_fract_z
  _atom_site_occupancy
  Ba  Ba1       1.0  0.61600  0.61600  0.23100  1.0000
  Pd  Pd1       1.0  0.26000  0.26000  0.52100  1.0000
  Si  Si1       1.0  0.00055  0.00055  0.00110  1.0000
  Si  Si2       1.0  0.87000  0.37000  0.74000  1.0000
  Si  Si3       1.0  0.37000  0.87000  0.74000  1.0000
