data_image0
_chemical_formula_structural       H8I6O22Yb2
_chemical_formula_sum              "H8 I6 O22 Yb2"
_cell_length_a       6.94106
_cell_length_b       7.17884
_cell_length_c       10.3933
_cell_angle_alpha    94.84
_cell_angle_beta     106.117
_cell_angle_gamma    109.829

_space_group_name_H-M_alt    "P 1"
_space_group_IT_number       1

loop_
  _space_group_symop_operation_xyz
  'x, y, z'

loop_
  _atom_site_type_symbol
  _atom_site_label
  _atom_site_symmetry_multiplicity
  _atom_site_fract_x
  _atom_site_fract_y
  _atom_site_fract_z
  _atom_site_occupancy
  H   H1        1.0  0.26700  0.41100  0.15000  1.0000
  H   H2        1.0  0.21000  0.41600  0.28900  1.0000
  H   H3        1.0  0.69700  0.56600  0.38500  1.0000
  H   H4        1.0  0.62600  0.75500  0.39700  1.0000
  H   H5        1.0  0.37400  0.24500  0.60300  1.0000
  H   H6        1.0  0.30300  0.43400  0.61500  1.0000
  H   H7        1.0  0.79000  0.58400  0.71100  1.0000
  H   H8        1.0  0.73300  0.58900  0.85000  1.0000
  I   I1        1.0  0.80600  0.35300  0.07490  1.0000
  I   I2        1.0  0.78600  0.86300  0.17800  1.0000
  I   I3        1.0  0.22800  0.77400  0.45600  1.0000
  I   I4        1.0  0.77200  0.22600  0.54400  1.0000
  I   I5        1.0  0.21400  0.13700  0.82200  1.0000
  I   I6        1.0  0.19400  0.64700  0.92500  1.0000
  O   O1        1.0  0.80100  0.98000  0.02740  1.0000
  O   O2        1.0  0.88500  0.61300  0.03760  1.0000
  O   O3        1.0  0.37500  0.77300  0.10100  1.0000
  O   O4        1.0  0.59000  0.36400  0.13800  1.0000
  O   O5        1.0  0.25900  0.34200  0.22700  1.0000
  O   O6        1.0  0.75100  0.07400  0.26800  1.0000
  O   O7        1.0  0.07700  0.93800  0.27200  1.0000
  O   O8        1.0  0.05910  0.53100  0.33900  1.0000
  O   O9        1.0  0.44100  0.87000  0.37700  1.0000
  O   O10       1.0  0.74600  0.71500  0.38800  1.0000
  O   O11       1.0  0.61400  0.32300  0.41500  1.0000
  O   O12       1.0  0.38600  0.67700  0.58500  1.0000
  O   O13       1.0  0.25400  0.28500  0.61200  1.0000
  O   O14       1.0  0.55900  0.13000  0.62300  1.0000
  O   O15       1.0  0.94100  0.46900  0.66100  1.0000
  O   O16       1.0  0.92300  0.06220  0.72800  1.0000
  O   O17       1.0  0.24900  0.92600  0.73200  1.0000
  O   O18       1.0  0.74100  0.65800  0.77300  1.0000
  O   O19       1.0  0.41000  0.63600  0.86200  1.0000
  O   O20       1.0  0.62500  0.22700  0.89900  1.0000
  O   O21       1.0  0.11500  0.38700  0.96200  1.0000
  O   O22       1.0  0.19900  0.01990  0.97300  1.0000
  Yb  Yb1       1.0  0.39000  0.08570  0.21400  1.0000
  Yb  Yb2       1.0  0.61000  0.91400  0.78600  1.0000
