data_image0
_chemical_formula_structural       Dy2H8I6O22
_chemical_formula_sum              "Dy2 H8 I6 O22"
_cell_length_a       6.95018
_cell_length_b       7.13838
_cell_length_c       10.3946
_cell_angle_alpha    94.6632
_cell_angle_beta     105.516
_cell_angle_gamma    109.892

_space_group_name_H-M_alt    "P 1"
_space_group_IT_number       1

loop_
  _space_group_symop_operation_xyz
  'x, y, z'

loop_
  _atom_site_type_symbol
  _atom_site_label
  _atom_site_symmetry_multiplicity
  _atom_site_fract_x
  _atom_site_fract_y
  _atom_site_fract_z
  _atom_site_occupancy
  Dy  Dy1       1.0  0.89100  0.58700  0.21300  1.0000
  Dy  Dy2       1.0  0.10900  0.41300  0.78700  1.0000
  H   H1        1.0  0.78200  0.93300  0.16100  1.0000
  H   H2        1.0  0.70600  0.90800  0.29400  1.0000
  H   H3        1.0  0.19700  0.06920  0.38900  1.0000
  H   H4        1.0  0.12400  0.25600  0.40000  1.0000
  H   H5        1.0  0.87600  0.74400  0.60000  1.0000
  H   H6        1.0  0.80300  0.93100  0.61100  1.0000
  H   H7        1.0  0.29400  0.09220  0.70600  1.0000
  H   H8        1.0  0.21800  0.06670  0.83900  1.0000
  I   I1        1.0  0.31200  0.85200  0.07320  1.0000
  I   I2        1.0  0.27900  0.35700  0.17100  1.0000
  I   I3        1.0  0.72000  0.27300  0.45600  1.0000
  I   I4        1.0  0.28000  0.72700  0.54400  1.0000
  I   I5        1.0  0.72100  0.64300  0.82900  1.0000
  I   I6        1.0  0.68800  0.14800  0.92700  1.0000
  O   O1        1.0  0.29400  0.47500  0.02050  1.0000
  O   O2        1.0  0.38400  0.11200  0.03480  1.0000
  O   O3        1.0  0.86200  0.27000  0.10300  1.0000
  O   O4        1.0  0.09030  0.86000  0.13400  1.0000
  O   O5        1.0  0.77100  0.85200  0.23300  1.0000
  O   O6        1.0  0.24000  0.57100  0.25800  1.0000
  O   O7        1.0  0.57100  0.44500  0.26400  1.0000
  O   O8        1.0  0.55900  0.02530  0.34500  1.0000
  O   O9        1.0  0.93000  0.37200  0.37300  1.0000
  O   O10       1.0  0.24700  0.21900  0.39300  1.0000
  O   O11       1.0  0.11000  0.81500  0.41500  1.0000
  O   O12       1.0  0.89000  0.18500  0.58500  1.0000
  O   O13       1.0  0.75300  0.78100  0.60700  1.0000
  O   O14       1.0  0.07040  0.62800  0.62700  1.0000
  O   O15       1.0  0.44100  0.97500  0.65500  1.0000
  O   O16       1.0  0.42900  0.55500  0.73600  1.0000
  O   O17       1.0  0.76000  0.42900  0.74200  1.0000
  O   O18       1.0  0.22900  0.14800  0.76700  1.0000
  O   O19       1.0  0.91000  0.14000  0.86600  1.0000
  O   O20       1.0  0.13800  0.73000  0.89700  1.0000
  O   O21       1.0  0.61600  0.88800  0.96500  1.0000
  O   O22       1.0  0.70600  0.52500  0.97900  1.0000
