data_image0
_chemical_formula_structural       H12N2Nd2O20S2
_chemical_formula_sum              "H12 N2 Nd2 O20 S2"
_cell_length_a       5.98022
_cell_length_b       6.94315
_cell_length_c       8.76643
_cell_angle_alpha    90
_cell_angle_beta     93.8722
_cell_angle_gamma    90

_space_group_name_H-M_alt    "P 1"
_space_group_IT_number       1

loop_
  _space_group_symop_operation_xyz
  'x, y, z'

loop_
  _atom_site_type_symbol
  _atom_site_label
  _atom_site_symmetry_multiplicity
  _atom_site_fract_x
  _atom_site_fract_y
  _atom_site_fract_z
  _atom_site_occupancy
  H   H1        1.0  0.39000  0.58700  0.09410  1.0000
  H   H2        1.0  0.39000  0.91300  0.09410  1.0000
  H   H3        1.0  0.47100  0.05500  0.22800  1.0000
  H   H4        1.0  0.47100  0.44500  0.22800  1.0000
  H   H5        1.0  0.22500  0.63400  0.44700  1.0000
  H   H6        1.0  0.22500  0.86600  0.44700  1.0000
  H   H7        1.0  0.77500  0.13400  0.55300  1.0000
  H   H8        1.0  0.77500  0.36600  0.55300  1.0000
  H   H9        1.0  0.52900  0.55500  0.77200  1.0000
  H   H10       1.0  0.52900  0.94500  0.77200  1.0000
  H   H11       1.0  0.61000  0.08720  0.90600  1.0000
  H   H12       1.0  0.61000  0.41300  0.90600  1.0000
  N   N1        1.0  0.32700  0.25000  0.47200  1.0000
  N   N2        1.0  0.67300  0.75000  0.52800  1.0000
  Nd  Nd1       1.0  0.84600  0.75000  0.21300  1.0000
  Nd  Nd2       1.0  0.15400  0.25000  0.78700  1.0000
  O   O1        1.0  0.16200  0.75000  0.01800  1.0000
  O   O2        1.0  0.22500  0.25000  0.06120  1.0000
  O   O3        1.0  0.52000  0.54900  0.16200  1.0000
  O   O4        1.0  0.52000  0.95100  0.16200  1.0000
  O   O5        1.0  0.97100  0.07810  0.21700  1.0000
  O   O6        1.0  0.97100  0.42200  0.21700  1.0000
  O   O7        1.0  0.43300  0.25000  0.35400  1.0000
  O   O8        1.0  0.18100  0.75000  0.38800  1.0000
  O   O9        1.0  0.72600  0.59400  0.46300  1.0000
  O   O10       1.0  0.72600  0.90600  0.46300  1.0000
  O   O11       1.0  0.27400  0.09360  0.53700  1.0000
  O   O12       1.0  0.27400  0.40600  0.53700  1.0000
  O   O13       1.0  0.81900  0.25000  0.61200  1.0000
  O   O14       1.0  0.56700  0.75000  0.64600  1.0000
  O   O15       1.0  0.02870  0.57800  0.78300  1.0000
  O   O16       1.0  0.02870  0.92200  0.78300  1.0000
  O   O17       1.0  0.48000  0.04910  0.83800  1.0000
  O   O18       1.0  0.48000  0.45100  0.83800  1.0000
  O   O19       1.0  0.77500  0.75000  0.93900  1.0000
  O   O20       1.0  0.83800  0.25000  0.98200  1.0000
  S   S1        1.0  0.99800  0.25000  0.12100  1.0000
  S   S2        1.0  0.00177  0.75000  0.87900  1.0000
