data_image0
_chemical_formula_structural       Ce4Mg34
_chemical_formula_sum              "Ce4 Mg34"
_cell_length_a       10.3319
_cell_length_b       10.3317
_cell_length_c       10.146
_cell_angle_alpha    90
_cell_angle_beta     90
_cell_angle_gamma    120.001

_space_group_name_H-M_alt    "P 1"
_space_group_IT_number       1

loop_
  _space_group_symop_operation_xyz
  'x, y, z'

loop_
  _atom_site_type_symbol
  _atom_site_label
  _atom_site_symmetry_multiplicity
  _atom_site_fract_x
  _atom_site_fract_y
  _atom_site_fract_z
  _atom_site_occupancy
  Ce  Ce1       1.0  0.00000  0.00000  0.25000  1.0000
  Ce  Ce2       1.0  0.66700  0.33300  0.25000  1.0000
  Ce  Ce3       1.0  0.00000  0.00000  0.75000  1.0000
  Ce  Ce4       1.0  0.33300  0.66700  0.75000  1.0000
  Mg  Mg1       1.0  0.50000  0.00000  0.00000  1.0000
  Mg  Mg2       1.0  0.00000  0.50000  0.00000  1.0000
  Mg  Mg3       1.0  0.50000  0.50000  0.00000  1.0000
  Mg  Mg4       1.0  0.32500  0.16200  0.02180  1.0000
  Mg  Mg5       1.0  0.83800  0.16200  0.02180  1.0000
  Mg  Mg6       1.0  0.83800  0.67500  0.02180  1.0000
  Mg  Mg7       1.0  0.33300  0.66700  0.10100  1.0000
  Mg  Mg8       1.0  0.03590  0.36400  0.25000  1.0000
  Mg  Mg9       1.0  0.32800  0.36400  0.25000  1.0000
  Mg  Mg10      1.0  0.03590  0.67200  0.25000  1.0000
  Mg  Mg11      1.0  0.63600  0.67200  0.25000  1.0000
  Mg  Mg12      1.0  0.32800  0.96400  0.25000  1.0000
  Mg  Mg13      1.0  0.63600  0.96400  0.25000  1.0000
  Mg  Mg14      1.0  0.33300  0.66700  0.39900  1.0000
  Mg  Mg15      1.0  0.83800  0.67500  0.47800  1.0000
  Mg  Mg16      1.0  0.32500  0.16200  0.47800  1.0000
  Mg  Mg17      1.0  0.83800  0.16200  0.47800  1.0000
  Mg  Mg18      1.0  0.50000  0.00000  0.50000  1.0000
  Mg  Mg19      1.0  0.00000  0.50000  0.50000  1.0000
  Mg  Mg20      1.0  0.50000  0.50000  0.50000  1.0000
  Mg  Mg21      1.0  0.16200  0.83800  0.52200  1.0000
  Mg  Mg22      1.0  0.67500  0.83800  0.52200  1.0000
  Mg  Mg23      1.0  0.16200  0.32500  0.52200  1.0000
  Mg  Mg24      1.0  0.66700  0.33300  0.60100  1.0000
  Mg  Mg25      1.0  0.36400  0.03590  0.75000  1.0000
  Mg  Mg26      1.0  0.67200  0.03590  0.75000  1.0000
  Mg  Mg27      1.0  0.36400  0.32800  0.75000  1.0000
  Mg  Mg28      1.0  0.96400  0.32800  0.75000  1.0000
  Mg  Mg29      1.0  0.67200  0.63600  0.75000  1.0000
  Mg  Mg30      1.0  0.96400  0.63600  0.75000  1.0000
  Mg  Mg31      1.0  0.66700  0.33300  0.89900  1.0000
  Mg  Mg32      1.0  0.16200  0.32500  0.97800  1.0000
  Mg  Mg33      1.0  0.16200  0.83800  0.97800  1.0000
  Mg  Mg34      1.0  0.67500  0.83800  0.97800  1.0000
