data_image0
_chemical_formula_structural       Dy4Ga10Mn24
_chemical_formula_sum              "Dy4 Ga10 Mn24"
_cell_length_a       8.64281
_cell_length_b       8.668
_cell_length_c       8.6141
_cell_angle_alpha    90
_cell_angle_beta     90
_cell_angle_gamma    119.904

_space_group_name_H-M_alt    "P 1"
_space_group_IT_number       1

loop_
  _space_group_symop_operation_xyz
  'x, y, z'

loop_
  _atom_site_type_symbol
  _atom_site_label
  _atom_site_symmetry_multiplicity
  _atom_site_fract_x
  _atom_site_fract_y
  _atom_site_fract_z
  _atom_site_occupancy
  Dy  Dy1       1.0  0.66700  0.33400  0.25000  1.0000
  Dy  Dy2       1.0  0.00000  0.00000  0.25000  1.0000
  Dy  Dy3       1.0  0.00000  0.00011  0.75000  1.0000
  Dy  Dy4       1.0  0.33300  0.66600  0.75000  1.0000
  Ga  Ga1       1.0  0.50000  0.00000  0.00000  1.0000
  Ga  Ga2       1.0  0.00000  0.50000  0.00000  1.0000
  Ga  Ga3       1.0  0.50000  0.50000  0.00000  1.0000
  Ga  Ga4       1.0  0.33300  0.66700  0.10200  1.0000
  Ga  Ga5       1.0  0.33300  0.66700  0.39800  1.0000
  Ga  Ga6       1.0  0.50000  0.00000  0.50000  1.0000
  Ga  Ga7       1.0  0.00000  0.50000  0.50000  1.0000
  Ga  Ga8       1.0  0.50000  0.50000  0.50000  1.0000
  Ga  Ga9       1.0  0.66700  0.33300  0.60200  1.0000
  Ga  Ga10      1.0  0.66700  0.33300  0.89800  1.0000
  Mn  Mn1       1.0  0.30700  0.15300  0.00394  1.0000
  Mn  Mn2       1.0  0.84600  0.15300  0.00394  1.0000
  Mn  Mn3       1.0  0.84700  0.69400  0.00474  1.0000
  Mn  Mn4       1.0  0.03430  0.35500  0.25000  1.0000
  Mn  Mn5       1.0  0.32000  0.35500  0.25000  1.0000
  Mn  Mn6       1.0  0.03410  0.68000  0.25000  1.0000
  Mn  Mn7       1.0  0.64600  0.68000  0.25000  1.0000
  Mn  Mn8       1.0  0.31900  0.96600  0.25000  1.0000
  Mn  Mn9       1.0  0.64700  0.96600  0.25000  1.0000
  Mn  Mn10      1.0  0.84700  0.69400  0.49500  1.0000
  Mn  Mn11      1.0  0.30700  0.15300  0.49600  1.0000
  Mn  Mn12      1.0  0.84600  0.15300  0.49600  1.0000
  Mn  Mn13      1.0  0.15400  0.84700  0.50400  1.0000
  Mn  Mn14      1.0  0.69300  0.84700  0.50400  1.0000
  Mn  Mn15      1.0  0.15300  0.30600  0.50500  1.0000
  Mn  Mn16      1.0  0.35300  0.03420  0.75000  1.0000
  Mn  Mn17      1.0  0.68100  0.03420  0.75000  1.0000
  Mn  Mn18      1.0  0.35400  0.32000  0.75000  1.0000
  Mn  Mn19      1.0  0.96600  0.32000  0.75000  1.0000
  Mn  Mn20      1.0  0.68000  0.64500  0.75000  1.0000
  Mn  Mn21      1.0  0.96600  0.64500  0.75000  1.0000
  Mn  Mn22      1.0  0.15300  0.30600  0.99500  1.0000
  Mn  Mn23      1.0  0.15400  0.84700  0.99600  1.0000
  Mn  Mn24      1.0  0.69300  0.84700  0.99600  1.0000
