data_image0
_chemical_formula_structural       C2La18O8Sb10
_chemical_formula_sum              "C2 La18 O8 Sb10"
_cell_length_a       10.4986
_cell_length_b       10.4986
_cell_length_c       9.44879
_cell_angle_alpha    90
_cell_angle_beta     90
_cell_angle_gamma    90

_space_group_name_H-M_alt    "P 1"
_space_group_IT_number       1

loop_
  _space_group_symop_operation_xyz
  'x, y, z'

loop_
  _atom_site_type_symbol
  _atom_site_label
  _atom_site_symmetry_multiplicity
  _atom_site_fract_x
  _atom_site_fract_y
  _atom_site_fract_z
  _atom_site_occupancy
  C   C1        1.0  0.75000  0.75000  0.06910  1.0000
  C   C2        1.0  0.25000  0.25000  0.93100  1.0000
  La  La1       1.0  0.17100  0.02360  0.00218  1.0000
  La  La2       1.0  0.47600  0.17100  0.00218  1.0000
  La  La3       1.0  0.02360  0.32900  0.00218  1.0000
  La  La4       1.0  0.32900  0.47600  0.00218  1.0000
  La  La5       1.0  0.75000  0.75000  0.31900  1.0000
  La  La6       1.0  0.95400  0.14600  0.34000  1.0000
  La  La7       1.0  0.54600  0.35400  0.34000  1.0000
  La  La8       1.0  0.14600  0.54600  0.34000  1.0000
  La  La9       1.0  0.35400  0.95400  0.34000  1.0000
  La  La10      1.0  0.64600  0.04610  0.66000  1.0000
  La  La11      1.0  0.85400  0.45400  0.66000  1.0000
  La  La12      1.0  0.45400  0.64600  0.66000  1.0000
  La  La13      1.0  0.04610  0.85400  0.66000  1.0000
  La  La14      1.0  0.25000  0.25000  0.68100  1.0000
  La  La15      1.0  0.67100  0.52400  0.99800  1.0000
  La  La16      1.0  0.97600  0.67100  0.99800  1.0000
  La  La17      1.0  0.52400  0.82900  0.99800  1.0000
  La  La18      1.0  0.82900  0.97600  0.99800  1.0000
  O   O1        1.0  0.97500  0.12900  0.09710  1.0000
  O   O2        1.0  0.52500  0.37100  0.09710  1.0000
  O   O3        1.0  0.12900  0.52500  0.09710  1.0000
  O   O4        1.0  0.37100  0.97500  0.09710  1.0000
  O   O5        1.0  0.62900  0.02480  0.90300  1.0000
  O   O6        1.0  0.87100  0.47500  0.90300  1.0000
  O   O7        1.0  0.47500  0.62900  0.90300  1.0000
  O   O8        1.0  0.02480  0.87100  0.90300  1.0000
  Sb  Sb1       1.0  0.65200  0.05560  0.30300  1.0000
  Sb  Sb2       1.0  0.84800  0.44400  0.30300  1.0000
  Sb  Sb3       1.0  0.44400  0.65200  0.30300  1.0000
  Sb  Sb4       1.0  0.05560  0.84800  0.30300  1.0000
  Sb  Sb5       1.0  0.25000  0.25000  0.31300  1.0000
  Sb  Sb6       1.0  0.75000  0.75000  0.68700  1.0000
  Sb  Sb7       1.0  0.94400  0.15200  0.69700  1.0000
  Sb  Sb8       1.0  0.55600  0.34800  0.69700  1.0000
  Sb  Sb9       1.0  0.15200  0.55600  0.69700  1.0000
  Sb  Sb10      1.0  0.34800  0.94400  0.69700  1.0000
