data_image0
_chemical_formula_structural       Cr4H16N4O14
_chemical_formula_sum              "Cr4 H16 N4 O14"
_cell_length_a       7.30313
_cell_length_b       7.41908
_cell_length_c       7.48291
_cell_angle_alpha    92.6259
_cell_angle_beta     90
_cell_angle_gamma    119.484

_space_group_name_H-M_alt    "P 1"
_space_group_IT_number       1

loop_
  _space_group_symop_operation_xyz
  'x, y, z'

loop_
  _atom_site_type_symbol
  _atom_site_label
  _atom_site_symmetry_multiplicity
  _atom_site_fract_x
  _atom_site_fract_y
  _atom_site_fract_z
  _atom_site_occupancy
  Cr  Cr1       1.0  0.23800  0.79900  0.13600  1.0000
  Cr  Cr2       1.0  0.43800  0.20100  0.36400  1.0000
  Cr  Cr3       1.0  0.56200  0.79900  0.63600  1.0000
  Cr  Cr4       1.0  0.76200  0.20100  0.86400  1.0000
  H   H1        1.0  0.70600  0.77400  0.04580  1.0000
  H   H2        1.0  0.56700  0.56300  0.17000  1.0000
  H   H3        1.0  0.83300  0.69000  0.18200  1.0000
  H   H4        1.0  0.90100  0.19800  0.22600  1.0000
  H   H5        1.0  0.70300  0.80200  0.27400  1.0000
  H   H6        1.0  0.14300  0.31000  0.31800  1.0000
  H   H7        1.0  0.00373  0.43700  0.33000  1.0000
  H   H8        1.0  0.93200  0.22600  0.45400  1.0000
  H   H9        1.0  0.06770  0.77400  0.54600  1.0000
  H   H10       1.0  0.99600  0.56300  0.67000  1.0000
  H   H11       1.0  0.85700  0.69000  0.68200  1.0000
  H   H12       1.0  0.29700  0.19800  0.72600  1.0000
  H   H13       1.0  0.09890  0.80200  0.77400  1.0000
  H   H14       1.0  0.16700  0.31000  0.81800  1.0000
  H   H15       1.0  0.43300  0.43700  0.83000  1.0000
  H   H16       1.0  0.29400  0.22600  0.95400  1.0000
  N   N1        1.0  0.70100  0.70800  0.16500  1.0000
  N   N2        1.0  0.99300  0.29200  0.33500  1.0000
  N   N3        1.0  0.00681  0.70800  0.66500  1.0000
  N   N4        1.0  0.29900  0.29200  0.83500  1.0000
  O   O1        1.0  0.84800  0.09720  0.00603  1.0000
  O   O2        1.0  0.29100  0.63500  0.03550  1.0000
  O   O3        1.0  0.36800  0.31900  0.22000  1.0000
  O   O4        1.0  0.46800  0.00000  0.25000  1.0000
  O   O5        1.0  0.04990  0.68100  0.28000  1.0000
  O   O6        1.0  0.65600  0.36500  0.46400  1.0000
  O   O7        1.0  0.75000  0.90300  0.49400  1.0000
  O   O8        1.0  0.25000  0.09720  0.50600  1.0000
  O   O9        1.0  0.34400  0.63500  0.53500  1.0000
  O   O10       1.0  0.95000  0.31900  0.72000  1.0000
  O   O11       1.0  0.53200  0.00000  0.75000  1.0000
  O   O12       1.0  0.63200  0.68100  0.78000  1.0000
  O   O13       1.0  0.70900  0.36500  0.96500  1.0000
  O   O14       1.0  0.15200  0.90300  0.99400  1.0000
