data_image0
_chemical_formula_structural       Ce10Rh8Sn20
_chemical_formula_sum              "Ce10 Rh8 Sn20"
_cell_length_a       14.2342
_cell_length_b       14.2342
_cell_length_c       4.68426
_cell_angle_alpha    90
_cell_angle_beta     90
_cell_angle_gamma    90

_space_group_name_H-M_alt    "P 1"
_space_group_IT_number       1

loop_
  _space_group_symop_operation_xyz
  'x, y, z'

loop_
  _atom_site_type_symbol
  _atom_site_label
  _atom_site_symmetry_multiplicity
  _atom_site_fract_x
  _atom_site_fract_y
  _atom_site_fract_z
  _atom_site_occupancy
  Ce  Ce1       1.0  0.00000  0.00000  0.00000  1.0000
  Ce  Ce2       1.0  0.50000  0.50000  0.00000  1.0000
  Ce  Ce3       1.0  0.61100  0.11100  0.50000  1.0000
  Ce  Ce4       1.0  0.32200  0.17800  0.50000  1.0000
  Ce  Ce5       1.0  0.82200  0.32200  0.50000  1.0000
  Ce  Ce6       1.0  0.11100  0.38900  0.50000  1.0000
  Ce  Ce7       1.0  0.88900  0.61100  0.50000  1.0000
  Ce  Ce8       1.0  0.17800  0.67800  0.50000  1.0000
  Ce  Ce9       1.0  0.67800  0.82200  0.50000  1.0000
  Ce  Ce10      1.0  0.38900  0.88900  0.50000  1.0000
  Rh  Rh1       1.0  0.24600  0.02680  0.00000  1.0000
  Rh  Rh2       1.0  0.97300  0.24600  0.00000  1.0000
  Rh  Rh3       1.0  0.47300  0.25400  0.00000  1.0000
  Rh  Rh4       1.0  0.74600  0.47300  0.00000  1.0000
  Rh  Rh5       1.0  0.25400  0.52700  0.00000  1.0000
  Rh  Rh6       1.0  0.52700  0.74600  0.00000  1.0000
  Rh  Rh7       1.0  0.02680  0.75400  0.00000  1.0000
  Rh  Rh8       1.0  0.75400  0.97300  0.00000  1.0000
  Sn  Sn1       1.0  0.43000  0.07040  0.00000  1.0000
  Sn  Sn2       1.0  0.80300  0.15400  0.00000  1.0000
  Sn  Sn3       1.0  0.15400  0.19700  0.00000  1.0000
  Sn  Sn4       1.0  0.65400  0.30300  0.00000  1.0000
  Sn  Sn5       1.0  0.30300  0.34600  0.00000  1.0000
  Sn  Sn6       1.0  0.93000  0.43000  0.00000  1.0000
  Sn  Sn7       1.0  0.07040  0.57000  0.00000  1.0000
  Sn  Sn8       1.0  0.69700  0.65400  0.00000  1.0000
  Sn  Sn9       1.0  0.34600  0.69700  0.00000  1.0000
  Sn  Sn10      1.0  0.84600  0.80300  0.00000  1.0000
  Sn  Sn11      1.0  0.19700  0.84600  0.00000  1.0000
  Sn  Sn12      1.0  0.57000  0.93000  0.00000  1.0000
  Sn  Sn13      1.0  0.16400  0.00227  0.50000  1.0000
  Sn  Sn14      1.0  0.99800  0.16400  0.50000  1.0000
  Sn  Sn15      1.0  0.49800  0.33600  0.50000  1.0000
  Sn  Sn16      1.0  0.66400  0.49800  0.50000  1.0000
  Sn  Sn17      1.0  0.33600  0.50200  0.50000  1.0000
  Sn  Sn18      1.0  0.50200  0.66400  0.50000  1.0000
  Sn  Sn19      1.0  0.00227  0.83600  0.50000  1.0000
  Sn  Sn20      1.0  0.83600  0.99800  0.50000  1.0000
