data_image0
_chemical_formula_structural       B12Gd2Ni24
_chemical_formula_sum              "B12 Gd2 Ni24"
_cell_length_a       6.04079
_cell_length_b       6.04079
_cell_length_c       11.0042
_cell_angle_alpha    90
_cell_angle_beta     90
_cell_angle_gamma    75.243

_space_group_name_H-M_alt    "P 1"
_space_group_IT_number       1

loop_
  _space_group_symop_operation_xyz
  'x, y, z'

loop_
  _atom_site_type_symbol
  _atom_site_label
  _atom_site_symmetry_multiplicity
  _atom_site_fract_x
  _atom_site_fract_y
  _atom_site_fract_z
  _atom_site_occupancy
  B   B1        1.0  0.40100  0.01160  0.12300  1.0000
  B   B2        1.0  0.98800  0.59900  0.12300  1.0000
  B   B3        1.0  0.48800  0.51200  0.15400  1.0000
  B   B4        1.0  0.83600  0.16400  0.33800  1.0000
  B   B5        1.0  0.32600  0.24400  0.38500  1.0000
  B   B6        1.0  0.75600  0.67400  0.38500  1.0000
  B   B7        1.0  0.01160  0.40100  0.62300  1.0000
  B   B8        1.0  0.59900  0.98800  0.62300  1.0000
  B   B9        1.0  0.51200  0.48800  0.65400  1.0000
  B   B10       1.0  0.16400  0.83600  0.83800  1.0000
  B   B11       1.0  0.24400  0.32600  0.88500  1.0000
  B   B12       1.0  0.67400  0.75600  0.88500  1.0000
  Gd  Gd1       1.0  0.16600  0.83400  0.49600  1.0000
  Gd  Gd2       1.0  0.83400  0.16600  0.99600  1.0000
  Ni  Ni1       1.0  0.27100  0.34100  0.06780  1.0000
  Ni  Ni2       1.0  0.65900  0.72900  0.06780  1.0000
  Ni  Ni3       1.0  0.21900  0.78100  0.09930  1.0000
  Ni  Ni4       1.0  0.54300  0.19600  0.23400  1.0000
  Ni  Ni5       1.0  0.80400  0.45700  0.23400  1.0000
  Ni  Ni6       1.0  0.14600  0.11800  0.25600  1.0000
  Ni  Ni7       1.0  0.88200  0.85400  0.25600  1.0000
  Ni  Ni8       1.0  0.21200  0.52600  0.27500  1.0000
  Ni  Ni9       1.0  0.47400  0.78800  0.27500  1.0000
  Ni  Ni10      1.0  0.56600  0.43400  0.41900  1.0000
  Ni  Ni11      1.0  0.63000  0.00429  0.43700  1.0000
  Ni  Ni12      1.0  0.99600  0.37000  0.43700  1.0000
  Ni  Ni13      1.0  0.34100  0.27100  0.56800  1.0000
  Ni  Ni14      1.0  0.72900  0.65900  0.56800  1.0000
  Ni  Ni15      1.0  0.78100  0.21900  0.59900  1.0000
  Ni  Ni16      1.0  0.19600  0.54300  0.73400  1.0000
  Ni  Ni17      1.0  0.45700  0.80400  0.73400  1.0000
  Ni  Ni18      1.0  0.11800  0.14600  0.75600  1.0000
  Ni  Ni19      1.0  0.85400  0.88200  0.75600  1.0000
  Ni  Ni20      1.0  0.52600  0.21200  0.77500  1.0000
  Ni  Ni21      1.0  0.78800  0.47400  0.77500  1.0000
  Ni  Ni22      1.0  0.43400  0.56600  0.91900  1.0000
  Ni  Ni23      1.0  0.00429  0.63000  0.93700  1.0000
  Ni  Ni24      1.0  0.37000  0.99600  0.93700  1.0000
