data_image0
_chemical_formula_structural       Be2MgN2
_chemical_formula_sum              "Be2 Mg1 N2"
_cell_length_a       2.9371
_cell_length_b       2.9371
_cell_length_c       5.05923
_cell_angle_alpha    90
_cell_angle_beta     90
_cell_angle_gamma    120

_space_group_name_H-M_alt    "P 1"
_space_group_IT_number       1

loop_
  _space_group_symop_operation_xyz
  'x, y, z'

loop_
  _atom_site_type_symbol
  _atom_site_label
  _atom_site_symmetry_multiplicity
  _atom_site_fract_x
  _atom_site_fract_y
  _atom_site_fract_z
  _atom_site_occupancy
  Be  Be1       1.0  0.66700  0.33300  0.37100  1.0000
  Be  Be2       1.0  0.33300  0.66700  0.62900  1.0000
  Mg  Mg1       1.0  0.00000  0.00000  0.00000  1.0000
  N   N1        1.0  0.33300  0.66700  0.27700  1.0000
  N   N2        1.0  0.66700  0.33300  0.72300  1.0000
