data_image0
_chemical_formula_structural       Ag4Mo2O24Te8
_chemical_formula_sum              "Ag4 Mo2 O24 Te8"
_cell_length_a       5.72959
_cell_length_b       9.2214
_cell_length_c       11.2914
_cell_angle_alpha    104.631
_cell_angle_beta     90
_cell_angle_gamma    108.099

_space_group_name_H-M_alt    "P 1"
_space_group_IT_number       1

loop_
  _space_group_symop_operation_xyz
  'x, y, z'

loop_
  _atom_site_type_symbol
  _atom_site_label
  _atom_site_symmetry_multiplicity
  _atom_site_fract_x
  _atom_site_fract_y
  _atom_site_fract_z
  _atom_site_occupancy
  Ag  Ag1       1.0  0.50900  0.56600  0.22300  1.0000
  Ag  Ag2       1.0  0.94400  0.43400  0.27700  1.0000
  Ag  Ag3       1.0  0.05650  0.56600  0.72300  1.0000
  Ag  Ag4       1.0  0.49100  0.43400  0.77700  1.0000
  Mo  Mo1       1.0  0.83300  0.00000  0.25000  1.0000
  Mo  Mo2       1.0  0.16700  0.00000  0.75000  1.0000
  O   O1        1.0  0.81300  0.48700  0.06850  1.0000
  O   O2        1.0  0.16800  0.31500  0.08890  1.0000
  O   O3        1.0  0.13200  0.01450  0.13000  1.0000
  O   O4        1.0  0.65700  0.03760  0.13800  1.0000
  O   O5        1.0  0.78900  0.78100  0.16600  1.0000
  O   O6        1.0  0.20000  0.69300  0.24400  1.0000
  O   O7        1.0  0.50800  0.30700  0.25600  1.0000
  O   O8        1.0  0.00789  0.21900  0.33400  1.0000
  O   O9        1.0  0.62000  0.96200  0.36200  1.0000
  O   O10       1.0  0.11800  0.98600  0.37000  1.0000
  O   O11       1.0  0.85300  0.68500  0.41100  1.0000
  O   O12       1.0  0.32600  0.51300  0.43200  1.0000
  O   O13       1.0  0.67400  0.48700  0.56800  1.0000
  O   O14       1.0  0.14700  0.31500  0.58900  1.0000
  O   O15       1.0  0.88200  0.01450  0.63000  1.0000
  O   O16       1.0  0.38000  0.03760  0.63800  1.0000
  O   O17       1.0  0.99200  0.78100  0.66600  1.0000
  O   O18       1.0  0.49200  0.69300  0.74400  1.0000
  O   O19       1.0  0.80000  0.30700  0.75600  1.0000
  O   O20       1.0  0.21100  0.21900  0.83400  1.0000
  O   O21       1.0  0.34300  0.96200  0.86200  1.0000
  O   O22       1.0  0.86800  0.98600  0.87000  1.0000
  O   O23       1.0  0.83200  0.68500  0.91100  1.0000
  O   O24       1.0  0.18700  0.51300  0.93200  1.0000
  Te  Te1       1.0  0.03020  0.69100  0.06410  1.0000
  Te  Te2       1.0  0.37800  0.18100  0.09310  1.0000
  Te  Te3       1.0  0.19700  0.81900  0.40700  1.0000
  Te  Te4       1.0  0.34000  0.30900  0.43600  1.0000
  Te  Te5       1.0  0.66000  0.69100  0.56400  1.0000
  Te  Te6       1.0  0.80300  0.18100  0.59300  1.0000
  Te  Te7       1.0  0.62200  0.81900  0.90700  1.0000
  Te  Te8       1.0  0.97000  0.30900  0.93600  1.0000
