data_image0
_chemical_formula_structural       Ge3IrSr
_chemical_formula_sum              "Ge3 Ir1 Sr1"
_cell_length_a       4.50586
_cell_length_b       4.50586
_cell_length_c       6.01102
_cell_angle_alpha    112.012
_cell_angle_beta     112.012
_cell_angle_gamma    90

_space_group_name_H-M_alt    "P 1"
_space_group_IT_number       1

loop_
  _space_group_symop_operation_xyz
  'x, y, z'

loop_
  _atom_site_type_symbol
  _atom_site_label
  _atom_site_symmetry_multiplicity
  _atom_site_fract_x
  _atom_site_fract_y
  _atom_site_fract_z
  _atom_site_occupancy
  Ge  Ge1       1.0  0.75400  0.25400  0.50800  1.0000
  Ge  Ge2       1.0  0.25400  0.75400  0.50800  1.0000
  Ge  Ge3       1.0  0.41200  0.41200  0.82300  1.0000
  Ir  Ir1       1.0  0.64900  0.64900  0.29900  1.0000
  Sr  Sr1       1.0  0.00002  0.00002  0.00005  1.0000
