data_image0
_chemical_formula_structural       IrLaSi3
_chemical_formula_sum              "Ir1 La1 Si3"
_cell_length_a       4.2985
_cell_length_b       4.2985
_cell_length_c       5.80651
_cell_angle_alpha    111.725
_cell_angle_beta     111.725
_cell_angle_gamma    90

_space_group_name_H-M_alt    "P 1"
_space_group_IT_number       1

loop_
  _space_group_symop_operation_xyz
  'x, y, z'

loop_
  _atom_site_type_symbol
  _atom_site_label
  _atom_site_symmetry_multiplicity
  _atom_site_fract_x
  _atom_site_fract_y
  _atom_site_fract_z
  _atom_site_occupancy
  Ir  Ir1       1.0  0.00022  0.00022  0.00045  1.0000
  La  La1       1.0  0.34500  0.34500  0.69100  1.0000
  Si  Si1       1.0  0.60900  0.10900  0.21800  1.0000
  Si  Si2       1.0  0.10900  0.60900  0.21800  1.0000
  Si  Si3       1.0  0.75900  0.75900  0.51900  1.0000
