data_image0
_chemical_formula_structural       Cs3In9
_chemical_formula_sum              "Cs3 In9"
_cell_length_a       7.11534
_cell_length_b       7.11534
_cell_length_c       9.86262
_cell_angle_alpha    111.145
_cell_angle_beta     111.145
_cell_angle_gamma    90

_space_group_name_H-M_alt    "P 1"
_space_group_IT_number       1

loop_
  _space_group_symop_operation_xyz
  'x, y, z'

loop_
  _atom_site_type_symbol
  _atom_site_label
  _atom_site_symmetry_multiplicity
  _atom_site_fract_x
  _atom_site_fract_y
  _atom_site_fract_z
  _atom_site_occupancy
  Cs  Cs1       1.0  0.00000  0.00000  0.00000  1.0000
  Cs  Cs2       1.0  0.62800  0.12800  0.25600  1.0000
  Cs  Cs3       1.0  0.87200  0.37200  0.74400  1.0000
  In  In1       1.0  0.50000  0.50000  0.00000  1.0000
  In  In2       1.0  0.30600  0.60800  0.21600  1.0000
  In  In3       1.0  0.91100  0.60800  0.21600  1.0000
  In  In4       1.0  0.22100  0.01450  0.44100  1.0000
  In  In5       1.0  0.22100  0.42700  0.44100  1.0000
  In  In6       1.0  0.57300  0.77900  0.55900  1.0000
  In  In7       1.0  0.98500  0.77900  0.55900  1.0000
  In  In8       1.0  0.39200  0.08910  0.78400  1.0000
  In  In9       1.0  0.39200  0.69400  0.78400  1.0000
