data_image0
_chemical_formula_structural       Ce4Ni30Si4
_chemical_formula_sum              "Ce4 Ni30 Si4"
_cell_length_a       8.32471
_cell_length_b       8.32491
_cell_length_c       8.21206
_cell_angle_alpha    90
_cell_angle_beta     90
_cell_angle_gamma    119.999

_space_group_name_H-M_alt    "P 1"
_space_group_IT_number       1

loop_
  _space_group_symop_operation_xyz
  'x, y, z'

loop_
  _atom_site_type_symbol
  _atom_site_label
  _atom_site_symmetry_multiplicity
  _atom_site_fract_x
  _atom_site_fract_y
  _atom_site_fract_z
  _atom_site_occupancy
  Ce  Ce1       1.0  0.00000  0.00000  0.25000  1.0000
  Ce  Ce2       1.0  0.66700  0.33300  0.25000  1.0000
  Ce  Ce3       1.0  0.00000  0.00000  0.75000  1.0000
  Ce  Ce4       1.0  0.33300  0.66700  0.75000  1.0000
  Ni  Ni1       1.0  0.50000  0.00000  0.00000  1.0000
  Ni  Ni2       1.0  0.00000  0.50000  0.00000  1.0000
  Ni  Ni3       1.0  0.50000  0.50000  0.00000  1.0000
  Ni  Ni4       1.0  0.33700  0.16900  0.01600  1.0000
  Ni  Ni5       1.0  0.83100  0.16900  0.01600  1.0000
  Ni  Ni6       1.0  0.83100  0.66300  0.01600  1.0000
  Ni  Ni7       1.0  0.04600  0.37600  0.25000  1.0000
  Ni  Ni8       1.0  0.33000  0.37600  0.25000  1.0000
  Ni  Ni9       1.0  0.04600  0.67000  0.25000  1.0000
  Ni  Ni10      1.0  0.62400  0.67000  0.25000  1.0000
  Ni  Ni11      1.0  0.33000  0.95400  0.25000  1.0000
  Ni  Ni12      1.0  0.62400  0.95400  0.25000  1.0000
  Ni  Ni13      1.0  0.83100  0.66300  0.48400  1.0000
  Ni  Ni14      1.0  0.33700  0.16900  0.48400  1.0000
  Ni  Ni15      1.0  0.83100  0.16900  0.48400  1.0000
  Ni  Ni16      1.0  0.50000  0.00000  0.50000  1.0000
  Ni  Ni17      1.0  0.00000  0.50000  0.50000  1.0000
  Ni  Ni18      1.0  0.50000  0.50000  0.50000  1.0000
  Ni  Ni19      1.0  0.16900  0.83100  0.51600  1.0000
  Ni  Ni20      1.0  0.66300  0.83100  0.51600  1.0000
  Ni  Ni21      1.0  0.16900  0.33700  0.51600  1.0000
  Ni  Ni22      1.0  0.37600  0.04600  0.75000  1.0000
  Ni  Ni23      1.0  0.67000  0.04600  0.75000  1.0000
  Ni  Ni24      1.0  0.37600  0.33000  0.75000  1.0000
  Ni  Ni25      1.0  0.95400  0.33000  0.75000  1.0000
  Ni  Ni26      1.0  0.67000  0.62400  0.75000  1.0000
  Ni  Ni27      1.0  0.95400  0.62400  0.75000  1.0000
  Ni  Ni28      1.0  0.16900  0.33700  0.98400  1.0000
  Ni  Ni29      1.0  0.16900  0.83100  0.98400  1.0000
  Ni  Ni30      1.0  0.66300  0.83100  0.98400  1.0000
  Si  Si1       1.0  0.33300  0.66700  0.10400  1.0000
  Si  Si2       1.0  0.33300  0.66700  0.39600  1.0000
  Si  Si3       1.0  0.66700  0.33300  0.60400  1.0000
  Si  Si4       1.0  0.66700  0.33300  0.89600  1.0000
