data_image0
_chemical_formula_structural       Ge2Pt6
_chemical_formula_sum              "Ge2 Pt6"
_cell_length_a       5.57898
_cell_length_b       5.57898
_cell_length_c       5.62515
_cell_angle_alpha    119.649
_cell_angle_beta     60.3511
_cell_angle_gamma    90.0077

_space_group_name_H-M_alt    "P 1"
_space_group_IT_number       1

loop_
  _space_group_symop_operation_xyz
  'x, y, z'

loop_
  _atom_site_type_symbol
  _atom_site_label
  _atom_site_symmetry_multiplicity
  _atom_site_fract_x
  _atom_site_fract_y
  _atom_site_fract_z
  _atom_site_occupancy
  Ge  Ge1       1.0  0.25000  0.75000  0.50000  1.0000
  Ge  Ge2       1.0  0.75000  0.25000  0.50000  1.0000
  Pt  Pt1       1.0  0.69600  0.30400  0.99900  1.0000
  Pt  Pt2       1.0  0.19500  0.19500  0.00000  1.0000
  Pt  Pt3       1.0  0.80500  0.80500  0.00000  1.0000
  Pt  Pt4       1.0  0.30400  0.69600  0.00070  1.0000
  Pt  Pt5       1.0  0.25000  0.25000  0.50000  1.0000
  Pt  Pt6       1.0  0.75000  0.75000  0.50000  1.0000
