data_image0
_chemical_formula_structural       AlO2
_chemical_formula_sum              "Al1 O2"
_cell_length_a       2.89314
_cell_length_b       2.89314
_cell_length_c       4.26438
_cell_angle_alpha    70.1706
_cell_angle_beta     109.829
_cell_angle_gamma    120

_space_group_name_H-M_alt    "P 1"
_space_group_IT_number       1

loop_
  _space_group_symop_operation_xyz
  'x, y, z'

loop_
  _atom_site_type_symbol
  _atom_site_label
  _atom_site_symmetry_multiplicity
  _atom_site_fract_x
  _atom_site_fract_y
  _atom_site_fract_z
  _atom_site_occupancy
  Al  Al1       1.0  0.50000  0.50000  0.50000  1.0000
  O   O1        1.0  0.75700  0.24300  0.27100  1.0000
  O   O2        1.0  0.24300  0.75700  0.72900  1.0000
