data_image0
_chemical_formula_structural       Cu10Ni24Y4
_chemical_formula_sum              "Cu10 Ni24 Y4"
_cell_length_a       8.32379
_cell_length_b       8.32202
_cell_length_c       8.09015
_cell_angle_alpha    90
_cell_angle_beta     90
_cell_angle_gamma    120.007

_space_group_name_H-M_alt    "P 1"
_space_group_IT_number       1

loop_
  _space_group_symop_operation_xyz
  'x, y, z'

loop_
  _atom_site_type_symbol
  _atom_site_label
  _atom_site_symmetry_multiplicity
  _atom_site_fract_x
  _atom_site_fract_y
  _atom_site_fract_z
  _atom_site_occupancy
  Cu  Cu1       1.0  0.50000  0.00000  0.00000  1.0000
  Cu  Cu2       1.0  0.00000  0.50000  0.00000  1.0000
  Cu  Cu3       1.0  0.50000  0.50000  0.00000  1.0000
  Cu  Cu4       1.0  0.33300  0.66700  0.10400  1.0000
  Cu  Cu5       1.0  0.33300  0.66700  0.39600  1.0000
  Cu  Cu6       1.0  0.50000  0.00000  0.50000  1.0000
  Cu  Cu7       1.0  0.00000  0.50000  0.50000  1.0000
  Cu  Cu8       1.0  0.50000  0.50000  0.50000  1.0000
  Cu  Cu9       1.0  0.66700  0.33300  0.60400  1.0000
  Cu  Cu10      1.0  0.66700  0.33300  0.89600  1.0000
  Ni  Ni1       1.0  0.83600  0.67100  0.02100  1.0000
  Ni  Ni2       1.0  0.32900  0.16400  0.02100  1.0000
  Ni  Ni3       1.0  0.83600  0.16400  0.02100  1.0000
  Ni  Ni4       1.0  0.04030  0.36600  0.25000  1.0000
  Ni  Ni5       1.0  0.32600  0.36600  0.25000  1.0000
  Ni  Ni6       1.0  0.04030  0.67400  0.25000  1.0000
  Ni  Ni7       1.0  0.63400  0.67400  0.25000  1.0000
  Ni  Ni8       1.0  0.32600  0.96000  0.25000  1.0000
  Ni  Ni9       1.0  0.63400  0.96000  0.25000  1.0000
  Ni  Ni10      1.0  0.32900  0.16400  0.47900  1.0000
  Ni  Ni11      1.0  0.83600  0.16400  0.47900  1.0000
  Ni  Ni12      1.0  0.83600  0.67100  0.47900  1.0000
  Ni  Ni13      1.0  0.16400  0.32900  0.52100  1.0000
  Ni  Ni14      1.0  0.16400  0.83600  0.52100  1.0000
  Ni  Ni15      1.0  0.67100  0.83600  0.52100  1.0000
  Ni  Ni16      1.0  0.36600  0.04030  0.75000  1.0000
  Ni  Ni17      1.0  0.67400  0.04030  0.75000  1.0000
  Ni  Ni18      1.0  0.36600  0.32600  0.75000  1.0000
  Ni  Ni19      1.0  0.96000  0.32600  0.75000  1.0000
  Ni  Ni20      1.0  0.67400  0.63400  0.75000  1.0000
  Ni  Ni21      1.0  0.96000  0.63400  0.75000  1.0000
  Ni  Ni22      1.0  0.16400  0.83600  0.97900  1.0000
  Ni  Ni23      1.0  0.67100  0.83600  0.97900  1.0000
  Ni  Ni24      1.0  0.16400  0.32900  0.97900  1.0000
  Y   Y1        1.0  0.00000  0.00000  0.25000  1.0000
  Y   Y2        1.0  0.66700  0.33300  0.25000  1.0000
  Y   Y3        1.0  0.00000  0.00000  0.75000  1.0000
  Y   Y4        1.0  0.33300  0.66700  0.75000  1.0000
