data_image0
_chemical_formula_structural       Cu2Na4O4
_chemical_formula_sum              "Cu2 Na4 O4"
_cell_length_a       5.60626
_cell_length_b       2.90406
_cell_length_c       8.03315
_cell_angle_alpha    90
_cell_angle_beta     108.673
_cell_angle_gamma    90

_space_group_name_H-M_alt    "P 1"
_space_group_IT_number       1

loop_
  _space_group_symop_operation_xyz
  'x, y, z'

loop_
  _atom_site_type_symbol
  _atom_site_label
  _atom_site_symmetry_multiplicity
  _atom_site_fract_x
  _atom_site_fract_y
  _atom_site_fract_z
  _atom_site_occupancy
  Cu  Cu1       1.0  0.97500  0.25000  0.23800  1.0000
  Cu  Cu2       1.0  0.02530  0.75000  0.76200  1.0000
  Na  Na1       1.0  0.38200  0.25000  0.12100  1.0000
  Na  Na2       1.0  0.68300  0.75000  0.44300  1.0000
  Na  Na3       1.0  0.31700  0.25000  0.55700  1.0000
  Na  Na4       1.0  0.61800  0.75000  0.87900  1.0000
  O   O1        1.0  0.73400  0.75000  0.17700  1.0000
  O   O2        1.0  0.23100  0.75000  0.31600  1.0000
  O   O3        1.0  0.76900  0.25000  0.68400  1.0000
  O   O4        1.0  0.26600  0.25000  0.82300  1.0000
