data_image0
_chemical_formula_structural       Ge2NaO6
_chemical_formula_sum              "Ge2 Na1 O6"
_cell_length_a       5.31077
_cell_length_b       5.31077
_cell_length_c       3.95876
_cell_angle_alpha    89.4595
_cell_angle_beta     89.4595
_cell_angle_gamma    120.253

_space_group_name_H-M_alt    "P 1"
_space_group_IT_number       1

loop_
  _space_group_symop_operation_xyz
  'x, y, z'

loop_
  _atom_site_type_symbol
  _atom_site_label
  _atom_site_symmetry_multiplicity
  _atom_site_fract_x
  _atom_site_fract_y
  _atom_site_fract_z
  _atom_site_occupancy
  Ge  Ge1       1.0  0.83100  0.16900  0.00000  1.0000
  Ge  Ge2       1.0  0.13300  0.86700  0.00000  1.0000
  Na  Na1       1.0  0.48200  0.51800  0.50000  1.0000
  O   O1        1.0  0.14700  0.18200  0.20400  1.0000
  O   O2        1.0  0.48900  0.96400  0.27700  1.0000
  O   O3        1.0  0.92900  0.52400  0.27700  1.0000
  O   O4        1.0  0.47600  0.07140  0.72300  1.0000
  O   O5        1.0  0.03590  0.51100  0.72300  1.0000
  O   O6        1.0  0.81800  0.85300  0.79600  1.0000
