data_image0
_chemical_formula_structural       Er10Ir8Si20
_chemical_formula_sum              "Er10 Ir8 Si20"
_cell_length_a       12.608
_cell_length_b       12.608
_cell_length_c       4.23703
_cell_angle_alpha    90
_cell_angle_beta     90
_cell_angle_gamma    90

_space_group_name_H-M_alt    "P 1"
_space_group_IT_number       1

loop_
  _space_group_symop_operation_xyz
  'x, y, z'

loop_
  _atom_site_type_symbol
  _atom_site_label
  _atom_site_symmetry_multiplicity
  _atom_site_fract_x
  _atom_site_fract_y
  _atom_site_fract_z
  _atom_site_occupancy
  Er  Er1       1.0  0.00000  0.00000  0.00000  1.0000
  Er  Er2       1.0  0.50000  0.50000  0.00000  1.0000
  Er  Er3       1.0  0.61500  0.11500  0.50000  1.0000
  Er  Er4       1.0  0.32500  0.17500  0.50000  1.0000
  Er  Er5       1.0  0.82500  0.32500  0.50000  1.0000
  Er  Er6       1.0  0.11500  0.38500  0.50000  1.0000
  Er  Er7       1.0  0.88500  0.61500  0.50000  1.0000
  Er  Er8       1.0  0.17500  0.67500  0.50000  1.0000
  Er  Er9       1.0  0.67500  0.82500  0.50000  1.0000
  Er  Er10      1.0  0.38500  0.88500  0.50000  1.0000
  Ir  Ir1       1.0  0.24500  0.01960  0.00000  1.0000
  Ir  Ir2       1.0  0.98000  0.24500  0.00000  1.0000
  Ir  Ir3       1.0  0.48000  0.25500  0.00000  1.0000
  Ir  Ir4       1.0  0.74500  0.48000  0.00000  1.0000
  Ir  Ir5       1.0  0.25500  0.52000  0.00000  1.0000
  Ir  Ir6       1.0  0.52000  0.74500  0.00000  1.0000
  Ir  Ir7       1.0  0.01960  0.75500  0.00000  1.0000
  Ir  Ir8       1.0  0.75500  0.98000  0.00000  1.0000
  Si  Si1       1.0  0.43400  0.06620  0.00000  1.0000
  Si  Si2       1.0  0.79900  0.16400  0.00000  1.0000
  Si  Si3       1.0  0.16400  0.20100  0.00000  1.0000
  Si  Si4       1.0  0.66400  0.29900  0.00000  1.0000
  Si  Si5       1.0  0.29900  0.33600  0.00000  1.0000
  Si  Si6       1.0  0.93400  0.43400  0.00000  1.0000
  Si  Si7       1.0  0.06620  0.56600  0.00000  1.0000
  Si  Si8       1.0  0.70100  0.66400  0.00000  1.0000
  Si  Si9       1.0  0.33600  0.70100  0.00000  1.0000
  Si  Si10      1.0  0.83600  0.79900  0.00000  1.0000
  Si  Si11      1.0  0.20100  0.83600  0.00000  1.0000
  Si  Si12      1.0  0.56600  0.93400  0.00000  1.0000
  Si  Si13      1.0  0.15600  0.00256  0.50000  1.0000
  Si  Si14      1.0  0.99700  0.15600  0.50000  1.0000
  Si  Si15      1.0  0.49700  0.34400  0.50000  1.0000
  Si  Si16      1.0  0.65600  0.49700  0.50000  1.0000
  Si  Si17      1.0  0.34400  0.50300  0.50000  1.0000
  Si  Si18      1.0  0.50300  0.65600  0.50000  1.0000
  Si  Si19      1.0  0.00256  0.84400  0.50000  1.0000
  Si  Si20      1.0  0.84400  0.99700  0.50000  1.0000
