data_image0
_chemical_formula_structural       Fe5K17O16
_chemical_formula_sum              "Fe5 K17 O16"
_cell_length_a       6.68172
_cell_length_b       6.67459
_cell_length_c       18.2666
_cell_angle_alpha    79.473
_cell_angle_beta     95.1583
_cell_angle_gamma    119.479

_space_group_name_H-M_alt    "P 1"
_space_group_IT_number       1

loop_
  _space_group_symop_operation_xyz
  'x, y, z'

loop_
  _atom_site_type_symbol
  _atom_site_label
  _atom_site_symmetry_multiplicity
  _atom_site_fract_x
  _atom_site_fract_y
  _atom_site_fract_z
  _atom_site_occupancy
  Fe  Fe1       1.0  0.07230  0.00123  0.00000  1.0000
  Fe  Fe2       1.0  0.39100  0.91100  0.18000  1.0000
  Fe  Fe3       1.0  0.08440  0.82200  0.35900  1.0000
  Fe  Fe4       1.0  0.08440  0.18100  0.64100  1.0000
  Fe  Fe5       1.0  0.39100  0.09100  0.82000  1.0000
  K   K1        1.0  0.58200  0.00294  0.00000  1.0000
  K   K2        1.0  0.45800  0.41300  0.09210  1.0000
  K   K3        1.0  0.00000  0.49700  0.09350  1.0000
  K   K4        1.0  0.88000  0.91600  0.16800  1.0000
  K   K5        1.0  0.47500  0.32000  0.27600  1.0000
  K   K6        1.0  0.01860  0.40700  0.27900  1.0000
  K   K7        1.0  0.60700  0.83400  0.33800  1.0000
  K   K8        1.0  0.46000  0.22100  0.45300  1.0000
  K   K9        1.0  0.00686  0.32200  0.46700  1.0000
  K   K10       1.0  0.00686  0.78900  0.53300  1.0000
  K   K11       1.0  0.46000  0.67400  0.54700  1.0000
  K   K12       1.0  0.60700  0.17200  0.66200  1.0000
  K   K13       1.0  0.01860  0.68600  0.72100  1.0000
  K   K14       1.0  0.47500  0.59600  0.72400  1.0000
  K   K15       1.0  0.88000  0.08460  0.83200  1.0000
  K   K16       1.0  0.00000  0.59000  0.90600  1.0000
  K   K17       1.0  0.45800  0.50500  0.90800  1.0000
  O   O1        1.0  0.05480  0.27200  0.00000  1.0000
  O   O2        1.0  0.78600  0.73200  0.00000  1.0000
  O   O3        1.0  0.24600  0.95800  0.08590  1.0000
  O   O4        1.0  0.41000  0.63800  0.18700  1.0000
  O   O5        1.0  0.67800  0.17600  0.18700  1.0000
  O   O6        1.0  0.19300  0.87500  0.25700  1.0000
  O   O7        1.0  0.80100  0.54400  0.37200  1.0000
  O   O8        1.0  0.06520  0.08470  0.37500  1.0000
  O   O9        1.0  0.30100  0.78900  0.42700  1.0000
  O   O10       1.0  0.30100  0.21600  0.57300  1.0000
  O   O11       1.0  0.06520  0.46000  0.62500  1.0000
  O   O12       1.0  0.80100  0.91600  0.62800  1.0000
  O   O13       1.0  0.19300  0.13200  0.74300  1.0000
  O   O14       1.0  0.67800  0.36300  0.81300  1.0000
  O   O15       1.0  0.41000  0.82500  0.81300  1.0000
  O   O16       1.0  0.24600  0.04400  0.91400  1.0000
