data_image0
_chemical_formula_structural       Er4Fe28Si6
_chemical_formula_sum              "Er4 Fe28 Si6"
_cell_length_a       8.28146
_cell_length_b       8.28011
_cell_length_c       8.16029
_cell_angle_alpha    90
_cell_angle_beta     90
_cell_angle_gamma    120.005

_space_group_name_H-M_alt    "P 1"
_space_group_IT_number       1

loop_
  _space_group_symop_operation_xyz
  'x, y, z'

loop_
  _atom_site_type_symbol
  _atom_site_label
  _atom_site_symmetry_multiplicity
  _atom_site_fract_x
  _atom_site_fract_y
  _atom_site_fract_z
  _atom_site_occupancy
  Er  Er1       1.0  0.00000  0.00000  0.25000  1.0000
  Er  Er2       1.0  0.66700  0.33300  0.25000  1.0000
  Er  Er3       1.0  0.00000  0.00000  0.75000  1.0000
  Er  Er4       1.0  0.33300  0.66700  0.75000  1.0000
  Fe  Fe1       1.0  0.83300  0.66500  0.01480  1.0000
  Fe  Fe2       1.0  0.33500  0.16700  0.01480  1.0000
  Fe  Fe3       1.0  0.83300  0.16700  0.01480  1.0000
  Fe  Fe4       1.0  0.33300  0.66700  0.11000  1.0000
  Fe  Fe5       1.0  0.02910  0.35800  0.25000  1.0000
  Fe  Fe6       1.0  0.32900  0.35800  0.25000  1.0000
  Fe  Fe7       1.0  0.02910  0.67100  0.25000  1.0000
  Fe  Fe8       1.0  0.64200  0.67100  0.25000  1.0000
  Fe  Fe9       1.0  0.32900  0.97100  0.25000  1.0000
  Fe  Fe10      1.0  0.64200  0.97100  0.25000  1.0000
  Fe  Fe11      1.0  0.33300  0.66700  0.39000  1.0000
  Fe  Fe12      1.0  0.33500  0.16700  0.48500  1.0000
  Fe  Fe13      1.0  0.83300  0.16700  0.48500  1.0000
  Fe  Fe14      1.0  0.83300  0.66500  0.48500  1.0000
  Fe  Fe15      1.0  0.16700  0.33500  0.51500  1.0000
  Fe  Fe16      1.0  0.16700  0.83300  0.51500  1.0000
  Fe  Fe17      1.0  0.66500  0.83300  0.51500  1.0000
  Fe  Fe18      1.0  0.66700  0.33300  0.61000  1.0000
  Fe  Fe19      1.0  0.35800  0.02910  0.75000  1.0000
  Fe  Fe20      1.0  0.67100  0.02910  0.75000  1.0000
  Fe  Fe21      1.0  0.35800  0.32900  0.75000  1.0000
  Fe  Fe22      1.0  0.97100  0.32900  0.75000  1.0000
  Fe  Fe23      1.0  0.67100  0.64200  0.75000  1.0000
  Fe  Fe24      1.0  0.97100  0.64200  0.75000  1.0000
  Fe  Fe25      1.0  0.66700  0.33300  0.89000  1.0000
  Fe  Fe26      1.0  0.16700  0.83300  0.98500  1.0000
  Fe  Fe27      1.0  0.66500  0.83300  0.98500  1.0000
  Fe  Fe28      1.0  0.16700  0.33500  0.98500  1.0000
  Si  Si1       1.0  0.50000  0.00000  0.00000  1.0000
  Si  Si2       1.0  0.00000  0.50000  0.00000  1.0000
  Si  Si3       1.0  0.50000  0.50000  0.00000  1.0000
  Si  Si4       1.0  0.50000  0.00000  0.50000  1.0000
  Si  Si5       1.0  0.00000  0.50000  0.50000  1.0000
  Si  Si6       1.0  0.50000  0.50000  0.50000  1.0000
