data_image0
_chemical_formula_structural       NaO6V2
_chemical_formula_sum              "Na1 O6 V2"
_cell_length_a       5.18363
_cell_length_b       5.18363
_cell_length_c       4.60771
_cell_angle_alpha    101.142
_cell_angle_beta     101.142
_cell_angle_gamma    119.713

_space_group_name_H-M_alt    "P 1"
_space_group_IT_number       1

loop_
  _space_group_symop_operation_xyz
  'x, y, z'

loop_
  _atom_site_type_symbol
  _atom_site_label
  _atom_site_symmetry_multiplicity
  _atom_site_fract_x
  _atom_site_fract_y
  _atom_site_fract_z
  _atom_site_occupancy
  Na  Na1       1.0  0.50000  0.50000  0.00000  1.0000
  O   O1        1.0  0.98200  0.58300  0.23400  1.0000
  O   O2        1.0  0.58300  0.98200  0.23400  1.0000
  O   O3        1.0  0.18500  0.18500  0.25000  1.0000
  O   O4        1.0  0.81500  0.81500  0.75000  1.0000
  O   O5        1.0  0.41700  0.01840  0.76600  1.0000
  O   O6        1.0  0.01840  0.41700  0.76600  1.0000
  V   V1        1.0  0.83900  0.16100  0.00000  1.0000
  V   V2        1.0  0.16100  0.83900  0.00000  1.0000
