data_image0
_chemical_formula_structural       Al6Co28Y4
_chemical_formula_sum              "Al6 Co28 Y4"
_cell_length_a       8.34526
_cell_length_b       8.34416
_cell_length_c       8.14068
_cell_angle_alpha    90
_cell_angle_beta     90
_cell_angle_gamma    120.004

_space_group_name_H-M_alt    "P 1"
_space_group_IT_number       1

loop_
  _space_group_symop_operation_xyz
  'x, y, z'

loop_
  _atom_site_type_symbol
  _atom_site_label
  _atom_site_symmetry_multiplicity
  _atom_site_fract_x
  _atom_site_fract_y
  _atom_site_fract_z
  _atom_site_occupancy
  Al  Al1       1.0  0.50000  0.00000  0.00000  1.0000
  Al  Al2       1.0  0.00000  0.50000  0.00000  1.0000
  Al  Al3       1.0  0.50000  0.50000  0.00000  1.0000
  Al  Al4       1.0  0.50000  0.00000  0.50000  1.0000
  Al  Al5       1.0  0.00000  0.50000  0.50000  1.0000
  Al  Al6       1.0  0.50000  0.50000  0.50000  1.0000
  Co  Co1       1.0  0.83700  0.67400  0.01570  1.0000
  Co  Co2       1.0  0.32600  0.16300  0.01570  1.0000
  Co  Co3       1.0  0.83700  0.16300  0.01570  1.0000
  Co  Co4       1.0  0.33300  0.66700  0.11000  1.0000
  Co  Co5       1.0  0.04610  0.37300  0.25000  1.0000
  Co  Co6       1.0  0.32600  0.37300  0.25000  1.0000
  Co  Co7       1.0  0.04610  0.67400  0.25000  1.0000
  Co  Co8       1.0  0.62700  0.67400  0.25000  1.0000
  Co  Co9       1.0  0.32600  0.95400  0.25000  1.0000
  Co  Co10      1.0  0.62700  0.95400  0.25000  1.0000
  Co  Co11      1.0  0.33300  0.66700  0.39000  1.0000
  Co  Co12      1.0  0.32600  0.16300  0.48400  1.0000
  Co  Co13      1.0  0.83700  0.16300  0.48400  1.0000
  Co  Co14      1.0  0.83700  0.67400  0.48400  1.0000
  Co  Co15      1.0  0.16300  0.32600  0.51600  1.0000
  Co  Co16      1.0  0.16300  0.83700  0.51600  1.0000
  Co  Co17      1.0  0.67400  0.83700  0.51600  1.0000
  Co  Co18      1.0  0.66700  0.33300  0.61000  1.0000
  Co  Co19      1.0  0.37300  0.04610  0.75000  1.0000
  Co  Co20      1.0  0.67400  0.04610  0.75000  1.0000
  Co  Co21      1.0  0.37300  0.32600  0.75000  1.0000
  Co  Co22      1.0  0.95400  0.32600  0.75000  1.0000
  Co  Co23      1.0  0.67400  0.62700  0.75000  1.0000
  Co  Co24      1.0  0.95400  0.62700  0.75000  1.0000
  Co  Co25      1.0  0.66700  0.33300  0.89000  1.0000
  Co  Co26      1.0  0.16300  0.83700  0.98400  1.0000
  Co  Co27      1.0  0.67400  0.83700  0.98400  1.0000
  Co  Co28      1.0  0.16300  0.32600  0.98400  1.0000
  Y   Y1        1.0  0.00000  0.00000  0.25000  1.0000
  Y   Y2        1.0  0.66700  0.33300  0.25000  1.0000
  Y   Y3        1.0  0.00000  0.00000  0.75000  1.0000
  Y   Y4        1.0  0.33300  0.66700  0.75000  1.0000
