data_image0
_chemical_formula_structural       Na2O4Sc2
_chemical_formula_sum              "Na2 O4 Sc2"
_cell_length_a       4.39179
_cell_length_b       4.39179
_cell_length_c       5.62194
_cell_angle_alpha    112.991
_cell_angle_beta     112.991
_cell_angle_gamma    90

_space_group_name_H-M_alt    "P 1"
_space_group_IT_number       1

loop_
  _space_group_symop_operation_xyz
  'x, y, z'

loop_
  _atom_site_type_symbol
  _atom_site_label
  _atom_site_symmetry_multiplicity
  _atom_site_fract_x
  _atom_site_fract_y
  _atom_site_fract_z
  _atom_site_occupancy
  Na  Na1       1.0  0.50000  0.50000  0.00000  1.0000
  Na  Na2       1.0  0.75000  0.25000  0.50000  1.0000
  O   O1        1.0  0.02630  0.52600  0.05260  1.0000
  O   O2        1.0  0.22400  0.22400  0.44700  1.0000
  O   O3        1.0  0.77600  0.77600  0.55300  1.0000
  O   O4        1.0  0.47400  0.97400  0.94700  1.0000
  Sc  Sc1       1.0  0.00000  0.00000  0.00000  1.0000
  Sc  Sc2       1.0  0.25000  0.75000  0.50000  1.0000
