data_image0
_chemical_formula_structural       Cs4N8Ni2O24
_chemical_formula_sum              "Cs4 N8 Ni2 O24"
_cell_length_a       6.11671
_cell_length_b       7.49544
_cell_length_c       12.713
_cell_angle_alpha    88.1022
_cell_angle_beta     79.0772
_cell_angle_gamma    72.0947

_space_group_name_H-M_alt    "P 1"
_space_group_IT_number       1

loop_
  _space_group_symop_operation_xyz
  'x, y, z'

loop_
  _atom_site_type_symbol
  _atom_site_label
  _atom_site_symmetry_multiplicity
  _atom_site_fract_x
  _atom_site_fract_y
  _atom_site_fract_z
  _atom_site_occupancy
  Cs  Cs1       1.0  0.14800  0.69900  0.07980  1.0000
  Cs  Cs2       1.0  0.33100  0.77900  0.40400  1.0000
  Cs  Cs3       1.0  0.66900  0.22100  0.59600  1.0000
  Cs  Cs4       1.0  0.85200  0.30100  0.92000  1.0000
  N   N1        1.0  0.50100  0.11700  0.11700  1.0000
  N   N2        1.0  0.73600  0.46900  0.20100  1.0000
  N   N3        1.0  0.80800  0.95200  0.31200  1.0000
  N   N4        1.0  0.19500  0.34900  0.41100  1.0000
  N   N5        1.0  0.80500  0.65100  0.58900  1.0000
  N   N6        1.0  0.19200  0.04850  0.68800  1.0000
  N   N7        1.0  0.26400  0.53100  0.79900  1.0000
  N   N8        1.0  0.49900  0.88300  0.88300  1.0000
  Ni  Ni1       1.0  0.06210  0.23100  0.26300  1.0000
  Ni  Ni2       1.0  0.93800  0.76900  0.73700  1.0000
  O   O1        1.0  0.68900  0.00474  0.06970  1.0000
  O   O2        1.0  0.42900  0.28500  0.09190  1.0000
  O   O3        1.0  0.92800  0.37500  0.13800  1.0000
  O   O4        1.0  0.58500  0.59500  0.16800  1.0000
  O   O5        1.0  0.37800  0.05490  0.19600  1.0000
  O   O6        1.0  0.97600  0.99900  0.25000  1.0000
  O   O7        1.0  0.80500  0.78800  0.29900  1.0000
  O   O8        1.0  0.72200  0.42100  0.29900  1.0000
  O   O9        1.0  0.20000  0.42600  0.31900  1.0000
  O   O10       1.0  0.66400  0.06530  0.38100  1.0000
  O   O11       1.0  0.11700  0.20600  0.41900  1.0000
  O   O12       1.0  0.25900  0.40600  0.48600  1.0000
  O   O13       1.0  0.74100  0.59400  0.51400  1.0000
  O   O14       1.0  0.88300  0.79400  0.58100  1.0000
  O   O15       1.0  0.33600  0.93500  0.61900  1.0000
  O   O16       1.0  0.80000  0.57400  0.68100  1.0000
  O   O17       1.0  0.27800  0.57900  0.70100  1.0000
  O   O18       1.0  0.19500  0.21200  0.70100  1.0000
  O   O19       1.0  0.02390  0.00060  0.75000  1.0000
  O   O20       1.0  0.62200  0.94500  0.80400  1.0000
  O   O21       1.0  0.41500  0.40500  0.83200  1.0000
  O   O22       1.0  0.07210  0.62500  0.86200  1.0000
  O   O23       1.0  0.57100  0.71500  0.90800  1.0000
  O   O24       1.0  0.31100  0.99500  0.93000  1.0000
