data_image0
_chemical_formula_structural       NaO6Sn2
_chemical_formula_sum              "Na1 O6 Sn2"
_cell_length_a       5.94193
_cell_length_b       5.94193
_cell_length_c       4.54961
_cell_angle_alpha    105.958
_cell_angle_beta     105.958
_cell_angle_gamma    125.063

_space_group_name_H-M_alt    "P 1"
_space_group_IT_number       1

loop_
  _space_group_symop_operation_xyz
  'x, y, z'

loop_
  _atom_site_type_symbol
  _atom_site_label
  _atom_site_symmetry_multiplicity
  _atom_site_fract_x
  _atom_site_fract_y
  _atom_site_fract_z
  _atom_site_occupancy
  Na  Na1       1.0  0.50000  0.50000  0.00000  1.0000
  O   O1        1.0  0.96200  0.60000  0.26100  1.0000
  O   O2        1.0  0.60000  0.96200  0.26100  1.0000
  O   O3        1.0  0.25900  0.25900  0.27700  1.0000
  O   O4        1.0  0.74100  0.74100  0.72300  1.0000
  O   O5        1.0  0.40000  0.03750  0.73900  1.0000
  O   O6        1.0  0.03750  0.40000  0.73900  1.0000
  Sn  Sn1       1.0  0.84000  0.16000  0.00000  1.0000
  Sn  Sn2       1.0  0.16000  0.84000  0.00000  1.0000
