data_image0
_chemical_formula_structural       Co24Mn10Nd4
_chemical_formula_sum              "Co24 Mn10 Nd4"
_cell_length_a       8.38323
_cell_length_b       8.38263
_cell_length_c       8.18704
_cell_angle_alpha    90
_cell_angle_beta     90
_cell_angle_gamma    120.002

_space_group_name_H-M_alt    "P 1"
_space_group_IT_number       1

loop_
  _space_group_symop_operation_xyz
  'x, y, z'

loop_
  _atom_site_type_symbol
  _atom_site_label
  _atom_site_symmetry_multiplicity
  _atom_site_fract_x
  _atom_site_fract_y
  _atom_site_fract_z
  _atom_site_occupancy
  Co  Co1       1.0  0.83400  0.66800  0.01270  1.0000
  Co  Co2       1.0  0.33200  0.16600  0.01270  1.0000
  Co  Co3       1.0  0.83400  0.16600  0.01270  1.0000
  Co  Co4       1.0  0.04610  0.37400  0.25000  1.0000
  Co  Co5       1.0  0.32800  0.37400  0.25000  1.0000
  Co  Co6       1.0  0.04610  0.67200  0.25000  1.0000
  Co  Co7       1.0  0.62600  0.67200  0.25000  1.0000
  Co  Co8       1.0  0.32800  0.95400  0.25000  1.0000
  Co  Co9       1.0  0.62600  0.95400  0.25000  1.0000
  Co  Co10      1.0  0.33200  0.16600  0.48700  1.0000
  Co  Co11      1.0  0.83400  0.16600  0.48700  1.0000
  Co  Co12      1.0  0.83400  0.66800  0.48700  1.0000
  Co  Co13      1.0  0.16600  0.33200  0.51300  1.0000
  Co  Co14      1.0  0.16600  0.83400  0.51300  1.0000
  Co  Co15      1.0  0.66800  0.83400  0.51300  1.0000
  Co  Co16      1.0  0.37400  0.04610  0.75000  1.0000
  Co  Co17      1.0  0.67200  0.04610  0.75000  1.0000
  Co  Co18      1.0  0.37400  0.32800  0.75000  1.0000
  Co  Co19      1.0  0.95400  0.32800  0.75000  1.0000
  Co  Co20      1.0  0.67200  0.62600  0.75000  1.0000
  Co  Co21      1.0  0.95400  0.62600  0.75000  1.0000
  Co  Co22      1.0  0.16600  0.83400  0.98700  1.0000
  Co  Co23      1.0  0.66800  0.83400  0.98700  1.0000
  Co  Co24      1.0  0.16600  0.33200  0.98700  1.0000
  Mn  Mn1       1.0  0.50000  0.00000  0.00000  1.0000
  Mn  Mn2       1.0  0.00000  0.50000  0.00000  1.0000
  Mn  Mn3       1.0  0.50000  0.50000  0.00000  1.0000
  Mn  Mn4       1.0  0.33300  0.66700  0.11800  1.0000
  Mn  Mn5       1.0  0.33300  0.66700  0.38200  1.0000
  Mn  Mn6       1.0  0.50000  0.00000  0.50000  1.0000
  Mn  Mn7       1.0  0.00000  0.50000  0.50000  1.0000
  Mn  Mn8       1.0  0.50000  0.50000  0.50000  1.0000
  Mn  Mn9       1.0  0.66700  0.33300  0.61800  1.0000
  Mn  Mn10      1.0  0.66700  0.33300  0.88200  1.0000
  Nd  Nd1       1.0  0.00000  0.00000  0.25000  1.0000
  Nd  Nd2       1.0  0.66700  0.33300  0.25000  1.0000
  Nd  Nd3       1.0  0.00000  0.00000  0.75000  1.0000
  Nd  Nd4       1.0  0.33300  0.66700  0.75000  1.0000
