data_image0
_chemical_formula_structural       Cu2O8
_chemical_formula_sum              "Cu2 O8"
_cell_length_a       5.03662
_cell_length_b       5.03662
_cell_length_c       5.03662
_cell_angle_alpha    120.057
_cell_angle_beta     89.9009
_cell_angle_gamma    120.057

_space_group_name_H-M_alt    "P 1"
_space_group_IT_number       1

loop_
  _space_group_symop_operation_xyz
  'x, y, z'

loop_
  _atom_site_type_symbol
  _atom_site_label
  _atom_site_symmetry_multiplicity
  _atom_site_fract_x
  _atom_site_fract_y
  _atom_site_fract_z
  _atom_site_occupancy
  Cu  Cu1       1.0  0.00000  0.00000  0.00000  1.0000
  Cu  Cu2       1.0  0.75000  0.50000  0.25000  1.0000
  O   O1        1.0  0.60300  0.20600  0.39600  1.0000
  O   O2        1.0  0.19000  0.79400  0.39600  1.0000
  O   O3        1.0  0.60400  0.79400  0.39700  1.0000
  O   O4        1.0  0.14600  0.29300  0.44000  1.0000
  O   O5        1.0  0.60400  0.20600  0.81000  1.0000
  O   O6        1.0  0.14600  0.70700  0.85300  1.0000
  O   O7        1.0  0.14700  0.29300  0.85400  1.0000
  O   O8        1.0  0.56000  0.70700  0.85400  1.0000
