data_image0
_chemical_formula_structural       Er10Ge20Ir8
_chemical_formula_sum              "Er10 Ge20 Ir8"
_cell_length_a       12.995
_cell_length_b       12.995
_cell_length_c       4.30243
_cell_angle_alpha    90
_cell_angle_beta     90
_cell_angle_gamma    90

_space_group_name_H-M_alt    "P 1"
_space_group_IT_number       1

loop_
  _space_group_symop_operation_xyz
  'x, y, z'

loop_
  _atom_site_type_symbol
  _atom_site_label
  _atom_site_symmetry_multiplicity
  _atom_site_fract_x
  _atom_site_fract_y
  _atom_site_fract_z
  _atom_site_occupancy
  Er  Er1       1.0  0.00000  0.00000  0.00000  1.0000
  Er  Er2       1.0  0.50000  0.50000  0.00000  1.0000
  Er  Er3       1.0  0.61500  0.11500  0.50000  1.0000
  Er  Er4       1.0  0.32700  0.17300  0.50000  1.0000
  Er  Er5       1.0  0.82700  0.32700  0.50000  1.0000
  Er  Er6       1.0  0.11500  0.38500  0.50000  1.0000
  Er  Er7       1.0  0.88500  0.61500  0.50000  1.0000
  Er  Er8       1.0  0.17300  0.67300  0.50000  1.0000
  Er  Er9       1.0  0.67300  0.82700  0.50000  1.0000
  Er  Er10      1.0  0.38500  0.88500  0.50000  1.0000
  Ge  Ge1       1.0  0.43300  0.06700  0.00000  1.0000
  Ge  Ge2       1.0  0.80000  0.16400  0.00000  1.0000
  Ge  Ge3       1.0  0.16400  0.20000  0.00000  1.0000
  Ge  Ge4       1.0  0.66400  0.30000  0.00000  1.0000
  Ge  Ge5       1.0  0.30000  0.33600  0.00000  1.0000
  Ge  Ge6       1.0  0.93300  0.43300  0.00000  1.0000
  Ge  Ge7       1.0  0.06700  0.56700  0.00000  1.0000
  Ge  Ge8       1.0  0.70000  0.66400  0.00000  1.0000
  Ge  Ge9       1.0  0.33600  0.70000  0.00000  1.0000
  Ge  Ge10      1.0  0.83600  0.80000  0.00000  1.0000
  Ge  Ge11      1.0  0.20000  0.83600  0.00000  1.0000
  Ge  Ge12      1.0  0.56700  0.93300  0.00000  1.0000
  Ge  Ge13      1.0  0.15500  0.00797  0.50000  1.0000
  Ge  Ge14      1.0  0.99200  0.15500  0.50000  1.0000
  Ge  Ge15      1.0  0.49200  0.34500  0.50000  1.0000
  Ge  Ge16      1.0  0.65500  0.49200  0.50000  1.0000
  Ge  Ge17      1.0  0.34500  0.50800  0.50000  1.0000
  Ge  Ge18      1.0  0.50800  0.65500  0.50000  1.0000
  Ge  Ge19      1.0  0.00797  0.84500  0.50000  1.0000
  Ge  Ge20      1.0  0.84500  0.99200  0.50000  1.0000
  Ir  Ir1       1.0  0.24600  0.01990  0.00000  1.0000
  Ir  Ir2       1.0  0.98000  0.24600  0.00000  1.0000
  Ir  Ir3       1.0  0.48000  0.25400  0.00000  1.0000
  Ir  Ir4       1.0  0.74600  0.48000  0.00000  1.0000
  Ir  Ir5       1.0  0.25400  0.52000  0.00000  1.0000
  Ir  Ir6       1.0  0.52000  0.74600  0.00000  1.0000
  Ir  Ir7       1.0  0.01990  0.75400  0.00000  1.0000
  Ir  Ir8       1.0  0.75400  0.98000  0.00000  1.0000
