data_image0
_chemical_formula_structural       Ge2Na3O6
_chemical_formula_sum              "Ge2 Na3 O6"
_cell_length_a       5.10481
_cell_length_b       5.10481
_cell_length_c       5.5819
_cell_angle_alpha    98.7199
_cell_angle_beta     98.7199
_cell_angle_gamma    120.107

_space_group_name_H-M_alt    "P 1"
_space_group_IT_number       1

loop_
  _space_group_symop_operation_xyz
  'x, y, z'

loop_
  _atom_site_type_symbol
  _atom_site_label
  _atom_site_symmetry_multiplicity
  _atom_site_fract_x
  _atom_site_fract_y
  _atom_site_fract_z
  _atom_site_occupancy
  Ge  Ge1       1.0  0.83300  0.16700  0.00000  1.0000
  Ge  Ge2       1.0  0.16700  0.83300  0.00000  1.0000
  Na  Na1       1.0  0.00000  0.00000  0.50000  1.0000
  Na  Na2       1.0  0.64900  0.35100  0.50000  1.0000
  Na  Na3       1.0  0.35100  0.64900  0.50000  1.0000
  O   O1        1.0  0.19500  0.19500  0.20000  1.0000
  O   O2        1.0  0.94600  0.56900  0.20600  1.0000
  O   O3        1.0  0.56900  0.94600  0.20600  1.0000
  O   O4        1.0  0.43100  0.05400  0.79400  1.0000
  O   O5        1.0  0.05400  0.43100  0.79400  1.0000
  O   O6        1.0  0.80500  0.80500  0.80000  1.0000
