data_image0
_chemical_formula_structural       Na3O6V2
_chemical_formula_sum              "Na3 O6 V2"
_cell_length_a       5.16785
_cell_length_b       5.16785
_cell_length_c       5.50046
_cell_angle_alpha    99.1093
_cell_angle_beta     99.1093
_cell_angle_gamma    119.988

_space_group_name_H-M_alt    "P 1"
_space_group_IT_number       1

loop_
  _space_group_symop_operation_xyz
  'x, y, z'

loop_
  _atom_site_type_symbol
  _atom_site_label
  _atom_site_symmetry_multiplicity
  _atom_site_fract_x
  _atom_site_fract_y
  _atom_site_fract_z
  _atom_site_occupancy
  Na  Na1       1.0  0.00000  0.00000  0.50000  1.0000
  Na  Na2       1.0  0.64900  0.35100  0.50000  1.0000
  Na  Na3       1.0  0.35100  0.64900  0.50000  1.0000
  O   O1        1.0  0.19100  0.19100  0.20000  1.0000
  O   O2        1.0  0.94900  0.56900  0.20400  1.0000
  O   O3        1.0  0.56900  0.94900  0.20400  1.0000
  O   O4        1.0  0.43100  0.05140  0.79600  1.0000
  O   O5        1.0  0.05140  0.43100  0.79600  1.0000
  O   O6        1.0  0.80900  0.80900  0.80000  1.0000
  V   V1        1.0  0.83200  0.16800  0.00000  1.0000
  V   V2        1.0  0.16800  0.83200  0.00000  1.0000
