data_image0
_chemical_formula_structural       B4Ca2H16O16
_chemical_formula_sum              "B4 Ca2 H16 O16"
_cell_length_a       7.774
_cell_length_b       5.68
_cell_length_c       8.136
_cell_angle_alpha    113.15
_cell_angle_beta     101.67
_cell_angle_gamma    107.87

_space_group_name_H-M_alt    "P 1"
_space_group_IT_number       1

loop_
  _space_group_symop_operation_xyz
  'x, y, z'

loop_
  _atom_site_type_symbol
  _atom_site_label
  _atom_site_symmetry_multiplicity
  _atom_site_fract_x
  _atom_site_fract_y
  _atom_site_fract_z
  _atom_site_occupancy
  B   B1        1.0  0.02730  0.40600  0.23500  1.0000
  B   B2        1.0  0.56200  0.68400  0.28800  1.0000
  B   B3        1.0  0.43800  0.31600  0.71200  1.0000
  B   B4        1.0  0.97300  0.59400  0.76500  1.0000
  Ca  Ca1       1.0  0.23700  0.01770  0.18900  1.0000
  Ca  Ca2       1.0  0.76300  0.98200  0.81100  1.0000
  H   H1        1.0  0.46600  0.72200  0.06950  1.0000
  H   H2        1.0  0.19600  0.42100  0.07850  1.0000
  H   H3        1.0  0.79200  0.09560  0.20200  1.0000
  H   H4        1.0  0.62100  0.33900  0.20300  1.0000
  H   H5        1.0  0.94500  0.72000  0.31600  1.0000
  H   H6        1.0  0.25700  0.51000  0.42100  1.0000
  H   H7        1.0  0.82300  0.99000  0.42800  1.0000
  H   H8        1.0  0.44400  0.95700  0.49700  1.0000
  H   H9        1.0  0.55600  0.04250  0.50300  1.0000
  H   H10       1.0  0.17700  0.01010  0.57200  1.0000
  H   H11       1.0  0.74300  0.49000  0.57900  1.0000
  H   H12       1.0  0.05480  0.28000  0.68400  1.0000
  H   H13       1.0  0.37900  0.66100  0.79700  1.0000
  H   H14       1.0  0.20800  0.90400  0.79800  1.0000
  H   H15       1.0  0.80400  0.57900  0.92200  1.0000
  H   H16       1.0  0.53400  0.27800  0.93100  1.0000
  O   O1        1.0  0.07790  0.29000  0.06480  1.0000
  O   O2        1.0  0.41800  0.73600  0.16600  1.0000
  O   O3        1.0  0.82000  0.23900  0.16800  1.0000
  O   O4        1.0  0.50200  0.38400  0.19200  1.0000
  O   O5        1.0  0.10000  0.69500  0.29800  1.0000
  O   O6        1.0  0.75500  0.83900  0.30800  1.0000
  O   O7        1.0  0.11800  0.34700  0.37800  1.0000
  O   O8        1.0  0.59100  0.66400  0.45600  1.0000
  O   O9        1.0  0.40900  0.33600  0.54400  1.0000
  O   O10       1.0  0.88200  0.65300  0.62200  1.0000
  O   O11       1.0  0.24500  0.16100  0.69200  1.0000
  O   O12       1.0  0.90000  0.30500  0.70200  1.0000
  O   O13       1.0  0.49800  0.61600  0.80800  1.0000
  O   O14       1.0  0.18000  0.76100  0.83200  1.0000
  O   O15       1.0  0.58200  0.26400  0.83400  1.0000
  O   O16       1.0  0.92200  0.71000  0.93500  1.0000
