data_image0
_chemical_formula_structural       Ge2O8
_chemical_formula_sum              "Ge2 O8"
_cell_length_a       4.62317
_cell_length_b       4.62317
_cell_length_c       5.48231
_cell_angle_alpha    90
_cell_angle_beta     90
_cell_angle_gamma    79.2831

_space_group_name_H-M_alt    "P 1"
_space_group_IT_number       1

loop_
  _space_group_symop_operation_xyz
  'x, y, z'

loop_
  _atom_site_type_symbol
  _atom_site_label
  _atom_site_symmetry_multiplicity
  _atom_site_fract_x
  _atom_site_fract_y
  _atom_site_fract_z
  _atom_site_occupancy
  Ge  Ge1       1.0  0.30400  0.69600  0.25000  1.0000
  Ge  Ge2       1.0  0.69600  0.30400  0.75000  1.0000
  O   O1        1.0  0.89000  0.11000  0.03000  1.0000
  O   O2        1.0  0.26900  0.33400  0.25000  1.0000
  O   O3        1.0  0.66600  0.73100  0.25000  1.0000
  O   O4        1.0  0.89000  0.11000  0.47000  1.0000
  O   O5        1.0  0.11000  0.89000  0.53000  1.0000
  O   O6        1.0  0.33400  0.26900  0.75000  1.0000
  O   O7        1.0  0.73100  0.66600  0.75000  1.0000
  O   O8        1.0  0.11000  0.89000  0.97000  1.0000
