data_image0
_chemical_formula_structural       Na4O6V2
_chemical_formula_sum              "Na4 O6 V2"
_cell_length_a       5.3382
_cell_length_b       5.3382
_cell_length_c       5.60052
_cell_angle_alpha    98.6839
_cell_angle_beta     98.6839
_cell_angle_gamma    121.157

_space_group_name_H-M_alt    "P 1"
_space_group_IT_number       1

loop_
  _space_group_symop_operation_xyz
  'x, y, z'

loop_
  _atom_site_type_symbol
  _atom_site_label
  _atom_site_symmetry_multiplicity
  _atom_site_fract_x
  _atom_site_fract_y
  _atom_site_fract_z
  _atom_site_occupancy
  Na  Na1       1.0  0.50000  0.50000  0.00000  1.0000
  Na  Na2       1.0  0.00000  0.00000  0.50000  1.0000
  Na  Na3       1.0  0.65800  0.34200  0.50000  1.0000
  Na  Na4       1.0  0.34200  0.65800  0.50000  1.0000
  O   O1        1.0  0.95600  0.58800  0.20400  1.0000
  O   O2        1.0  0.58800  0.95600  0.20400  1.0000
  O   O3        1.0  0.20000  0.20000  0.20600  1.0000
  O   O4        1.0  0.80000  0.80000  0.79400  1.0000
  O   O5        1.0  0.41200  0.04350  0.79600  1.0000
  O   O6        1.0  0.04350  0.41200  0.79600  1.0000
  V   V1        1.0  0.83800  0.16200  0.00000  1.0000
  V   V2        1.0  0.16200  0.83800  0.00000  1.0000
