data_image0
_chemical_formula_structural       O8Si2
_chemical_formula_sum              "O8 Si2"
_cell_length_a       6.9747
_cell_length_b       4.76406
_cell_length_c       4.93241
_cell_angle_alpha    128.188
_cell_angle_beta     95.9811
_cell_angle_gamma    103.237

_space_group_name_H-M_alt    "P 1"
_space_group_IT_number       1

loop_
  _space_group_symop_operation_xyz
  'x, y, z'

loop_
  _atom_site_type_symbol
  _atom_site_label
  _atom_site_symmetry_multiplicity
  _atom_site_fract_x
  _atom_site_fract_y
  _atom_site_fract_z
  _atom_site_occupancy
  O   O1        1.0  0.91900  0.72600  0.10100  1.0000
  O   O2        1.0  0.46700  0.56800  0.12400  1.0000
  O   O3        1.0  0.36200  0.02450  0.25500  1.0000
  O   O4        1.0  0.88800  0.40600  0.40600  1.0000
  O   O5        1.0  0.11200  0.59400  0.59400  1.0000
  O   O6        1.0  0.63800  0.97500  0.74500  1.0000
  O   O7        1.0  0.53300  0.43200  0.87600  1.0000
  O   O8        1.0  0.08090  0.27400  0.89900  1.0000
  Si  Si1       1.0  0.86400  0.30500  0.00785  1.0000
  Si  Si2       1.0  0.13600  0.69500  0.99200  1.0000
