data_image0
_chemical_formula_structural       Dy10Ge20Rh8
_chemical_formula_sum              "Dy10 Ge20 Rh8"
_cell_length_a       13.0497
_cell_length_b       13.0497
_cell_length_c       4.30218
_cell_angle_alpha    90
_cell_angle_beta     90
_cell_angle_gamma    90

_space_group_name_H-M_alt    "P 1"
_space_group_IT_number       1

loop_
  _space_group_symop_operation_xyz
  'x, y, z'

loop_
  _atom_site_type_symbol
  _atom_site_label
  _atom_site_symmetry_multiplicity
  _atom_site_fract_x
  _atom_site_fract_y
  _atom_site_fract_z
  _atom_site_occupancy
  Dy  Dy1       1.0  0.00000  0.00000  0.00000  1.0000
  Dy  Dy2       1.0  0.50000  0.50000  0.00000  1.0000
  Dy  Dy3       1.0  0.61300  0.11300  0.50000  1.0000
  Dy  Dy4       1.0  0.32500  0.17500  0.50000  1.0000
  Dy  Dy5       1.0  0.82500  0.32500  0.50000  1.0000
  Dy  Dy6       1.0  0.11300  0.38700  0.50000  1.0000
  Dy  Dy7       1.0  0.88700  0.61300  0.50000  1.0000
  Dy  Dy8       1.0  0.17500  0.67500  0.50000  1.0000
  Dy  Dy9       1.0  0.67500  0.82500  0.50000  1.0000
  Dy  Dy10      1.0  0.38700  0.88700  0.50000  1.0000
  Ge  Ge1       1.0  0.43300  0.06700  0.00000  1.0000
  Ge  Ge2       1.0  0.80000  0.16200  0.00000  1.0000
  Ge  Ge3       1.0  0.16200  0.20000  0.00000  1.0000
  Ge  Ge4       1.0  0.66200  0.30000  0.00000  1.0000
  Ge  Ge5       1.0  0.30000  0.33800  0.00000  1.0000
  Ge  Ge6       1.0  0.93300  0.43300  0.00000  1.0000
  Ge  Ge7       1.0  0.06700  0.56700  0.00000  1.0000
  Ge  Ge8       1.0  0.70000  0.66200  0.00000  1.0000
  Ge  Ge9       1.0  0.33800  0.70000  0.00000  1.0000
  Ge  Ge10      1.0  0.83800  0.80000  0.00000  1.0000
  Ge  Ge11      1.0  0.20000  0.83800  0.00000  1.0000
  Ge  Ge12      1.0  0.56700  0.93300  0.00000  1.0000
  Ge  Ge13      1.0  0.15800  0.00257  0.50000  1.0000
  Ge  Ge14      1.0  0.99700  0.15800  0.50000  1.0000
  Ge  Ge15      1.0  0.49700  0.34200  0.50000  1.0000
  Ge  Ge16      1.0  0.65800  0.49700  0.50000  1.0000
  Ge  Ge17      1.0  0.34200  0.50300  0.50000  1.0000
  Ge  Ge18      1.0  0.50300  0.65800  0.50000  1.0000
  Ge  Ge19      1.0  0.00257  0.84200  0.50000  1.0000
  Ge  Ge20      1.0  0.84200  0.99700  0.50000  1.0000
  Rh  Rh1       1.0  0.24600  0.02120  0.00000  1.0000
  Rh  Rh2       1.0  0.97900  0.24600  0.00000  1.0000
  Rh  Rh3       1.0  0.47900  0.25400  0.00000  1.0000
  Rh  Rh4       1.0  0.74600  0.47900  0.00000  1.0000
  Rh  Rh5       1.0  0.25400  0.52100  0.00000  1.0000
  Rh  Rh6       1.0  0.52100  0.74600  0.00000  1.0000
  Rh  Rh7       1.0  0.02120  0.75400  0.00000  1.0000
  Rh  Rh8       1.0  0.75400  0.97900  0.00000  1.0000
