data_image0
_chemical_formula_structural       Al2Na4O6
_chemical_formula_sum              "Al2 Na4 O6"
_cell_length_a       5.28434
_cell_length_b       5.28434
_cell_length_c       5.51738
_cell_angle_alpha    99.7792
_cell_angle_beta     99.7792
_cell_angle_gamma    119.251

_space_group_name_H-M_alt    "P 1"
_space_group_IT_number       1

loop_
  _space_group_symop_operation_xyz
  'x, y, z'

loop_
  _atom_site_type_symbol
  _atom_site_label
  _atom_site_symmetry_multiplicity
  _atom_site_fract_x
  _atom_site_fract_y
  _atom_site_fract_z
  _atom_site_occupancy
  Al  Al1       1.0  0.84000  0.16100  0.00000  1.0000
  Al  Al2       1.0  0.16100  0.84000  0.00000  1.0000
  Na  Na1       1.0  0.50000  0.50000  0.00000  1.0000
  Na  Na2       1.0  0.00000  0.00000  0.50000  1.0000
  Na  Na3       1.0  0.65500  0.34500  0.50000  1.0000
  Na  Na4       1.0  0.34500  0.65500  0.50000  1.0000
  O   O1        1.0  0.95400  0.57400  0.19100  1.0000
  O   O2        1.0  0.57400  0.95400  0.19100  1.0000
  O   O3        1.0  0.19500  0.19500  0.20600  1.0000
  O   O4        1.0  0.80500  0.80500  0.79400  1.0000
  O   O5        1.0  0.42600  0.04570  0.80900  1.0000
  O   O6        1.0  0.04570  0.42600  0.80900  1.0000
