data_image0
_chemical_formula_structural       B2Na4O6
_chemical_formula_sum              "B2 Na4 O6"
_cell_length_a       5.68341
_cell_length_b       5.68341
_cell_length_c       5.32589
_cell_angle_alpha    102.482
_cell_angle_beta     102.482
_cell_angle_gamma    123.27

_space_group_name_H-M_alt    "P 1"
_space_group_IT_number       1

loop_
  _space_group_symop_operation_xyz
  'x, y, z'

loop_
  _atom_site_type_symbol
  _atom_site_label
  _atom_site_symmetry_multiplicity
  _atom_site_fract_x
  _atom_site_fract_y
  _atom_site_fract_z
  _atom_site_occupancy
  B   B1        1.0  0.89300  0.10700  0.00000  1.0000
  B   B2        1.0  0.10700  0.89300  0.00000  1.0000
  Na  Na1       1.0  0.50000  0.50000  0.00000  1.0000
  Na  Na2       1.0  0.00000  0.00000  0.50000  1.0000
  Na  Na3       1.0  0.67300  0.32700  0.50000  1.0000
  Na  Na4       1.0  0.32700  0.67300  0.50000  1.0000
  O   O1        1.0  0.72600  0.06740  0.16900  1.0000
  O   O2        1.0  0.06740  0.72600  0.16900  1.0000
  O   O3        1.0  0.21300  0.21300  0.20200  1.0000
  O   O4        1.0  0.78700  0.78700  0.79800  1.0000
  O   O5        1.0  0.93300  0.27400  0.83100  1.0000
  O   O6        1.0  0.27400  0.93300  0.83100  1.0000
