data_image0
_chemical_formula_structural       Na4O6Zn2
_chemical_formula_sum              "Na4 O6 Zn2"
_cell_length_a       5.37855
_cell_length_b       5.37855
_cell_length_c       5.6814
_cell_angle_alpha    99.2309
_cell_angle_beta     99.2309
_cell_angle_gamma    120.155

_space_group_name_H-M_alt    "P 1"
_space_group_IT_number       1

loop_
  _space_group_symop_operation_xyz
  'x, y, z'

loop_
  _atom_site_type_symbol
  _atom_site_label
  _atom_site_symmetry_multiplicity
  _atom_site_fract_x
  _atom_site_fract_y
  _atom_site_fract_z
  _atom_site_occupancy
  Na  Na1       1.0  0.50000  0.50000  0.00000  1.0000
  Na  Na2       1.0  0.00000  0.00000  0.50000  1.0000
  Na  Na3       1.0  0.65800  0.34200  0.50000  1.0000
  Na  Na4       1.0  0.34200  0.65800  0.50000  1.0000
  O   O1        1.0  0.95000  0.57500  0.21100  1.0000
  O   O2        1.0  0.57500  0.95000  0.21100  1.0000
  O   O3        1.0  0.20000  0.20000  0.21400  1.0000
  O   O4        1.0  0.80000  0.80000  0.78600  1.0000
  O   O5        1.0  0.42500  0.05030  0.78900  1.0000
  O   O6        1.0  0.05030  0.42500  0.78900  1.0000
  Zn  Zn1       1.0  0.83400  0.16600  0.00000  1.0000
  Zn  Zn2       1.0  0.16600  0.83400  0.00000  1.0000
