data_image0
_chemical_formula_structural       Na4O6Y2
_chemical_formula_sum              "Na4 O6 Y2"
_cell_length_a       5.90067
_cell_length_b       5.90067
_cell_length_c       5.75536
_cell_angle_alpha    99.735
_cell_angle_beta     99.735
_cell_angle_gamma    120.046

_space_group_name_H-M_alt    "P 1"
_space_group_IT_number       1

loop_
  _space_group_symop_operation_xyz
  'x, y, z'

loop_
  _atom_site_type_symbol
  _atom_site_label
  _atom_site_symmetry_multiplicity
  _atom_site_fract_x
  _atom_site_fract_y
  _atom_site_fract_z
  _atom_site_occupancy
  Na  Na1       1.0  0.50000  0.50000  0.00000  1.0000
  Na  Na2       1.0  0.65600  0.34300  0.50000  1.0000
  Na  Na3       1.0  0.34300  0.65600  0.50000  1.0000
  Na  Na4       1.0  0.00000  0.00000  0.50000  1.0000
  O   O1        1.0  0.93400  0.57500  0.22800  1.0000
  O   O2        1.0  0.57500  0.93400  0.22800  1.0000
  O   O3        1.0  0.21900  0.21900  0.22900  1.0000
  O   O4        1.0  0.78100  0.78100  0.77100  1.0000
  O   O5        1.0  0.42500  0.06580  0.77200  1.0000
  O   O6        1.0  0.06580  0.42500  0.77200  1.0000
  Y   Y1        1.0  0.83400  0.16600  0.00000  1.0000
  Y   Y2        1.0  0.16600  0.83400  0.00000  1.0000
