data_image0
_chemical_formula_structural       Fe2Na4O6
_chemical_formula_sum              "Fe2 Na4 O6"
_cell_length_a       5.30747
_cell_length_b       5.30747
_cell_length_c       5.61666
_cell_angle_alpha    98.9023
_cell_angle_beta     98.9023
_cell_angle_gamma    120.814

_space_group_name_H-M_alt    "P 1"
_space_group_IT_number       1

loop_
  _space_group_symop_operation_xyz
  'x, y, z'

loop_
  _atom_site_type_symbol
  _atom_site_label
  _atom_site_symmetry_multiplicity
  _atom_site_fract_x
  _atom_site_fract_y
  _atom_site_fract_z
  _atom_site_occupancy
  Fe  Fe1       1.0  0.83500  0.16500  0.00000  1.0000
  Fe  Fe2       1.0  0.16500  0.83500  0.00000  1.0000
  Na  Na1       1.0  0.50000  0.50000  0.00000  1.0000
  Na  Na2       1.0  0.00000  0.00000  0.50000  1.0000
  Na  Na3       1.0  0.65700  0.34300  0.50000  1.0000
  Na  Na4       1.0  0.34300  0.65700  0.50000  1.0000
  O   O1        1.0  0.95600  0.58400  0.20300  1.0000
  O   O2        1.0  0.58400  0.95600  0.20300  1.0000
  O   O3        1.0  0.20000  0.20000  0.20900  1.0000
  O   O4        1.0  0.80000  0.80000  0.79100  1.0000
  O   O5        1.0  0.41600  0.04390  0.79700  1.0000
  O   O6        1.0  0.04390  0.41600  0.79700  1.0000
