data_image0
_chemical_formula_structural       Cu8Na12O16
_chemical_formula_sum              "Cu8 Na12 O16"
_cell_length_a       5.6772
_cell_length_b       10.9829
_cell_length_c       7.94259
_cell_angle_alpha    90
_cell_angle_beta     108.929
_cell_angle_gamma    90

_space_group_name_H-M_alt    "P 1"
_space_group_IT_number       1

loop_
  _space_group_symop_operation_xyz
  'x, y, z'

loop_
  _atom_site_type_symbol
  _atom_site_label
  _atom_site_symmetry_multiplicity
  _atom_site_fract_x
  _atom_site_fract_y
  _atom_site_fract_z
  _atom_site_occupancy
  Cu  Cu1       1.0  0.75900  0.57500  0.22900  1.0000
  Cu  Cu2       1.0  0.73900  0.82800  0.23800  1.0000
  Cu  Cu3       1.0  0.76100  0.32800  0.26200  1.0000
  Cu  Cu4       1.0  0.74100  0.07520  0.27100  1.0000
  Cu  Cu5       1.0  0.25900  0.92500  0.72900  1.0000
  Cu  Cu6       1.0  0.23900  0.67200  0.73800  1.0000
  Cu  Cu7       1.0  0.26100  0.17200  0.76200  1.0000
  Cu  Cu8       1.0  0.24100  0.42500  0.77100  1.0000
  Na  Na1       1.0  0.19100  0.89900  0.04970  1.0000
  Na  Na2       1.0  0.22500  0.57900  0.11600  1.0000
  Na  Na3       1.0  0.22900  0.29600  0.11900  1.0000
  Na  Na4       1.0  0.27100  0.79600  0.38100  1.0000
  Na  Na5       1.0  0.27500  0.07940  0.38400  1.0000
  Na  Na6       1.0  0.30900  0.39900  0.45000  1.0000
  Na  Na7       1.0  0.69100  0.60100  0.55000  1.0000
  Na  Na8       1.0  0.72500  0.92100  0.61600  1.0000
  Na  Na9       1.0  0.72900  0.20400  0.61900  1.0000
  Na  Na10      1.0  0.77100  0.70400  0.88100  1.0000
  Na  Na11      1.0  0.77500  0.42100  0.88400  1.0000
  Na  Na12      1.0  0.80900  0.10100  0.95000  1.0000
  O   O1        1.0  0.93800  0.70800  0.17900  1.0000
  O   O2        1.0  0.95900  0.44500  0.19700  1.0000
  O   O3        1.0  0.93900  0.95500  0.21100  1.0000
  O   O4        1.0  0.94800  0.19900  0.22800  1.0000
  O   O5        1.0  0.55200  0.69900  0.27200  1.0000
  O   O6        1.0  0.56100  0.45500  0.28900  1.0000
  O   O7        1.0  0.54100  0.94500  0.30200  1.0000
  O   O8        1.0  0.56200  0.20800  0.32100  1.0000
  O   O9        1.0  0.43800  0.79200  0.67900  1.0000
  O   O10       1.0  0.45900  0.05510  0.69700  1.0000
  O   O11       1.0  0.43900  0.54500  0.71100  1.0000
  O   O12       1.0  0.44800  0.30100  0.72800  1.0000
  O   O13       1.0  0.05170  0.80100  0.77200  1.0000
  O   O14       1.0  0.06050  0.04490  0.78900  1.0000
  O   O15       1.0  0.04060  0.55500  0.80200  1.0000
  O   O16       1.0  0.06210  0.29200  0.82100  1.0000
