data_image0
_chemical_formula_structural       Na4O6Si2
_chemical_formula_sum              "Na4 O6 Si2"
_cell_length_a       4.79714
_cell_length_b       6.04034
_cell_length_c       6.04034
_cell_angle_alpha    60.1376
_cell_angle_beta     90
_cell_angle_gamma    90

_space_group_name_H-M_alt    "P 1"
_space_group_IT_number       1

loop_
  _space_group_symop_operation_xyz
  'x, y, z'

loop_
  _atom_site_type_symbol
  _atom_site_label
  _atom_site_symmetry_multiplicity
  _atom_site_fract_x
  _atom_site_fract_y
  _atom_site_fract_z
  _atom_site_occupancy
  Na  Na1       1.0  0.00000  0.49600  0.17300  1.0000
  Na  Na2       1.0  0.50000  0.17300  0.49600  1.0000
  Na  Na3       1.0  0.00000  0.82700  0.50400  1.0000
  Na  Na4       1.0  0.50000  0.50400  0.82700  1.0000
  O   O1        1.0  0.87700  0.91200  0.08780  1.0000
  O   O2        1.0  0.47900  0.57800  0.15900  1.0000
  O   O3        1.0  0.47900  0.84100  0.42200  1.0000
  O   O4        1.0  0.97900  0.15900  0.57800  1.0000
  O   O5        1.0  0.97900  0.42200  0.84100  1.0000
  O   O6        1.0  0.37700  0.08780  0.91200  1.0000
  Si  Si1       1.0  0.53600  0.84100  0.15900  1.0000
  Si  Si2       1.0  0.03590  0.15900  0.84100  1.0000
