data_image0
_chemical_formula_structural       NaO6Zr2
_chemical_formula_sum              "Na1 O6 Zr2"
_cell_length_a       6.13058
_cell_length_b       6.13058
_cell_length_c       3.62802
_cell_angle_alpha    105.693
_cell_angle_beta     105.693
_cell_angle_gamma    115.991

_space_group_name_H-M_alt    "P 1"
_space_group_IT_number       1

loop_
  _space_group_symop_operation_xyz
  'x, y, z'

loop_
  _atom_site_type_symbol
  _atom_site_label
  _atom_site_symmetry_multiplicity
  _atom_site_fract_x
  _atom_site_fract_y
  _atom_site_fract_z
  _atom_site_occupancy
  Na  Na1       1.0  0.50000  0.50000  0.00000  1.0000
  O   O1        1.0  0.21600  0.21600  0.12700  1.0000
  O   O2        1.0  0.93900  0.58500  0.30600  1.0000
  O   O3        1.0  0.58500  0.93900  0.30600  1.0000
  O   O4        1.0  0.41500  0.06130  0.69400  1.0000
  O   O5        1.0  0.06130  0.41500  0.69400  1.0000
  O   O6        1.0  0.78400  0.78400  0.87300  1.0000
  Zr  Zr1       1.0  0.83900  0.16100  0.00000  1.0000
  Zr  Zr2       1.0  0.16100  0.83900  0.00000  1.0000
