data_image0
_chemical_formula_structural       Cl4H24P8Ru2
_chemical_formula_sum              "Cl4 H24 P8 Ru2"
_cell_length_a       6.50732
_cell_length_b       6.50732
_cell_length_c       11.4324
_cell_angle_alpha    90
_cell_angle_beta     90
_cell_angle_gamma    90

_space_group_name_H-M_alt    "P 1"
_space_group_IT_number       1

loop_
  _space_group_symop_operation_xyz
  'x, y, z'

loop_
  _atom_site_type_symbol
  _atom_site_label
  _atom_site_symmetry_multiplicity
  _atom_site_fract_x
  _atom_site_fract_y
  _atom_site_fract_z
  _atom_site_occupancy
  Cl  Cl1       1.0  0.23500  0.23500  0.00000  1.0000
  Cl  Cl2       1.0  0.76500  0.76500  0.00000  1.0000
  Cl  Cl3       1.0  0.73500  0.26500  0.50000  1.0000
  Cl  Cl4       1.0  0.26500  0.73500  0.50000  1.0000
  H   H1        1.0  0.66700  0.10000  0.13900  1.0000
  H   H2        1.0  0.90000  0.33300  0.13900  1.0000
  H   H3        1.0  0.10000  0.66700  0.13900  1.0000
  H   H4        1.0  0.33300  0.90000  0.13900  1.0000
  H   H5        1.0  0.14700  0.14700  0.23900  1.0000
  H   H6        1.0  0.85300  0.85300  0.23900  1.0000
  H   H7        1.0  0.64700  0.35300  0.26100  1.0000
  H   H8        1.0  0.35300  0.64700  0.26100  1.0000
  H   H9        1.0  0.40000  0.16700  0.36100  1.0000
  H   H10       1.0  0.16700  0.40000  0.36100  1.0000
  H   H11       1.0  0.83300  0.60000  0.36100  1.0000
  H   H12       1.0  0.60000  0.83300  0.36100  1.0000
  H   H13       1.0  0.40000  0.16700  0.63900  1.0000
  H   H14       1.0  0.16700  0.40000  0.63900  1.0000
  H   H15       1.0  0.83300  0.60000  0.63900  1.0000
  H   H16       1.0  0.60000  0.83300  0.63900  1.0000
  H   H17       1.0  0.64700  0.35300  0.73900  1.0000
  H   H18       1.0  0.35300  0.64700  0.73900  1.0000
  H   H19       1.0  0.14700  0.14700  0.76100  1.0000
  H   H20       1.0  0.85300  0.85300  0.76100  1.0000
  H   H21       1.0  0.66700  0.10000  0.86100  1.0000
  H   H22       1.0  0.90000  0.33300  0.86100  1.0000
  H   H23       1.0  0.10000  0.66700  0.86100  1.0000
  H   H24       1.0  0.33300  0.90000  0.86100  1.0000
  P   P1        1.0  0.68200  0.31800  0.14000  1.0000
  P   P2        1.0  0.31800  0.68200  0.14000  1.0000
  P   P3        1.0  0.18200  0.18200  0.36000  1.0000
  P   P4        1.0  0.81800  0.81800  0.36000  1.0000
  P   P5        1.0  0.18200  0.18200  0.64000  1.0000
  P   P6        1.0  0.81800  0.81800  0.64000  1.0000
  P   P7        1.0  0.68200  0.31800  0.86000  1.0000
  P   P8        1.0  0.31800  0.68200  0.86000  1.0000
  Ru  Ru1       1.0  0.50000  0.50000  0.00000  1.0000
  Ru  Ru2       1.0  0.00000  0.00000  0.50000  1.0000
