data_image0
_chemical_formula_structural       Sm2Te6
_chemical_formula_sum              "Sm2 Te6"
_cell_length_a       4.36816
_cell_length_b       4.36643
_cell_length_c       13.5148
_cell_angle_alpha    90
_cell_angle_beta     80.6998
_cell_angle_gamma    90

_space_group_name_H-M_alt    "P 1"
_space_group_IT_number       1

loop_
  _space_group_symop_operation_xyz
  'x, y, z'

loop_
  _atom_site_type_symbol
  _atom_site_label
  _atom_site_symmetry_multiplicity
  _atom_site_fract_x
  _atom_site_fract_y
  _atom_site_fract_z
  _atom_site_occupancy
  Sm  Sm1       1.0  0.82900  0.75000  0.34100  1.0000
  Sm  Sm2       1.0  0.17100  0.25000  0.65900  1.0000
  Te  Te1       1.0  0.92500  0.25000  0.15000  1.0000
  Te  Te2       1.0  0.42500  0.75000  0.15000  1.0000
  Te  Te3       1.0  0.29300  0.25000  0.41300  1.0000
  Te  Te4       1.0  0.70700  0.75000  0.58700  1.0000
  Te  Te5       1.0  0.57500  0.25000  0.85000  1.0000
  Te  Te6       1.0  0.07510  0.75000  0.85000  1.0000
