data_image0
_chemical_formula_structural       Ga4Na4O8
_chemical_formula_sum              "Ga4 Na4 O8"
_cell_length_a       5.29303
_cell_length_b       5.49896
_cell_length_c       7.17551
_cell_angle_alpha    90
_cell_angle_beta     90
_cell_angle_gamma    90

_space_group_name_H-M_alt    "P 1"
_space_group_IT_number       1

loop_
  _space_group_symop_operation_xyz
  'x, y, z'

loop_
  _atom_site_type_symbol
  _atom_site_label
  _atom_site_symmetry_multiplicity
  _atom_site_fract_x
  _atom_site_fract_y
  _atom_site_fract_z
  _atom_site_occupancy
  Ga  Ga1       1.0  0.99800  0.06450  0.12600  1.0000
  Ga  Ga2       1.0  0.99800  0.56500  0.37400  1.0000
  Ga  Ga3       1.0  0.49800  0.43500  0.62600  1.0000
  Ga  Ga4       1.0  0.49800  0.93500  0.87400  1.0000
  Na  Na1       1.0  0.51200  0.42900  0.12300  1.0000
  Na  Na2       1.0  0.51200  0.92900  0.37700  1.0000
  Na  Na3       1.0  0.01150  0.07080  0.62300  1.0000
  Na  Na4       1.0  0.01150  0.57100  0.87700  1.0000
  O   O1        1.0  0.65100  0.03970  0.09110  1.0000
  O   O2        1.0  0.08140  0.39100  0.16000  1.0000
  O   O3        1.0  0.08140  0.89100  0.34000  1.0000
  O   O4        1.0  0.65100  0.54000  0.40900  1.0000
  O   O5        1.0  0.15100  0.46000  0.59100  1.0000
  O   O6        1.0  0.58100  0.10900  0.66000  1.0000
  O   O7        1.0  0.58100  0.60900  0.84000  1.0000
  O   O8        1.0  0.15100  0.96000  0.90900  1.0000
