data_image0
_chemical_formula_structural       Co24Fe10Ho4
_chemical_formula_sum              "Co24 Fe10 Ho4"
_cell_length_a       8.30564
_cell_length_b       8.30619
_cell_length_c       8.08426
_cell_angle_alpha    90
_cell_angle_beta     90
_cell_angle_gamma    119.998

_space_group_name_H-M_alt    "P 1"
_space_group_IT_number       1

loop_
  _space_group_symop_operation_xyz
  'x, y, z'

loop_
  _atom_site_type_symbol
  _atom_site_label
  _atom_site_symmetry_multiplicity
  _atom_site_fract_x
  _atom_site_fract_y
  _atom_site_fract_z
  _atom_site_occupancy
  Co  Co1       1.0  0.32800  0.16400  0.01780  1.0000
  Co  Co2       1.0  0.83600  0.16400  0.01780  1.0000
  Co  Co3       1.0  0.83600  0.67200  0.01790  1.0000
  Co  Co4       1.0  0.04490  0.37200  0.25000  1.0000
  Co  Co5       1.0  0.32700  0.37200  0.25000  1.0000
  Co  Co6       1.0  0.04490  0.67300  0.25000  1.0000
  Co  Co7       1.0  0.62800  0.67300  0.25000  1.0000
  Co  Co8       1.0  0.32700  0.95500  0.25000  1.0000
  Co  Co9       1.0  0.62800  0.95500  0.25000  1.0000
  Co  Co10      1.0  0.83600  0.67200  0.48200  1.0000
  Co  Co11      1.0  0.32800  0.16400  0.48200  1.0000
  Co  Co12      1.0  0.83600  0.16400  0.48200  1.0000
  Co  Co13      1.0  0.16400  0.83600  0.51800  1.0000
  Co  Co14      1.0  0.67200  0.83600  0.51800  1.0000
  Co  Co15      1.0  0.16400  0.32800  0.51800  1.0000
  Co  Co16      1.0  0.37200  0.04490  0.75000  1.0000
  Co  Co17      1.0  0.67300  0.04490  0.75000  1.0000
  Co  Co18      1.0  0.37200  0.32700  0.75000  1.0000
  Co  Co19      1.0  0.95500  0.32700  0.75000  1.0000
  Co  Co20      1.0  0.67300  0.62800  0.75000  1.0000
  Co  Co21      1.0  0.95500  0.62800  0.75000  1.0000
  Co  Co22      1.0  0.16400  0.32800  0.98200  1.0000
  Co  Co23      1.0  0.16400  0.83600  0.98200  1.0000
  Co  Co24      1.0  0.67200  0.83600  0.98200  1.0000
  Fe  Fe1       1.0  0.50000  0.00000  0.00000  1.0000
  Fe  Fe2       1.0  0.00000  0.50000  0.00000  1.0000
  Fe  Fe3       1.0  0.50000  0.50000  0.00000  1.0000
  Fe  Fe4       1.0  0.33300  0.66700  0.10700  1.0000
  Fe  Fe5       1.0  0.33300  0.66700  0.39300  1.0000
  Fe  Fe6       1.0  0.50000  0.00000  0.50000  1.0000
  Fe  Fe7       1.0  0.00000  0.50000  0.50000  1.0000
  Fe  Fe8       1.0  0.50000  0.50000  0.50000  1.0000
  Fe  Fe9       1.0  0.66700  0.33300  0.60700  1.0000
  Fe  Fe10      1.0  0.66700  0.33300  0.89300  1.0000
  Ho  Ho1       1.0  0.00000  0.00000  0.25000  1.0000
  Ho  Ho2       1.0  0.66700  0.33300  0.25000  1.0000
  Ho  Ho3       1.0  0.00000  0.00000  0.75000  1.0000
  Ho  Ho4       1.0  0.33300  0.66700  0.75000  1.0000
