data_image0
_chemical_formula_structural       Ag8Ba8Si4Te18
_chemical_formula_sum              "Ag8 Ba8 Si4 Te18"
_cell_length_a       8.7264
_cell_length_b       13.7197
_cell_length_c       10.308
_cell_angle_alpha    90
_cell_angle_beta     90
_cell_angle_gamma    90

_space_group_name_H-M_alt    "P 1"
_space_group_IT_number       1

loop_
  _space_group_symop_operation_xyz
  'x, y, z'

loop_
  _atom_site_type_symbol
  _atom_site_label
  _atom_site_symmetry_multiplicity
  _atom_site_fract_x
  _atom_site_fract_y
  _atom_site_fract_z
  _atom_site_occupancy
  Ag  Ag1       1.0  0.26300  0.12500  0.00000  1.0000
  Ag  Ag2       1.0  0.76300  0.37500  0.00000  1.0000
  Ag  Ag3       1.0  0.23700  0.62500  0.00000  1.0000
  Ag  Ag4       1.0  0.73700  0.87500  0.00000  1.0000
  Ag  Ag5       1.0  0.50000  0.00000  0.14100  1.0000
  Ag  Ag6       1.0  0.00000  0.50000  0.14100  1.0000
  Ag  Ag7       1.0  0.50000  0.00000  0.85900  1.0000
  Ag  Ag8       1.0  0.00000  0.50000  0.85900  1.0000
  Ba  Ba1       1.0  0.88000  0.17500  0.24100  1.0000
  Ba  Ba2       1.0  0.38000  0.32500  0.24100  1.0000
  Ba  Ba3       1.0  0.62000  0.67500  0.24100  1.0000
  Ba  Ba4       1.0  0.12000  0.82500  0.24100  1.0000
  Ba  Ba5       1.0  0.88000  0.17500  0.75900  1.0000
  Ba  Ba6       1.0  0.38000  0.32500  0.75900  1.0000
  Ba  Ba7       1.0  0.62000  0.67500  0.75900  1.0000
  Ba  Ba8       1.0  0.12000  0.82500  0.75900  1.0000
  Si  Si1       1.0  0.42200  0.06990  0.50000  1.0000
  Si  Si2       1.0  0.92200  0.43000  0.50000  1.0000
  Si  Si3       1.0  0.07820  0.57000  0.50000  1.0000
  Si  Si4       1.0  0.57800  0.93000  0.50000  1.0000
  Te  Te1       1.0  0.00000  0.00000  0.00000  1.0000
  Te  Te2       1.0  0.58200  0.18700  0.00000  1.0000
  Te  Te3       1.0  0.08180  0.31300  0.00000  1.0000
  Te  Te4       1.0  0.50000  0.50000  0.00000  1.0000
  Te  Te5       1.0  0.91800  0.68700  0.00000  1.0000
  Te  Te6       1.0  0.41800  0.81300  0.00000  1.0000
  Te  Te7       1.0  0.25400  0.06340  0.29700  1.0000
  Te  Te8       1.0  0.75400  0.43700  0.29700  1.0000
  Te  Te9       1.0  0.24600  0.56300  0.29700  1.0000
  Te  Te10      1.0  0.74600  0.93700  0.29700  1.0000
  Te  Te11      1.0  0.59700  0.21600  0.50000  1.0000
  Te  Te12      1.0  0.09710  0.28400  0.50000  1.0000
  Te  Te13      1.0  0.90300  0.71600  0.50000  1.0000
  Te  Te14      1.0  0.40300  0.78400  0.50000  1.0000
  Te  Te15      1.0  0.25400  0.06340  0.70300  1.0000
  Te  Te16      1.0  0.75400  0.43700  0.70300  1.0000
  Te  Te17      1.0  0.24600  0.56300  0.70300  1.0000
  Te  Te18      1.0  0.74600  0.93700  0.70300  1.0000
