data_image0
_chemical_formula_structural       Na8O40V16
_chemical_formula_sum              "Na8 O40 V16"
_cell_length_a       9.46522
_cell_length_b       14.2903
_cell_length_c       11.8565
_cell_angle_alpha    41.1407
_cell_angle_beta     83.3594
_cell_angle_gamma    55.4999

_space_group_name_H-M_alt    "P 1"
_space_group_IT_number       1

loop_
  _space_group_symop_operation_xyz
  'x, y, z'

loop_
  _atom_site_type_symbol
  _atom_site_label
  _atom_site_symmetry_multiplicity
  _atom_site_fract_x
  _atom_site_fract_y
  _atom_site_fract_z
  _atom_site_occupancy
  Na  Na1       1.0  0.55700  0.55700  0.94300  1.0000
  Na  Na2       1.0  0.05710  0.05710  0.44300  1.0000
  Na  Na3       1.0  0.30700  0.30700  0.19300  1.0000
  Na  Na4       1.0  0.13100  0.13100  0.86900  1.0000
  Na  Na5       1.0  0.80700  0.80700  0.69300  1.0000
  Na  Na6       1.0  0.63100  0.63100  0.36900  1.0000
  Na  Na7       1.0  0.88100  0.88100  0.11900  1.0000
  Na  Na8       1.0  0.38200  0.38200  0.61800  1.0000
  O   O1        1.0  0.13100  0.30600  0.86900  1.0000
  O   O2        1.0  0.30600  0.13100  0.69400  1.0000
  O   O3        1.0  0.37900  0.56000  0.11700  1.0000
  O   O4        1.0  0.05610  0.88300  0.44000  1.0000
  O   O5        1.0  0.56000  0.37900  0.94400  1.0000
  O   O6        1.0  0.88300  0.05610  0.62100  1.0000
  O   O7        1.0  0.12700  0.31300  0.36500  1.0000
  O   O8        1.0  0.31300  0.12700  0.19600  1.0000
  O   O9        1.0  0.80400  0.63500  0.68700  1.0000
  O   O10       1.0  0.63500  0.80400  0.87300  1.0000
  O   O11       1.0  0.38100  0.55600  0.61900  1.0000
  O   O12       1.0  0.55600  0.38100  0.44400  1.0000
  O   O13       1.0  0.63100  0.80900  0.36900  1.0000
  O   O14       1.0  0.80900  0.63100  0.19100  1.0000
  O   O15       1.0  0.47700  0.97100  0.02880  1.0000
  O   O16       1.0  0.97100  0.47700  0.52300  1.0000
  O   O17       1.0  0.72800  0.22000  0.78000  1.0000
  O   O18       1.0  0.22000  0.72800  0.27200  1.0000
  O   O19       1.0  0.71600  0.21500  0.28400  1.0000
  O   O20       1.0  0.96400  0.46800  0.03630  1.0000
  O   O21       1.0  0.21500  0.71600  0.78500  1.0000
  O   O22       1.0  0.52300  0.16800  0.97400  1.0000
  O   O23       1.0  0.46800  0.96400  0.53200  1.0000
  O   O24       1.0  0.66500  0.02580  0.83200  1.0000
  O   O25       1.0  0.16800  0.52300  0.33500  1.0000
  O   O26       1.0  0.02580  0.66500  0.47700  1.0000
  O   O27       1.0  0.77300  0.41700  0.72500  1.0000
  O   O28       1.0  0.41700  0.77300  0.08510  1.0000
  O   O29       1.0  0.91500  0.27500  0.58300  1.0000
  O   O30       1.0  0.27500  0.91500  0.22700  1.0000
  O   O31       1.0  0.02600  0.66900  0.97400  1.0000
  O   O32       1.0  0.66900  0.02600  0.33100  1.0000
  O   O33       1.0  0.27100  0.91200  0.72900  1.0000
  O   O34       1.0  0.91200  0.27100  0.08830  1.0000
  O   O35       1.0  0.51800  0.15900  0.48200  1.0000
  O   O36       1.0  0.15900  0.51800  0.84100  1.0000
  O   O37       1.0  0.77400  0.41700  0.22600  1.0000
  O   O38       1.0  0.41700  0.77400  0.58300  1.0000
  O   O39       1.0  0.88000  0.05900  0.12000  1.0000
  O   O40       1.0  0.05900  0.88000  0.94100  1.0000
  V   V1        1.0  0.60200  0.26200  0.39800  1.0000
  V   V2        1.0  0.67500  0.32800  0.82600  1.0000
  V   V3        1.0  0.26200  0.60200  0.73800  1.0000
  V   V4        1.0  0.32800  0.67500  0.17100  1.0000
  V   V5        1.0  0.82900  0.17400  0.67200  1.0000
  V   V6        1.0  0.86200  0.51500  0.13800  1.0000
  V   V7        1.0  0.17400  0.82900  0.32500  1.0000
  V   V8        1.0  0.42500  0.07820  0.07600  1.0000
  V   V9        1.0  0.51500  0.86200  0.48500  1.0000
  V   V10       1.0  0.07820  0.42500  0.42100  1.0000
  V   V11       1.0  0.57900  0.92400  0.92200  1.0000
  V   V12       1.0  0.92400  0.57900  0.57500  1.0000
  V   V13       1.0  0.11600  0.76700  0.88400  1.0000
  V   V14       1.0  0.76700  0.11600  0.23300  1.0000
  V   V15       1.0  0.35600  0.01460  0.64400  1.0000
  V   V16       1.0  0.01460  0.35600  0.98500  1.0000
