data_image0
_chemical_formula_structural       F30Tl2Zr6
_chemical_formula_sum              "F30 Tl2 Zr6"
_cell_length_a       7.84696
_cell_length_b       7.84696
_cell_length_c       7.84696
_cell_angle_alpha    99.5726
_cell_angle_beta     99.5726
_cell_angle_gamma    99.5726

_space_group_name_H-M_alt    "P 1"
_space_group_IT_number       1

loop_
  _space_group_symop_operation_xyz
  'x, y, z'

loop_
  _atom_site_type_symbol
  _atom_site_label
  _atom_site_symmetry_multiplicity
  _atom_site_fract_x
  _atom_site_fract_y
  _atom_site_fract_z
  _atom_site_occupancy
  F   F1        1.0  0.75000  0.46900  0.03120  1.0000
  F   F2        1.0  0.78100  0.81000  0.03250  1.0000
  F   F3        1.0  0.66300  0.14500  0.04330  1.0000
  F   F4        1.0  0.04330  0.66300  0.14500  1.0000
  F   F5        1.0  0.54300  0.64500  0.16300  1.0000
  F   F6        1.0  0.96700  0.21900  0.19000  1.0000
  F   F7        1.0  0.19000  0.96700  0.21900  1.0000
  F   F8        1.0  0.53100  0.96900  0.25000  1.0000
  F   F9        1.0  0.53300  0.31000  0.28100  1.0000
  F   F10       1.0  0.28100  0.53300  0.31000  1.0000
  F   F11       1.0  0.85500  0.95700  0.33700  1.0000
  F   F12       1.0  0.83700  0.45700  0.35500  1.0000
  F   F13       1.0  0.35500  0.83700  0.45700  1.0000
  F   F14       1.0  0.69000  0.71900  0.46700  1.0000
  F   F15       1.0  0.03120  0.75000  0.46900  1.0000
  F   F16       1.0  0.96900  0.25000  0.53100  1.0000
  F   F17       1.0  0.31000  0.28100  0.53300  1.0000
  F   F18       1.0  0.64500  0.16300  0.54300  1.0000
  F   F19       1.0  0.16300  0.54300  0.64500  1.0000
  F   F20       1.0  0.14500  0.04330  0.66300  1.0000
  F   F21       1.0  0.71900  0.46700  0.69000  1.0000
  F   F22       1.0  0.46700  0.69000  0.71900  1.0000
  F   F23       1.0  0.46900  0.03120  0.75000  1.0000
  F   F24       1.0  0.81000  0.03250  0.78100  1.0000
  F   F25       1.0  0.03250  0.78100  0.81000  1.0000
  F   F26       1.0  0.45700  0.35500  0.83700  1.0000
  F   F27       1.0  0.95700  0.33700  0.85500  1.0000
  F   F28       1.0  0.33700  0.85500  0.95700  1.0000
  F   F29       1.0  0.21900  0.19000  0.96700  1.0000
  F   F30       1.0  0.25000  0.53100  0.96900  1.0000
  Tl  Tl1       1.0  0.25000  0.25000  0.25000  1.0000
  Tl  Tl2       1.0  0.75000  0.75000  0.75000  1.0000
  Zr  Zr1       1.0  0.31700  0.75000  0.18300  1.0000
  Zr  Zr2       1.0  0.81700  0.68300  0.25000  1.0000
  Zr  Zr3       1.0  0.75000  0.18300  0.31700  1.0000
  Zr  Zr4       1.0  0.25000  0.81700  0.68300  1.0000
  Zr  Zr5       1.0  0.18300  0.31700  0.75000  1.0000
  Zr  Zr6       1.0  0.68300  0.25000  0.81700  1.0000
