data_image0
_chemical_formula_structural       K2O24Si12
_chemical_formula_sum              "K2 O24 Si12"
_cell_length_a       13.7689
_cell_length_b       4.76299
_cell_length_c       8.57794
_cell_angle_alpha    90
_cell_angle_beta     90
_cell_angle_gamma    90

_space_group_name_H-M_alt    "P 1"
_space_group_IT_number       1

loop_
  _space_group_symop_operation_xyz
  'x, y, z'

loop_
  _atom_site_type_symbol
  _atom_site_label
  _atom_site_symmetry_multiplicity
  _atom_site_fract_x
  _atom_site_fract_y
  _atom_site_fract_z
  _atom_site_occupancy
  K   K1        1.0  0.50000  0.42300  0.36100  1.0000
  K   K2        1.0  0.00000  0.57700  0.86100  1.0000
  O   O1        1.0  0.21500  0.10800  0.10900  1.0000
  O   O2        1.0  0.78500  0.10800  0.10900  1.0000
  O   O3        1.0  0.40500  0.00000  0.11200  1.0000
  O   O4        1.0  0.59500  0.00000  0.11200  1.0000
  O   O5        1.0  0.09550  0.50500  0.19600  1.0000
  O   O6        1.0  0.90500  0.50500  0.19600  1.0000
  O   O7        1.0  0.28600  0.60600  0.20800  1.0000
  O   O8        1.0  0.71400  0.60600  0.20800  1.0000
  O   O9        1.0  0.00000  0.92200  0.33900  1.0000
  O   O10       1.0  0.21500  0.25400  0.40900  1.0000
  O   O11       1.0  0.78500  0.25400  0.40900  1.0000
  O   O12       1.0  0.00000  0.42200  0.46900  1.0000
  O   O13       1.0  0.28500  0.89200  0.60900  1.0000
  O   O14       1.0  0.71500  0.89200  0.60900  1.0000
  O   O15       1.0  0.09500  0.00039  0.61200  1.0000
  O   O16       1.0  0.90500  0.00039  0.61200  1.0000
  O   O17       1.0  0.40500  0.49500  0.69600  1.0000
  O   O18       1.0  0.59500  0.49500  0.69600  1.0000
  O   O19       1.0  0.21400  0.39400  0.70800  1.0000
  O   O20       1.0  0.78600  0.39400  0.70800  1.0000
  O   O21       1.0  0.50000  0.07790  0.83900  1.0000
  O   O22       1.0  0.28500  0.74600  0.90900  1.0000
  O   O23       1.0  0.71500  0.74600  0.90900  1.0000
  O   O24       1.0  0.50000  0.57800  0.96900  1.0000
  Si  Si1       1.0  0.50000  0.91700  0.00753  1.0000
  Si  Si2       1.0  0.29600  0.86500  0.08440  1.0000
  Si  Si3       1.0  0.70400  0.86500  0.08440  1.0000
  Si  Si4       1.0  0.20200  0.36600  0.23200  1.0000
  Si  Si5       1.0  0.79800  0.36600  0.23200  1.0000
  Si  Si6       1.0  0.00000  0.58700  0.30000  1.0000
  Si  Si7       1.0  0.00000  0.08340  0.50800  1.0000
  Si  Si8       1.0  0.20400  0.13500  0.58400  1.0000
  Si  Si9       1.0  0.79600  0.13500  0.58400  1.0000
  Si  Si10      1.0  0.29800  0.63400  0.73200  1.0000
  Si  Si11      1.0  0.70200  0.63400  0.73200  1.0000
  Si  Si12      1.0  0.50000  0.41300  0.80000  1.0000
