data_image0
_chemical_formula_structural       O8Y4
_chemical_formula_sum              "O8 Y4"
_cell_length_a       6.24939
_cell_length_b       6.14325
_cell_length_c       6.31069
_cell_angle_alpha    90
_cell_angle_beta     121.171
_cell_angle_gamma    90

_space_group_name_H-M_alt    "P 1"
_space_group_IT_number       1

loop_
  _space_group_symop_operation_xyz
  'x, y, z'

loop_
  _atom_site_type_symbol
  _atom_site_label
  _atom_site_symmetry_multiplicity
  _atom_site_fract_x
  _atom_site_fract_y
  _atom_site_fract_z
  _atom_site_occupancy
  O   O1        1.0  0.02720  0.13900  0.19000  1.0000
  O   O2        1.0  0.54600  0.88100  0.21500  1.0000
  O   O3        1.0  0.45400  0.38100  0.28500  1.0000
  O   O4        1.0  0.97300  0.63900  0.31000  1.0000
  O   O5        1.0  0.02720  0.36100  0.69000  1.0000
  O   O6        1.0  0.54600  0.61900  0.71500  1.0000
  O   O7        1.0  0.45400  0.11900  0.78500  1.0000
  O   O8        1.0  0.97300  0.86100  0.81000  1.0000
  Y   Y1        1.0  0.75200  0.87300  0.00373  1.0000
  Y   Y2        1.0  0.24800  0.37300  0.49600  1.0000
  Y   Y3        1.0  0.75200  0.62700  0.50400  1.0000
  Y   Y4        1.0  0.24800  0.12700  0.99600  1.0000
