data_image0
_chemical_formula_structural       O11Si4
_chemical_formula_sum              "O11 Si4"
_cell_length_a       10.0553
_cell_length_b       4.88201
_cell_length_c       4.48487
_cell_angle_alpha    108.965
_cell_angle_beta     103.771
_cell_angle_gamma    122.2

_space_group_name_H-M_alt    "P 1"
_space_group_IT_number       1

loop_
  _space_group_symop_operation_xyz
  'x, y, z'

loop_
  _atom_site_type_symbol
  _atom_site_label
  _atom_site_symmetry_multiplicity
  _atom_site_fract_x
  _atom_site_fract_y
  _atom_site_fract_z
  _atom_site_occupancy
  O   O1        1.0  0.30200  0.04870  0.20300  1.0000
  O   O2        1.0  0.56900  0.10600  0.22200  1.0000
  O   O3        1.0  0.02010  0.68400  0.26100  1.0000
  O   O4        1.0  0.15400  0.34200  0.26700  1.0000
  O   O5        1.0  0.85800  0.10500  0.33500  1.0000
  O   O6        1.0  0.33500  0.66000  0.61100  1.0000
  O   O7        1.0  0.16000  0.92900  0.65400  1.0000
  O   O8        1.0  0.98700  0.36500  0.72900  1.0000
  O   O9        1.0  0.70000  0.96100  0.77600  1.0000
  O   O10       1.0  0.89700  0.78700  0.78100  1.0000
  O   O11       1.0  0.51400  0.44500  0.95300  1.0000
  Si  Si1       1.0  0.62200  0.86800  0.04150  1.0000
  Si  Si2       1.0  0.40000  0.06040  0.96000  1.0000
  Si  Si3       1.0  0.09200  0.88600  0.98500  1.0000
  Si  Si4       1.0  0.92300  0.17500  0.99900  1.0000
