data_image0
_chemical_formula_structural       Na8O6Sn
_chemical_formula_sum              "Na8 O6 Sn1"
_cell_length_a       6.26998
_cell_length_b       6.26998
_cell_length_c       6.69
_cell_angle_alpha    62.056
_cell_angle_beta     117.944
_cell_angle_gamma    120

_space_group_name_H-M_alt    "P 1"
_space_group_IT_number       1

loop_
  _space_group_symop_operation_xyz
  'x, y, z'

loop_
  _atom_site_type_symbol
  _atom_site_label
  _atom_site_symmetry_multiplicity
  _atom_site_fract_x
  _atom_site_fract_y
  _atom_site_fract_z
  _atom_site_occupancy
  Na  Na1       1.0  0.34000  0.66000  0.02140  1.0000
  Na  Na2       1.0  0.75400  0.50100  0.34700  1.0000
  Na  Na3       1.0  0.49900  0.90600  0.34700  1.0000
  Na  Na4       1.0  0.09390  0.24600  0.34700  1.0000
  Na  Na5       1.0  0.90600  0.75400  0.65300  1.0000
  Na  Na6       1.0  0.50100  0.09390  0.65300  1.0000
  Na  Na7       1.0  0.24600  0.49900  0.65300  1.0000
  Na  Na8       1.0  0.66000  0.34000  0.97900  1.0000
  O   O1        1.0  0.77800  0.91400  0.21800  1.0000
  O   O2        1.0  0.35400  0.22200  0.21800  1.0000
  O   O3        1.0  0.08630  0.64600  0.21800  1.0000
  O   O4        1.0  0.91400  0.35400  0.78200  1.0000
  O   O5        1.0  0.64600  0.77800  0.78200  1.0000
  O   O6        1.0  0.22200  0.08630  0.78200  1.0000
  Sn  Sn1       1.0  0.00000  0.00000  0.00000  1.0000
