data_image0
_chemical_formula_structural       Ga10Lu4Ni24
_chemical_formula_sum              "Ga10 Lu4 Ni24"
_cell_length_a       8.41616
_cell_length_b       8.41692
_cell_length_c       8.25595
_cell_angle_alpha    90
_cell_angle_beta     90
_cell_angle_gamma    119.997

_space_group_name_H-M_alt    "P 1"
_space_group_IT_number       1

loop_
  _space_group_symop_operation_xyz
  'x, y, z'

loop_
  _atom_site_type_symbol
  _atom_site_label
  _atom_site_symmetry_multiplicity
  _atom_site_fract_x
  _atom_site_fract_y
  _atom_site_fract_z
  _atom_site_occupancy
  Ga  Ga1       1.0  0.50000  0.00000  0.00000  1.0000
  Ga  Ga2       1.0  0.00000  0.50000  0.00000  1.0000
  Ga  Ga3       1.0  0.50000  0.50000  0.00000  1.0000
  Ga  Ga4       1.0  0.33300  0.66700  0.10500  1.0000
  Ga  Ga5       1.0  0.33300  0.66700  0.39500  1.0000
  Ga  Ga6       1.0  0.50000  0.00000  0.50000  1.0000
  Ga  Ga7       1.0  0.00000  0.50000  0.50000  1.0000
  Ga  Ga8       1.0  0.50000  0.50000  0.50000  1.0000
  Ga  Ga9       1.0  0.66700  0.33300  0.60500  1.0000
  Ga  Ga10      1.0  0.66700  0.33300  0.89500  1.0000
  Lu  Lu1       1.0  0.00000  0.00000  0.25000  1.0000
  Lu  Lu2       1.0  0.66700  0.33300  0.25000  1.0000
  Lu  Lu3       1.0  0.00000  0.00000  0.75000  1.0000
  Lu  Lu4       1.0  0.33300  0.66700  0.75000  1.0000
  Ni  Ni1       1.0  0.33200  0.16600  0.01550  1.0000
  Ni  Ni2       1.0  0.83400  0.16600  0.01550  1.0000
  Ni  Ni3       1.0  0.83400  0.66800  0.01550  1.0000
  Ni  Ni4       1.0  0.02770  0.35300  0.25000  1.0000
  Ni  Ni5       1.0  0.32500  0.35300  0.25000  1.0000
  Ni  Ni6       1.0  0.02770  0.67500  0.25000  1.0000
  Ni  Ni7       1.0  0.64700  0.67500  0.25000  1.0000
  Ni  Ni8       1.0  0.32500  0.97200  0.25000  1.0000
  Ni  Ni9       1.0  0.64700  0.97200  0.25000  1.0000
  Ni  Ni10      1.0  0.33200  0.16600  0.48500  1.0000
  Ni  Ni11      1.0  0.83400  0.16600  0.48500  1.0000
  Ni  Ni12      1.0  0.83400  0.66800  0.48500  1.0000
  Ni  Ni13      1.0  0.16600  0.33200  0.51500  1.0000
  Ni  Ni14      1.0  0.16600  0.83400  0.51500  1.0000
  Ni  Ni15      1.0  0.66800  0.83400  0.51500  1.0000
  Ni  Ni16      1.0  0.35300  0.02770  0.75000  1.0000
  Ni  Ni17      1.0  0.67500  0.02770  0.75000  1.0000
  Ni  Ni18      1.0  0.35300  0.32500  0.75000  1.0000
  Ni  Ni19      1.0  0.97200  0.32500  0.75000  1.0000
  Ni  Ni20      1.0  0.67500  0.64700  0.75000  1.0000
  Ni  Ni21      1.0  0.97200  0.64700  0.75000  1.0000
  Ni  Ni22      1.0  0.16600  0.33200  0.98500  1.0000
  Ni  Ni23      1.0  0.16600  0.83400  0.98500  1.0000
  Ni  Ni24      1.0  0.66800  0.83400  0.98500  1.0000
