data_image0
_chemical_formula_structural       Co24Er4Ni10
_chemical_formula_sum              "Co24 Er4 Ni10"
_cell_length_a       8.24972
_cell_length_b       8.24879
_cell_length_c       7.97797
_cell_angle_alpha    90
_cell_angle_beta     90
_cell_angle_gamma    120.004

_space_group_name_H-M_alt    "P 1"
_space_group_IT_number       1

loop_
  _space_group_symop_operation_xyz
  'x, y, z'

loop_
  _atom_site_type_symbol
  _atom_site_label
  _atom_site_symmetry_multiplicity
  _atom_site_fract_x
  _atom_site_fract_y
  _atom_site_fract_z
  _atom_site_occupancy
  Co  Co1       1.0  0.32500  0.16300  0.02480  1.0000
  Co  Co2       1.0  0.83700  0.16300  0.02480  1.0000
  Co  Co3       1.0  0.83700  0.67500  0.02480  1.0000
  Co  Co4       1.0  0.04840  0.37500  0.25000  1.0000
  Co  Co5       1.0  0.32600  0.37500  0.25000  1.0000
  Co  Co6       1.0  0.04850  0.67400  0.25000  1.0000
  Co  Co7       1.0  0.62500  0.67400  0.25000  1.0000
  Co  Co8       1.0  0.32600  0.95200  0.25000  1.0000
  Co  Co9       1.0  0.62500  0.95200  0.25000  1.0000
  Co  Co10      1.0  0.83700  0.67500  0.47500  1.0000
  Co  Co11      1.0  0.32500  0.16300  0.47500  1.0000
  Co  Co12      1.0  0.83700  0.16300  0.47500  1.0000
  Co  Co13      1.0  0.16300  0.83700  0.52500  1.0000
  Co  Co14      1.0  0.67500  0.83700  0.52500  1.0000
  Co  Co15      1.0  0.16300  0.32500  0.52500  1.0000
  Co  Co16      1.0  0.37500  0.04850  0.75000  1.0000
  Co  Co17      1.0  0.67400  0.04850  0.75000  1.0000
  Co  Co18      1.0  0.37500  0.32600  0.75000  1.0000
  Co  Co19      1.0  0.95200  0.32600  0.75000  1.0000
  Co  Co20      1.0  0.67400  0.62500  0.75000  1.0000
  Co  Co21      1.0  0.95200  0.62500  0.75000  1.0000
  Co  Co22      1.0  0.16300  0.32500  0.97500  1.0000
  Co  Co23      1.0  0.16300  0.83700  0.97500  1.0000
  Co  Co24      1.0  0.67500  0.83700  0.97500  1.0000
  Er  Er1       1.0  0.00000  0.00000  0.25000  1.0000
  Er  Er2       1.0  0.66700  0.33300  0.25000  1.0000
  Er  Er3       1.0  0.00000  0.00000  0.75000  1.0000
  Er  Er4       1.0  0.33300  0.66700  0.75000  1.0000
  Ni  Ni1       1.0  0.50000  0.00000  0.00000  1.0000
  Ni  Ni2       1.0  0.00000  0.50000  0.00000  1.0000
  Ni  Ni3       1.0  0.50000  0.50000  0.00000  1.0000
  Ni  Ni4       1.0  0.33300  0.66700  0.09890  1.0000
  Ni  Ni5       1.0  0.33300  0.66700  0.40100  1.0000
  Ni  Ni6       1.0  0.50000  0.00000  0.50000  1.0000
  Ni  Ni7       1.0  0.00000  0.50000  0.50000  1.0000
  Ni  Ni8       1.0  0.50000  0.50000  0.50000  1.0000
  Ni  Ni9       1.0  0.66700  0.33300  0.59900  1.0000
  Ni  Ni10      1.0  0.66700  0.33300  0.90100  1.0000
