data_image0
_chemical_formula_structural       Co30Ga4Y4
_chemical_formula_sum              "Co30 Ga4 Y4"
_cell_length_a       8.34008
_cell_length_b       8.33966
_cell_length_c       8.17407
_cell_angle_alpha    90
_cell_angle_beta     90
_cell_angle_gamma    120.002

_space_group_name_H-M_alt    "P 1"
_space_group_IT_number       1

loop_
  _space_group_symop_operation_xyz
  'x, y, z'

loop_
  _atom_site_type_symbol
  _atom_site_label
  _atom_site_symmetry_multiplicity
  _atom_site_fract_x
  _atom_site_fract_y
  _atom_site_fract_z
  _atom_site_occupancy
  Co  Co1       1.0  0.50000  0.00000  0.00000  1.0000
  Co  Co2       1.0  0.00000  0.50000  0.00000  1.0000
  Co  Co3       1.0  0.50000  0.50000  0.00000  1.0000
  Co  Co4       1.0  0.83700  0.67400  0.02530  1.0000
  Co  Co5       1.0  0.32600  0.16300  0.02530  1.0000
  Co  Co6       1.0  0.83700  0.16300  0.02530  1.0000
  Co  Co7       1.0  0.04670  0.37400  0.25000  1.0000
  Co  Co8       1.0  0.32800  0.37400  0.25000  1.0000
  Co  Co9       1.0  0.04670  0.67200  0.25000  1.0000
  Co  Co10      1.0  0.62600  0.67200  0.25000  1.0000
  Co  Co11      1.0  0.32800  0.95300  0.25000  1.0000
  Co  Co12      1.0  0.62600  0.95300  0.25000  1.0000
  Co  Co13      1.0  0.32600  0.16300  0.47500  1.0000
  Co  Co14      1.0  0.83700  0.16300  0.47500  1.0000
  Co  Co15      1.0  0.83700  0.67400  0.47500  1.0000
  Co  Co16      1.0  0.50000  0.00000  0.50000  1.0000
  Co  Co17      1.0  0.00000  0.50000  0.50000  1.0000
  Co  Co18      1.0  0.50000  0.50000  0.50000  1.0000
  Co  Co19      1.0  0.16300  0.32600  0.52500  1.0000
  Co  Co20      1.0  0.16300  0.83700  0.52500  1.0000
  Co  Co21      1.0  0.67400  0.83700  0.52500  1.0000
  Co  Co22      1.0  0.37400  0.04670  0.75000  1.0000
  Co  Co23      1.0  0.67200  0.04670  0.75000  1.0000
  Co  Co24      1.0  0.37400  0.32800  0.75000  1.0000
  Co  Co25      1.0  0.95300  0.32800  0.75000  1.0000
  Co  Co26      1.0  0.67200  0.62600  0.75000  1.0000
  Co  Co27      1.0  0.95300  0.62600  0.75000  1.0000
  Co  Co28      1.0  0.16300  0.83700  0.97500  1.0000
  Co  Co29      1.0  0.67400  0.83700  0.97500  1.0000
  Co  Co30      1.0  0.16300  0.32600  0.97500  1.0000
  Ga  Ga1       1.0  0.33300  0.66700  0.09600  1.0000
  Ga  Ga2       1.0  0.33300  0.66700  0.40400  1.0000
  Ga  Ga3       1.0  0.66700  0.33300  0.59600  1.0000
  Ga  Ga4       1.0  0.66700  0.33300  0.90400  1.0000
  Y   Y1        1.0  0.00000  0.00000  0.25000  1.0000
  Y   Y2        1.0  0.66700  0.33300  0.25000  1.0000
  Y   Y3        1.0  0.00000  0.00000  0.75000  1.0000
  Y   Y4        1.0  0.33300  0.66700  0.75000  1.0000
