data_image0
_chemical_formula_structural       Ba2Fe12O22Zn2
_chemical_formula_sum              "Ba2 Fe12 O22 Zn2"
_cell_length_a       5.89312
_cell_length_b       5.89312
_cell_length_c       14.9211
_cell_angle_alpha    78.6106
_cell_angle_beta     101.389
_cell_angle_gamma    120

_space_group_name_H-M_alt    "P 1"
_space_group_IT_number       1

loop_
  _space_group_symop_operation_xyz
  'x, y, z'

loop_
  _atom_site_type_symbol
  _atom_site_label
  _atom_site_symmetry_multiplicity
  _atom_site_fract_x
  _atom_site_fract_y
  _atom_site_fract_z
  _atom_site_occupancy
  Ba  Ba1       1.0  0.70100  0.29900  0.10300  1.0000
  Ba  Ba2       1.0  0.29900  0.70100  0.89700  1.0000
  Fe  Fe1       1.0  0.00000  0.00000  0.00000  1.0000
  Fe  Fe2       1.0  0.37600  0.62400  0.12700  1.0000
  Fe  Fe3       1.0  0.06570  0.93400  0.19700  1.0000
  Fe  Fe4       1.0  0.10500  0.38700  0.33100  1.0000
  Fe  Fe5       1.0  0.61300  0.38700  0.33100  1.0000
  Fe  Fe6       1.0  0.61300  0.89500  0.33100  1.0000
  Fe  Fe7       1.0  0.50000  0.50000  0.50000  1.0000
  Fe  Fe8       1.0  0.38700  0.10500  0.66900  1.0000
  Fe  Fe9       1.0  0.38700  0.61300  0.66900  1.0000
  Fe  Fe10      1.0  0.89500  0.61300  0.66900  1.0000
  Fe  Fe11      1.0  0.93400  0.06570  0.80300  1.0000
  Fe  Fe12      1.0  0.62400  0.37600  0.87300  1.0000
  O   O1        1.0  0.18600  0.28600  0.08610  1.0000
  O   O2        1.0  0.18600  0.81400  0.08610  1.0000
  O   O3        1.0  0.71400  0.81400  0.08610  1.0000
  O   O4        1.0  0.42800  0.08760  0.25300  1.0000
  O   O5        1.0  0.91200  0.08760  0.25300  1.0000
  O   O6        1.0  0.91200  0.57200  0.25300  1.0000
  O   O7        1.0  0.41900  0.58100  0.25700  1.0000
  O   O8        1.0  0.80200  0.19800  0.40600  1.0000
  O   O9        1.0  0.31800  0.22400  0.41200  1.0000
  O   O10       1.0  0.31800  0.68200  0.41200  1.0000
  O   O11       1.0  0.77600  0.68200  0.41200  1.0000
  O   O12       1.0  0.22400  0.31800  0.58800  1.0000
  O   O13       1.0  0.68200  0.31800  0.58800  1.0000
  O   O14       1.0  0.68200  0.77600  0.58800  1.0000
  O   O15       1.0  0.19800  0.80200  0.59400  1.0000
  O   O16       1.0  0.58100  0.41900  0.74300  1.0000
  O   O17       1.0  0.08760  0.42800  0.74700  1.0000
  O   O18       1.0  0.08760  0.91200  0.74700  1.0000
  O   O19       1.0  0.57200  0.91200  0.74700  1.0000
  O   O20       1.0  0.28600  0.18600  0.91400  1.0000
  O   O21       1.0  0.81400  0.18600  0.91400  1.0000
  O   O22       1.0  0.81400  0.71400  0.91400  1.0000
  Zn  Zn1       1.0  0.15200  0.84800  0.45700  1.0000
  Zn  Zn2       1.0  0.84800  0.15200  0.54300  1.0000
