data_image0
_chemical_formula_structural       K6O24S6Yb2
_chemical_formula_sum              "K6 O24 S6 Yb2"
_cell_length_a       9.02351
_cell_length_b       9.02351
_cell_length_c       8.45342
_cell_angle_alpha    105.867
_cell_angle_beta     105.867
_cell_angle_gamma    111.826

_space_group_name_H-M_alt    "P 1"
_space_group_IT_number       1

loop_
  _space_group_symop_operation_xyz
  'x, y, z'

loop_
  _atom_site_type_symbol
  _atom_site_label
  _atom_site_symmetry_multiplicity
  _atom_site_fract_x
  _atom_site_fract_y
  _atom_site_fract_z
  _atom_site_occupancy
  K   K1        1.0  0.81000  0.73800  0.05120  1.0000
  K   K2        1.0  0.19000  0.19200  0.18400  1.0000
  K   K3        1.0  0.05490  0.54100  0.38900  1.0000
  K   K4        1.0  0.73800  0.81000  0.55100  1.0000
  K   K5        1.0  0.19200  0.19000  0.68400  1.0000
  K   K6        1.0  0.54100  0.05490  0.88900  1.0000
  O   O1        1.0  0.04780  0.62100  0.03630  1.0000
  O   O2        1.0  0.61600  0.91400  0.12800  1.0000
  O   O3        1.0  0.51700  0.59600  0.20000  1.0000
  O   O4        1.0  0.30600  0.93100  0.20800  1.0000
  O   O5        1.0  0.76000  0.53800  0.22500  1.0000
  O   O6        1.0  0.53600  0.38100  0.31200  1.0000
  O   O7        1.0  0.77800  0.23100  0.32100  1.0000
  O   O8        1.0  0.92900  0.05170  0.33400  1.0000
  O   O9        1.0  0.14800  0.86600  0.40200  1.0000
  O   O10       1.0  0.38400  0.16000  0.49300  1.0000
  O   O11       1.0  0.44500  0.91500  0.49400  1.0000
  O   O12       1.0  0.31100  0.46500  0.49500  1.0000
  O   O13       1.0  0.62100  0.04780  0.53600  1.0000
  O   O14       1.0  0.91400  0.61600  0.62800  1.0000
  O   O15       1.0  0.59600  0.51700  0.70000  1.0000
  O   O16       1.0  0.93100  0.30600  0.70800  1.0000
  O   O17       1.0  0.53800  0.76000  0.72500  1.0000
  O   O18       1.0  0.38100  0.53600  0.81200  1.0000
  O   O19       1.0  0.23100  0.77800  0.82100  1.0000
  O   O20       1.0  0.05170  0.92900  0.83400  1.0000
  O   O21       1.0  0.86600  0.14800  0.90200  1.0000
  O   O22       1.0  0.16000  0.38400  0.99300  1.0000
  O   O23       1.0  0.91500  0.44500  0.99400  1.0000
  O   O24       1.0  0.46500  0.31100  0.99500  1.0000
  S   S1        1.0  0.57000  0.45400  0.17900  1.0000
  S   S2        1.0  0.75900  0.05560  0.31000  1.0000
  S   S3        1.0  0.30800  0.97000  0.38900  1.0000
  S   S4        1.0  0.45400  0.57000  0.67900  1.0000
  S   S5        1.0  0.05560  0.75900  0.81000  1.0000
  S   S6        1.0  0.97000  0.30800  0.88900  1.0000
  Yb  Yb1       1.0  0.34000  0.67900  0.04100  1.0000
  Yb  Yb2       1.0  0.67900  0.34000  0.54100  1.0000
