data_image0
_chemical_formula_structural       O24Rb6S6Tm2
_chemical_formula_sum              "O24 Rb6 S6 Tm2"
_cell_length_a       9.30437
_cell_length_b       9.30849
_cell_length_c       9.10261
_cell_angle_alpha    108.912
_cell_angle_beta     108.879
_cell_angle_gamma    110.582

_space_group_name_H-M_alt    "P 1"
_space_group_IT_number       1

loop_
  _space_group_symop_operation_xyz
  'x, y, z'

loop_
  _atom_site_type_symbol
  _atom_site_label
  _atom_site_symmetry_multiplicity
  _atom_site_fract_x
  _atom_site_fract_y
  _atom_site_fract_z
  _atom_site_occupancy
  O   O1        1.0  0.59600  0.98000  0.04350  1.0000
  O   O2        1.0  0.36000  0.65800  0.11500  1.0000
  O   O3        1.0  0.08360  0.40000  0.11500  1.0000
  O   O4        1.0  0.20800  0.95800  0.13800  1.0000
  O   O5        1.0  0.01660  0.07890  0.15600  1.0000
  O   O6        1.0  0.88600  0.58200  0.26300  1.0000
  O   O7        1.0  0.87800  0.32200  0.28200  1.0000
  O   O8        1.0  0.40000  0.53500  0.31000  1.0000
  O   O9        1.0  0.06170  0.92300  0.31400  1.0000
  O   O10       1.0  0.66400  0.40100  0.31400  1.0000
  O   O11       1.0  0.25600  0.70600  0.36300  1.0000
  O   O12       1.0  0.76200  0.89000  0.48900  1.0000
  O   O13       1.0  0.98000  0.59600  0.54300  1.0000
  O   O14       1.0  0.65800  0.36000  0.61500  1.0000
  O   O15       1.0  0.40000  0.08360  0.61500  1.0000
  O   O16       1.0  0.95800  0.20800  0.63800  1.0000
  O   O17       1.0  0.07890  0.01660  0.65600  1.0000
  O   O18       1.0  0.58200  0.88600  0.76300  1.0000
  O   O19       1.0  0.32200  0.87800  0.78200  1.0000
  O   O20       1.0  0.53500  0.40000  0.81000  1.0000
  O   O21       1.0  0.92300  0.06170  0.81300  1.0000
  O   O22       1.0  0.40100  0.66400  0.81400  1.0000
  O   O23       1.0  0.70600  0.25600  0.86300  1.0000
  O   O24       1.0  0.89000  0.76200  0.98900  1.0000
  Rb  Rb1       1.0  0.31200  0.21300  0.04030  1.0000
  Rb  Rb2       1.0  0.65600  0.69300  0.12800  1.0000
  Rb  Rb3       1.0  0.54600  0.03110  0.36500  1.0000
  Rb  Rb4       1.0  0.21300  0.31200  0.54000  1.0000
  Rb  Rb5       1.0  0.69300  0.65600  0.62800  1.0000
  Rb  Rb6       1.0  0.03100  0.54600  0.86500  1.0000
  S   S1        1.0  0.04480  0.92600  0.14500  1.0000
  S   S2        1.0  0.23400  0.52200  0.30900  1.0000
  S   S3        1.0  0.84500  0.47000  0.34800  1.0000
  S   S4        1.0  0.92600  0.04480  0.64500  1.0000
  S   S5        1.0  0.52200  0.23400  0.80900  1.0000
  S   S6        1.0  0.47000  0.84500  0.84800  1.0000
  Tm  Tm1       1.0  0.83300  0.14900  0.00920  1.0000
  Tm  Tm2       1.0  0.14900  0.83300  0.50900  1.0000
