data_image0
_chemical_formula_structural       Co30Cr4Ho4
_chemical_formula_sum              "Co30 Cr4 Ho4"
_cell_length_a       8.27111
_cell_length_b       8.27024
_cell_length_c       8.03058
_cell_angle_alpha    90
_cell_angle_beta     90
_cell_angle_gamma    120.003

_space_group_name_H-M_alt    "P 1"
_space_group_IT_number       1

loop_
  _space_group_symop_operation_xyz
  'x, y, z'

loop_
  _atom_site_type_symbol
  _atom_site_label
  _atom_site_symmetry_multiplicity
  _atom_site_fract_x
  _atom_site_fract_y
  _atom_site_fract_z
  _atom_site_occupancy
  Co  Co1       1.0  0.50000  0.00000  0.00000  1.0000
  Co  Co2       1.0  0.00000  0.50000  0.00000  1.0000
  Co  Co3       1.0  0.50000  0.50000  0.00000  1.0000
  Co  Co4       1.0  0.83300  0.66700  0.02020  1.0000
  Co  Co5       1.0  0.33300  0.16700  0.02020  1.0000
  Co  Co6       1.0  0.83300  0.16700  0.02020  1.0000
  Co  Co7       1.0  0.03830  0.36600  0.25000  1.0000
  Co  Co8       1.0  0.32800  0.36600  0.25000  1.0000
  Co  Co9       1.0  0.03830  0.67200  0.25000  1.0000
  Co  Co10      1.0  0.63400  0.67200  0.25000  1.0000
  Co  Co11      1.0  0.32800  0.96200  0.25000  1.0000
  Co  Co12      1.0  0.63400  0.96200  0.25000  1.0000
  Co  Co13      1.0  0.33300  0.16700  0.48000  1.0000
  Co  Co14      1.0  0.83300  0.16700  0.48000  1.0000
  Co  Co15      1.0  0.83300  0.66700  0.48000  1.0000
  Co  Co16      1.0  0.50000  0.00000  0.50000  1.0000
  Co  Co17      1.0  0.00000  0.50000  0.50000  1.0000
  Co  Co18      1.0  0.50000  0.50000  0.50000  1.0000
  Co  Co19      1.0  0.16700  0.33300  0.52000  1.0000
  Co  Co20      1.0  0.16700  0.83300  0.52000  1.0000
  Co  Co21      1.0  0.66700  0.83300  0.52000  1.0000
  Co  Co22      1.0  0.36600  0.03840  0.75000  1.0000
  Co  Co23      1.0  0.67200  0.03840  0.75000  1.0000
  Co  Co24      1.0  0.36600  0.32800  0.75000  1.0000
  Co  Co25      1.0  0.96200  0.32800  0.75000  1.0000
  Co  Co26      1.0  0.67200  0.63400  0.75000  1.0000
  Co  Co27      1.0  0.96200  0.63400  0.75000  1.0000
  Co  Co28      1.0  0.16700  0.83300  0.98000  1.0000
  Co  Co29      1.0  0.66700  0.83300  0.98000  1.0000
  Co  Co30      1.0  0.16700  0.33300  0.98000  1.0000
  Cr  Cr1       1.0  0.33300  0.66700  0.12700  1.0000
  Cr  Cr2       1.0  0.33300  0.66700  0.37300  1.0000
  Cr  Cr3       1.0  0.66700  0.33300  0.62700  1.0000
  Cr  Cr4       1.0  0.66700  0.33300  0.87300  1.0000
  Ho  Ho1       1.0  0.00000  0.00000  0.25000  1.0000
  Ho  Ho2       1.0  0.66700  0.33300  0.25000  1.0000
  Ho  Ho3       1.0  0.00000  0.00000  0.75000  1.0000
  Ho  Ho4       1.0  0.33300  0.66700  0.75000  1.0000
