data_image0
_chemical_formula_structural       Cl4H24Os2P8
_chemical_formula_sum              "Cl4 H24 Os2 P8"
_cell_length_a       6.51197
_cell_length_b       6.51197
_cell_length_c       11.5394
_cell_angle_alpha    90
_cell_angle_beta     90
_cell_angle_gamma    90

_space_group_name_H-M_alt    "P 1"
_space_group_IT_number       1

loop_
  _space_group_symop_operation_xyz
  'x, y, z'

loop_
  _atom_site_type_symbol
  _atom_site_label
  _atom_site_symmetry_multiplicity
  _atom_site_fract_x
  _atom_site_fract_y
  _atom_site_fract_z
  _atom_site_occupancy
  Cl  Cl1       1.0  0.23400  0.23400  0.00000  1.0000
  Cl  Cl2       1.0  0.76600  0.76600  0.00000  1.0000
  Cl  Cl3       1.0  0.73400  0.26600  0.50000  1.0000
  Cl  Cl4       1.0  0.26600  0.73400  0.50000  1.0000
  H   H1        1.0  0.66400  0.10200  0.13900  1.0000
  H   H2        1.0  0.89800  0.33600  0.13900  1.0000
  H   H3        1.0  0.10200  0.66400  0.13900  1.0000
  H   H4        1.0  0.33600  0.89800  0.13900  1.0000
  H   H5        1.0  0.14200  0.14200  0.24100  1.0000
  H   H6        1.0  0.85800  0.85800  0.24100  1.0000
  H   H7        1.0  0.64200  0.35800  0.25900  1.0000
  H   H8        1.0  0.35800  0.64200  0.25900  1.0000
  H   H9        1.0  0.39800  0.16400  0.36100  1.0000
  H   H10       1.0  0.16400  0.39800  0.36100  1.0000
  H   H11       1.0  0.83600  0.60200  0.36100  1.0000
  H   H12       1.0  0.60200  0.83600  0.36100  1.0000
  H   H13       1.0  0.39800  0.16400  0.63900  1.0000
  H   H14       1.0  0.16400  0.39800  0.63900  1.0000
  H   H15       1.0  0.83600  0.60200  0.63900  1.0000
  H   H16       1.0  0.60200  0.83600  0.63900  1.0000
  H   H17       1.0  0.64200  0.35800  0.74100  1.0000
  H   H18       1.0  0.35800  0.64200  0.74100  1.0000
  H   H19       1.0  0.14200  0.14200  0.75900  1.0000
  H   H20       1.0  0.85800  0.85800  0.75900  1.0000
  H   H21       1.0  0.66400  0.10200  0.86100  1.0000
  H   H22       1.0  0.89800  0.33600  0.86100  1.0000
  H   H23       1.0  0.10200  0.66400  0.86100  1.0000
  H   H24       1.0  0.33600  0.89800  0.86100  1.0000
  Os  Os1       1.0  0.50000  0.50000  0.00000  1.0000
  Os  Os2       1.0  0.00000  0.00000  0.50000  1.0000
  P   P1        1.0  0.68000  0.32000  0.13900  1.0000
  P   P2        1.0  0.32000  0.68000  0.13900  1.0000
  P   P3        1.0  0.18000  0.18000  0.36100  1.0000
  P   P4        1.0  0.82000  0.82000  0.36100  1.0000
  P   P5        1.0  0.18000  0.18000  0.63900  1.0000
  P   P6        1.0  0.82000  0.82000  0.63900  1.0000
  P   P7        1.0  0.68000  0.32000  0.86100  1.0000
  P   P8        1.0  0.32000  0.68000  0.86100  1.0000
