data_image0
_chemical_formula_structural       Co8Ge20Tm10
_chemical_formula_sum              "Co8 Ge20 Tm10"
_cell_length_a       12.6639
_cell_length_b       12.6639
_cell_length_c       4.1519
_cell_angle_alpha    90
_cell_angle_beta     90
_cell_angle_gamma    90

_space_group_name_H-M_alt    "P 1"
_space_group_IT_number       1

loop_
  _space_group_symop_operation_xyz
  'x, y, z'

loop_
  _atom_site_type_symbol
  _atom_site_label
  _atom_site_symmetry_multiplicity
  _atom_site_fract_x
  _atom_site_fract_y
  _atom_site_fract_z
  _atom_site_occupancy
  Co  Co1       1.0  0.24500  0.02490  0.00000  1.0000
  Co  Co2       1.0  0.97500  0.24500  0.00000  1.0000
  Co  Co3       1.0  0.47500  0.25500  0.00000  1.0000
  Co  Co4       1.0  0.74500  0.47500  0.00000  1.0000
  Co  Co5       1.0  0.25500  0.52500  0.00000  1.0000
  Co  Co6       1.0  0.52500  0.74500  0.00000  1.0000
  Co  Co7       1.0  0.02490  0.75500  0.00000  1.0000
  Co  Co8       1.0  0.75500  0.97500  0.00000  1.0000
  Ge  Ge1       1.0  0.43000  0.06950  0.00000  1.0000
  Ge  Ge2       1.0  0.80100  0.15500  0.00000  1.0000
  Ge  Ge3       1.0  0.15500  0.19900  0.00000  1.0000
  Ge  Ge4       1.0  0.65500  0.30100  0.00000  1.0000
  Ge  Ge5       1.0  0.30100  0.34500  0.00000  1.0000
  Ge  Ge6       1.0  0.93000  0.43000  0.00000  1.0000
  Ge  Ge7       1.0  0.06950  0.57000  0.00000  1.0000
  Ge  Ge8       1.0  0.69900  0.65500  0.00000  1.0000
  Ge  Ge9       1.0  0.34500  0.69900  0.00000  1.0000
  Ge  Ge10      1.0  0.84500  0.80100  0.00000  1.0000
  Ge  Ge11      1.0  0.19900  0.84500  0.00000  1.0000
  Ge  Ge12      1.0  0.57000  0.93000  0.00000  1.0000
  Ge  Ge13      1.0  0.16500  0.00354  0.50000  1.0000
  Ge  Ge14      1.0  0.99600  0.16500  0.50000  1.0000
  Ge  Ge15      1.0  0.49600  0.33500  0.50000  1.0000
  Ge  Ge16      1.0  0.66500  0.49600  0.50000  1.0000
  Ge  Ge17      1.0  0.33500  0.50400  0.50000  1.0000
  Ge  Ge18      1.0  0.50400  0.66500  0.50000  1.0000
  Ge  Ge19      1.0  0.00354  0.83500  0.50000  1.0000
  Ge  Ge20      1.0  0.83500  0.99600  0.50000  1.0000
  Tm  Tm1       1.0  0.00000  0.00000  0.00000  1.0000
  Tm  Tm2       1.0  0.50000  0.50000  0.00000  1.0000
  Tm  Tm3       1.0  0.61100  0.11100  0.50000  1.0000
  Tm  Tm4       1.0  0.32300  0.17700  0.50000  1.0000
  Tm  Tm5       1.0  0.82300  0.32300  0.50000  1.0000
  Tm  Tm6       1.0  0.11100  0.38900  0.50000  1.0000
  Tm  Tm7       1.0  0.88900  0.61100  0.50000  1.0000
  Tm  Tm8       1.0  0.17700  0.67700  0.50000  1.0000
  Tm  Tm9       1.0  0.67700  0.82300  0.50000  1.0000
  Tm  Tm10      1.0  0.38900  0.88900  0.50000  1.0000
