data_image0
_chemical_formula_structural       F30In2Zr6
_chemical_formula_sum              "F30 In2 Zr6"
_cell_length_a       7.79629
_cell_length_b       7.79629
_cell_length_c       7.79629
_cell_angle_alpha    99.5282
_cell_angle_beta     99.5282
_cell_angle_gamma    99.5282

_space_group_name_H-M_alt    "P 1"
_space_group_IT_number       1

loop_
  _space_group_symop_operation_xyz
  'x, y, z'

loop_
  _atom_site_type_symbol
  _atom_site_label
  _atom_site_symmetry_multiplicity
  _atom_site_fract_x
  _atom_site_fract_y
  _atom_site_fract_z
  _atom_site_occupancy
  F   F1        1.0  0.79900  0.76800  0.02270  1.0000
  F   F2        1.0  0.46200  0.75000  0.03760  1.0000
  F   F3        1.0  0.13700  0.67000  0.03980  1.0000
  F   F4        1.0  0.67000  0.03980  0.13700  1.0000
  F   F5        1.0  0.63700  0.54000  0.17000  1.0000
  F   F6        1.0  0.23200  0.97700  0.20100  1.0000
  F   F7        1.0  0.97700  0.20100  0.23200  1.0000
  F   F8        1.0  0.96200  0.53800  0.25000  1.0000
  F   F9        1.0  0.29900  0.52300  0.26800  1.0000
  F   F10       1.0  0.52300  0.26800  0.29900  1.0000
  F   F11       1.0  0.96000  0.86300  0.33000  1.0000
  F   F12       1.0  0.46000  0.83000  0.36300  1.0000
  F   F13       1.0  0.83000  0.36300  0.46000  1.0000
  F   F14       1.0  0.75000  0.03760  0.46200  1.0000
  F   F15       1.0  0.73200  0.70100  0.47700  1.0000
  F   F16       1.0  0.26800  0.29900  0.52300  1.0000
  F   F17       1.0  0.25000  0.96200  0.53800  1.0000
  F   F18       1.0  0.17000  0.63700  0.54000  1.0000
  F   F19       1.0  0.54000  0.17000  0.63700  1.0000
  F   F20       1.0  0.03980  0.13700  0.67000  1.0000
  F   F21       1.0  0.47700  0.73200  0.70100  1.0000
  F   F22       1.0  0.70100  0.47700  0.73200  1.0000
  F   F23       1.0  0.03760  0.46200  0.75000  1.0000
  F   F24       1.0  0.02270  0.79900  0.76800  1.0000
  F   F25       1.0  0.76800  0.02270  0.79900  1.0000
  F   F26       1.0  0.36300  0.46000  0.83000  1.0000
  F   F27       1.0  0.33000  0.96000  0.86300  1.0000
  F   F28       1.0  0.86300  0.33000  0.96000  1.0000
  F   F29       1.0  0.53800  0.25000  0.96200  1.0000
  F   F30       1.0  0.20100  0.23200  0.97700  1.0000
  In  In1       1.0  0.25000  0.25000  0.25000  1.0000
  In  In2       1.0  0.75000  0.75000  0.75000  1.0000
  Zr  Zr1       1.0  0.75000  0.31500  0.18500  1.0000
  Zr  Zr2       1.0  0.68500  0.81500  0.25000  1.0000
  Zr  Zr3       1.0  0.18500  0.75000  0.31500  1.0000
  Zr  Zr4       1.0  0.81500  0.25000  0.68500  1.0000
  Zr  Zr5       1.0  0.31500  0.18500  0.75000  1.0000
  Zr  Zr6       1.0  0.25000  0.68500  0.81500  1.0000
