data_image0
_chemical_formula_structural       N36W2
_chemical_formula_sum              "N36 W2"
_cell_length_a       9.03398
_cell_length_b       9.03399
_cell_length_c       7.06694
_cell_angle_alpha    89.9999
_cell_angle_beta     90
_cell_angle_gamma    120

_space_group_name_H-M_alt    "P 1"
_space_group_IT_number       1

loop_
  _space_group_symop_operation_xyz
  'x, y, z'

loop_
  _atom_site_type_symbol
  _atom_site_label
  _atom_site_symmetry_multiplicity
  _atom_site_fract_x
  _atom_site_fract_y
  _atom_site_fract_z
  _atom_site_occupancy
  N   N1        1.0  0.54400  0.76800  0.16400  1.0000
  N   N2        1.0  0.22400  0.45600  0.16400  1.0000
  N   N3        1.0  0.23200  0.77600  0.16400  1.0000
  N   N4        1.0  0.86600  0.40400  0.16500  1.0000
  N   N5        1.0  0.59600  0.46200  0.16500  1.0000
  N   N6        1.0  0.53800  0.13400  0.16500  1.0000
  N   N7        1.0  0.68300  0.89600  0.17000  1.0000
  N   N8        1.0  0.21300  0.31700  0.17000  1.0000
  N   N9        1.0  0.10400  0.78700  0.17000  1.0000
  N   N10       1.0  0.81600  0.01530  0.18300  1.0000
  N   N11       1.0  0.98500  0.80100  0.18300  1.0000
  N   N12       1.0  0.19900  0.18400  0.18300  1.0000
  N   N13       1.0  0.64700  0.53400  0.31600  1.0000
  N   N14       1.0  0.88700  0.35300  0.31600  1.0000
  N   N15       1.0  0.46600  0.11300  0.31600  1.0000
  N   N16       1.0  0.39300  0.08480  0.45700  1.0000
  N   N17       1.0  0.69100  0.60700  0.45700  1.0000
  N   N18       1.0  0.91500  0.30900  0.45700  1.0000
  N   N19       1.0  0.30900  0.39300  0.54300  1.0000
  N   N20       1.0  0.60700  0.91500  0.54300  1.0000
  N   N21       1.0  0.08480  0.69100  0.54300  1.0000
  N   N22       1.0  0.53400  0.88700  0.68400  1.0000
  N   N23       1.0  0.11300  0.64700  0.68400  1.0000
  N   N24       1.0  0.35300  0.46600  0.68400  1.0000
  N   N25       1.0  0.80100  0.81600  0.81700  1.0000
  N   N26       1.0  0.01530  0.19900  0.81700  1.0000
  N   N27       1.0  0.18400  0.98500  0.81700  1.0000
  N   N28       1.0  0.78700  0.68300  0.83000  1.0000
  N   N29       1.0  0.89600  0.21300  0.83000  1.0000
  N   N30       1.0  0.31700  0.10400  0.83000  1.0000
  N   N31       1.0  0.46200  0.86600  0.83500  1.0000
  N   N32       1.0  0.40400  0.53800  0.83500  1.0000
  N   N33       1.0  0.13400  0.59600  0.83500  1.0000
  N   N34       1.0  0.77600  0.54400  0.83600  1.0000
  N   N35       1.0  0.76800  0.22400  0.83600  1.0000
  N   N36       1.0  0.45600  0.23200  0.83600  1.0000
  W   W1        1.0  0.33300  0.66700  0.01190  1.0000
  W   W2        1.0  0.66700  0.33300  0.98800  1.0000
