data_image0
_chemical_formula_structural       Co8Ge20Yb10
_chemical_formula_sum              "Co8 Ge20 Yb10"
_cell_length_a       12.7062
_cell_length_b       12.7062
_cell_length_c       4.2278
_cell_angle_alpha    90
_cell_angle_beta     90
_cell_angle_gamma    90

_space_group_name_H-M_alt    "P 1"
_space_group_IT_number       1

loop_
  _space_group_symop_operation_xyz
  'x, y, z'

loop_
  _atom_site_type_symbol
  _atom_site_label
  _atom_site_symmetry_multiplicity
  _atom_site_fract_x
  _atom_site_fract_y
  _atom_site_fract_z
  _atom_site_occupancy
  Co  Co1       1.0  0.24600  0.02210  0.00000  1.0000
  Co  Co2       1.0  0.97800  0.24600  0.00000  1.0000
  Co  Co3       1.0  0.47800  0.25400  0.00000  1.0000
  Co  Co4       1.0  0.74600  0.47800  0.00000  1.0000
  Co  Co5       1.0  0.25400  0.52200  0.00000  1.0000
  Co  Co6       1.0  0.52200  0.74600  0.00000  1.0000
  Co  Co7       1.0  0.02210  0.75400  0.00000  1.0000
  Co  Co8       1.0  0.75400  0.97800  0.00000  1.0000
  Ge  Ge1       1.0  0.43100  0.06940  0.00000  1.0000
  Ge  Ge2       1.0  0.80800  0.15600  0.00000  1.0000
  Ge  Ge3       1.0  0.15600  0.19200  0.00000  1.0000
  Ge  Ge4       1.0  0.65600  0.30800  0.00000  1.0000
  Ge  Ge5       1.0  0.30800  0.34400  0.00000  1.0000
  Ge  Ge6       1.0  0.93100  0.43100  0.00000  1.0000
  Ge  Ge7       1.0  0.06940  0.56900  0.00000  1.0000
  Ge  Ge8       1.0  0.69200  0.65600  0.00000  1.0000
  Ge  Ge9       1.0  0.34400  0.69200  0.00000  1.0000
  Ge  Ge10      1.0  0.84400  0.80800  0.00000  1.0000
  Ge  Ge11      1.0  0.19200  0.84400  0.00000  1.0000
  Ge  Ge12      1.0  0.56900  0.93100  0.00000  1.0000
  Ge  Ge13      1.0  0.16500  0.00308  0.50000  1.0000
  Ge  Ge14      1.0  0.99700  0.16500  0.50000  1.0000
  Ge  Ge15      1.0  0.49700  0.33500  0.50000  1.0000
  Ge  Ge16      1.0  0.66500  0.49700  0.50000  1.0000
  Ge  Ge17      1.0  0.33500  0.50300  0.50000  1.0000
  Ge  Ge18      1.0  0.50300  0.66500  0.50000  1.0000
  Ge  Ge19      1.0  0.00308  0.83500  0.50000  1.0000
  Ge  Ge20      1.0  0.83500  0.99700  0.50000  1.0000
  Yb  Yb1       1.0  0.00000  0.00000  0.00000  1.0000
  Yb  Yb2       1.0  0.50000  0.50000  0.00000  1.0000
  Yb  Yb3       1.0  0.61300  0.11300  0.50000  1.0000
  Yb  Yb4       1.0  0.32400  0.17600  0.50000  1.0000
  Yb  Yb5       1.0  0.82400  0.32400  0.50000  1.0000
  Yb  Yb6       1.0  0.11300  0.38700  0.50000  1.0000
  Yb  Yb7       1.0  0.88700  0.61300  0.50000  1.0000
  Yb  Yb8       1.0  0.17600  0.67600  0.50000  1.0000
  Yb  Yb9       1.0  0.67600  0.82400  0.50000  1.0000
  Yb  Yb10      1.0  0.38700  0.88700  0.50000  1.0000
