data_image0
_chemical_formula_structural       Mn2O22Pb10Sb4
_chemical_formula_sum              "Mn2 O22 Pb10 Sb4"
_cell_length_a       7.33556
_cell_length_b       7.33556
_cell_length_c       10.9823
_cell_angle_alpha    90
_cell_angle_beta     90
_cell_angle_gamma    76.1416

_space_group_name_H-M_alt    "P 1"
_space_group_IT_number       1

loop_
  _space_group_symop_operation_xyz
  'x, y, z'

loop_
  _atom_site_type_symbol
  _atom_site_label
  _atom_site_symmetry_multiplicity
  _atom_site_fract_x
  _atom_site_fract_y
  _atom_site_fract_z
  _atom_site_occupancy
  Mn  Mn1       1.0  0.59000  0.59000  0.25000  1.0000
  Mn  Mn2       1.0  0.41000  0.41000  0.75000  1.0000
  O   O1        1.0  0.43900  0.43900  0.10400  1.0000
  O   O2        1.0  0.80500  0.47500  0.10700  1.0000
  O   O3        1.0  0.47500  0.80500  0.10700  1.0000
  O   O4        1.0  0.74200  0.10500  0.10900  1.0000
  O   O5        1.0  0.10500  0.74200  0.10900  1.0000
  O   O6        1.0  0.79600  0.79600  0.25000  1.0000
  O   O7        1.0  0.74200  0.10500  0.39100  1.0000
  O   O8        1.0  0.10500  0.74200  0.39100  1.0000
  O   O9        1.0  0.80500  0.47500  0.39300  1.0000
  O   O10       1.0  0.47500  0.80500  0.39300  1.0000
  O   O11       1.0  0.43900  0.43900  0.39600  1.0000
  O   O12       1.0  0.56100  0.56100  0.60400  1.0000
  O   O13       1.0  0.52500  0.19500  0.60700  1.0000
  O   O14       1.0  0.19500  0.52500  0.60700  1.0000
  O   O15       1.0  0.89500  0.25800  0.60900  1.0000
  O   O16       1.0  0.25800  0.89500  0.60900  1.0000
  O   O17       1.0  0.20400  0.20400  0.75000  1.0000
  O   O18       1.0  0.89500  0.25800  0.89100  1.0000
  O   O19       1.0  0.25800  0.89500  0.89100  1.0000
  O   O20       1.0  0.52500  0.19500  0.89300  1.0000
  O   O21       1.0  0.19500  0.52500  0.89300  1.0000
  O   O22       1.0  0.56100  0.56100  0.89600  1.0000
  Pb  Pb1       1.0  0.78300  0.78300  0.02190  1.0000
  Pb  Pb2       1.0  0.00304  0.00304  0.25000  1.0000
  Pb  Pb3       1.0  0.50500  0.06310  0.25000  1.0000
  Pb  Pb4       1.0  0.06310  0.50500  0.25000  1.0000
  Pb  Pb5       1.0  0.78300  0.78300  0.47800  1.0000
  Pb  Pb6       1.0  0.21700  0.21700  0.52200  1.0000
  Pb  Pb7       1.0  0.93700  0.49500  0.75000  1.0000
  Pb  Pb8       1.0  0.49500  0.93700  0.75000  1.0000
  Pb  Pb9       1.0  0.99700  0.99700  0.75000  1.0000
  Pb  Pb10      1.0  0.21700  0.21700  0.97800  1.0000
  Sb  Sb1       1.0  0.67500  0.32500  0.00000  1.0000
  Sb  Sb2       1.0  0.32500  0.67500  0.00000  1.0000
  Sb  Sb3       1.0  0.67500  0.32500  0.50000  1.0000
  Sb  Sb4       1.0  0.32500  0.67500  0.50000  1.0000
