data_image0
_chemical_formula_structural       Fe2NaO6
_chemical_formula_sum              "Fe2 Na1 O6"
_cell_length_a       5.19696
_cell_length_b       5.19696
_cell_length_c       4.48458
_cell_angle_alpha    101.663
_cell_angle_beta     101.663
_cell_angle_gamma    120.056

_space_group_name_H-M_alt    "P 1"
_space_group_IT_number       1

loop_
  _space_group_symop_operation_xyz
  'x, y, z'

loop_
  _atom_site_type_symbol
  _atom_site_label
  _atom_site_symmetry_multiplicity
  _atom_site_fract_x
  _atom_site_fract_y
  _atom_site_fract_z
  _atom_site_occupancy
  Fe  Fe1       1.0  0.83500  0.16500  0.00000  1.0000
  Fe  Fe2       1.0  0.16500  0.83500  0.00000  1.0000
  Na  Na1       1.0  0.50000  0.50000  0.00000  1.0000
  O   O1        1.0  0.97400  0.58200  0.23700  1.0000
  O   O2        1.0  0.58200  0.97400  0.23700  1.0000
  O   O3        1.0  0.19200  0.19200  0.24400  1.0000
  O   O4        1.0  0.80800  0.80800  0.75600  1.0000
  O   O5        1.0  0.41800  0.02590  0.76300  1.0000
  O   O6        1.0  0.02590  0.41800  0.76300  1.0000
