data_image0
_chemical_formula_structural       Fe2O4
_chemical_formula_sum              "Fe2 O4"
_cell_length_a       3.80286
_cell_length_b       3.80286
_cell_length_c       5.24739
_cell_angle_alpha    111.245
_cell_angle_beta     111.245
_cell_angle_gamma    90

_space_group_name_H-M_alt    "P 1"
_space_group_IT_number       1

loop_
  _space_group_symop_operation_xyz
  'x, y, z'

loop_
  _atom_site_type_symbol
  _atom_site_label
  _atom_site_symmetry_multiplicity
  _atom_site_fract_x
  _atom_site_fract_y
  _atom_site_fract_z
  _atom_site_occupancy
  Fe  Fe1       1.0  0.00000  0.00000  0.00000  1.0000
  Fe  Fe2       1.0  0.25000  0.75000  0.50000  1.0000
  O   O1        1.0  0.04100  0.54100  0.08210  1.0000
  O   O2        1.0  0.20900  0.20900  0.41800  1.0000
  O   O3        1.0  0.79100  0.79100  0.58200  1.0000
  O   O4        1.0  0.45900  0.95900  0.91800  1.0000
