data_image0
_chemical_formula_structural       O12Si2
_chemical_formula_sum              "O12 Si2"
_cell_length_a       6.03048
_cell_length_b       5.43594
_cell_length_c       5.61691
_cell_angle_alpha    87.3375
_cell_angle_beta     84.0241
_cell_angle_gamma    126.04

_space_group_name_H-M_alt    "P 1"
_space_group_IT_number       1

loop_
  _space_group_symop_operation_xyz
  'x, y, z'

loop_
  _atom_site_type_symbol
  _atom_site_label
  _atom_site_symmetry_multiplicity
  _atom_site_fract_x
  _atom_site_fract_y
  _atom_site_fract_z
  _atom_site_occupancy
  O   O1        1.0  0.56400  0.87400  0.02040  1.0000
  O   O2        1.0  0.99700  0.97200  0.18400  1.0000
  O   O3        1.0  0.37200  0.70900  0.18700  1.0000
  O   O4        1.0  0.66100  0.24200  0.26800  1.0000
  O   O5        1.0  0.41300  0.03890  0.35600  1.0000
  O   O6        1.0  0.85800  0.26100  0.45100  1.0000
  O   O7        1.0  0.57500  0.62000  0.53400  1.0000
  O   O8        1.0  0.04310  0.04050  0.68100  1.0000
  O   O9        1.0  0.62700  0.44500  0.69900  1.0000
  O   O10       1.0  0.32700  0.83800  0.78300  1.0000
  O   O11       1.0  0.45000  0.35500  0.92700  1.0000
  O   O12       1.0  0.07840  0.63300  0.94500  1.0000
  Si  Si1       1.0  0.87900  0.97100  0.45600  1.0000
  Si  Si2       1.0  0.15600  0.00026  0.91800  1.0000
