data_image0
_chemical_formula_structural       Na8O8Si2
_chemical_formula_sum              "Na8 O8 Si2"
_cell_length_a       5.54529
_cell_length_b       6.16755
_cell_length_c       8.47045
_cell_angle_alpha    103.154
_cell_angle_beta     95.3362
_cell_angle_gamma    123.669

_space_group_name_H-M_alt    "P 1"
_space_group_IT_number       1

loop_
  _space_group_symop_operation_xyz
  'x, y, z'

loop_
  _atom_site_type_symbol
  _atom_site_label
  _atom_site_symmetry_multiplicity
  _atom_site_fract_x
  _atom_site_fract_y
  _atom_site_fract_z
  _atom_site_occupancy
  Na  Na1       1.0  0.53000  0.78400  0.01850  1.0000
  Na  Na2       1.0  0.00472  0.76800  0.17000  1.0000
  Na  Na3       1.0  0.69900  0.43000  0.38800  1.0000
  Na  Na4       1.0  0.72400  0.95500  0.43700  1.0000
  Na  Na5       1.0  0.27600  0.04490  0.56300  1.0000
  Na  Na6       1.0  0.30100  0.57000  0.61200  1.0000
  Na  Na7       1.0  0.99500  0.23200  0.83000  1.0000
  Na  Na8       1.0  0.47000  0.21600  0.98200  1.0000
  O   O1        1.0  0.88400  0.24000  0.08580  1.0000
  O   O2        1.0  0.50100  0.54200  0.19300  1.0000
  O   O3        1.0  0.15900  0.19900  0.35200  1.0000
  O   O4        1.0  0.20200  0.66800  0.37500  1.0000
  O   O5        1.0  0.79800  0.33200  0.62500  1.0000
  O   O6        1.0  0.84100  0.80100  0.64800  1.0000
  O   O7        1.0  0.49900  0.45800  0.80700  1.0000
  O   O8        1.0  0.11600  0.76000  0.91400  1.0000
  Si  Si1       1.0  0.18000  0.40500  0.24800  1.0000
  Si  Si2       1.0  0.82000  0.59500  0.75200  1.0000
