data_image0
_chemical_formula_structural       As14Ca8Ir16
_chemical_formula_sum              "As14 Ca8 Ir16"
_cell_length_a       13.0546
_cell_length_b       4.11596
_cell_length_c       13.5995
_cell_angle_alpha    90
_cell_angle_beta     98.0663
_cell_angle_gamma    90

_space_group_name_H-M_alt    "P 1"
_space_group_IT_number       1

loop_
  _space_group_symop_operation_xyz
  'x, y, z'

loop_
  _atom_site_type_symbol
  _atom_site_label
  _atom_site_symmetry_multiplicity
  _atom_site_fract_x
  _atom_site_fract_y
  _atom_site_fract_z
  _atom_site_occupancy
  As  As1       1.0  0.25600  0.25000  0.08040  1.0000
  As  As2       1.0  0.93900  0.25000  0.10100  1.0000
  As  As3       1.0  0.53100  0.75000  0.12800  1.0000
  As  As4       1.0  0.84900  0.75000  0.27900  1.0000
  As  As5       1.0  0.30800  0.75000  0.31100  1.0000
  As  As6       1.0  0.09670  0.25000  0.41500  1.0000
  As  As7       1.0  0.60900  0.75000  0.43400  1.0000
  As  As8       1.0  0.39100  0.25000  0.56600  1.0000
  As  As9       1.0  0.90300  0.75000  0.58500  1.0000
  As  As10      1.0  0.69200  0.25000  0.68900  1.0000
  As  As11      1.0  0.15100  0.25000  0.72100  1.0000
  As  As12      1.0  0.46900  0.25000  0.87200  1.0000
  As  As13      1.0  0.06060  0.75000  0.89900  1.0000
  As  As14      1.0  0.74400  0.75000  0.92000  1.0000
  Ca  Ca1       1.0  0.71200  0.25000  0.10500  1.0000
  Ca  Ca2       1.0  0.10100  0.75000  0.20200  1.0000
  Ca  Ca3       1.0  0.48600  0.25000  0.29100  1.0000
  Ca  Ca4       1.0  0.78600  0.25000  0.43300  1.0000
  Ca  Ca5       1.0  0.21400  0.75000  0.56700  1.0000
  Ca  Ca6       1.0  0.51400  0.75000  0.70900  1.0000
  Ca  Ca7       1.0  0.89900  0.25000  0.79800  1.0000
  Ca  Ca8       1.0  0.28800  0.75000  0.89500  1.0000
  Ir  Ir1       1.0  0.92100  0.75000  0.00193  1.0000
  Ir  Ir2       1.0  0.44500  0.25000  0.04800  1.0000
  Ir  Ir3       1.0  0.34200  0.75000  0.13900  1.0000
  Ir  Ir4       1.0  0.66500  0.75000  0.27000  1.0000
  Ir  Ir5       1.0  0.94700  0.25000  0.28100  1.0000
  Ir  Ir6       1.0  0.27900  0.25000  0.40100  1.0000
  Ir  Ir7       1.0  0.98600  0.75000  0.42700  1.0000
  Ir  Ir8       1.0  0.42500  0.75000  0.47200  1.0000
  Ir  Ir9       1.0  0.57500  0.25000  0.52800  1.0000
  Ir  Ir10      1.0  0.01440  0.25000  0.57300  1.0000
  Ir  Ir11      1.0  0.72100  0.75000  0.59900  1.0000
  Ir  Ir12      1.0  0.05320  0.75000  0.71900  1.0000
  Ir  Ir13      1.0  0.33500  0.25000  0.73000  1.0000
  Ir  Ir14      1.0  0.65800  0.25000  0.86100  1.0000
  Ir  Ir15      1.0  0.55500  0.75000  0.95200  1.0000
  Ir  Ir16      1.0  0.07920  0.25000  0.99800  1.0000
