data_image0
_chemical_formula_structural       Cl4H18KN6O8Ru
_chemical_formula_sum              "Cl4 H18 K1 N6 O8 Ru1"
_cell_length_a       6.82641
_cell_length_b       6.82641
_cell_length_c       9.80167
_cell_angle_alpha    69.6211
_cell_angle_beta     110.379
_cell_angle_gamma    120

_space_group_name_H-M_alt    "P 1"
_space_group_IT_number       1

loop_
  _space_group_symop_operation_xyz
  'x, y, z'

loop_
  _atom_site_type_symbol
  _atom_site_label
  _atom_site_symmetry_multiplicity
  _atom_site_fract_x
  _atom_site_fract_y
  _atom_site_fract_z
  _atom_site_occupancy
  Cl  Cl1       1.0  0.38100  0.61900  0.14300  1.0000
  Cl  Cl2       1.0  0.81600  0.18400  0.44700  1.0000
  Cl  Cl3       1.0  0.18400  0.81600  0.55300  1.0000
  Cl  Cl4       1.0  0.61900  0.38100  0.85700  1.0000
  H   H1        1.0  0.45200  0.19700  0.05920  1.0000
  H   H2        1.0  0.80300  0.19700  0.05920  1.0000
  H   H3        1.0  0.80300  0.54800  0.05920  1.0000
  H   H4        1.0  0.03110  0.21000  0.19900  1.0000
  H   H5        1.0  0.37700  0.21000  0.19900  1.0000
  H   H6        1.0  0.03110  0.62300  0.19900  1.0000
  H   H7        1.0  0.37700  0.96900  0.19900  1.0000
  H   H8        1.0  0.79000  0.62300  0.19900  1.0000
  H   H9        1.0  0.79000  0.96900  0.19900  1.0000
  H   H10       1.0  0.21000  0.03110  0.80100  1.0000
  H   H11       1.0  0.21000  0.37700  0.80100  1.0000
  H   H12       1.0  0.62300  0.03110  0.80100  1.0000
  H   H13       1.0  0.96900  0.37700  0.80100  1.0000
  H   H14       1.0  0.62300  0.79000  0.80100  1.0000
  H   H15       1.0  0.96900  0.79000  0.80100  1.0000
  H   H16       1.0  0.19700  0.45200  0.94100  1.0000
  H   H17       1.0  0.19700  0.80300  0.94100  1.0000
  H   H18       1.0  0.54800  0.80300  0.94100  1.0000
  K   K1        1.0  0.50000  0.50000  0.50000  1.0000
  N   N1        1.0  0.33900  0.10400  0.13100  1.0000
  N   N2        1.0  0.89600  0.10400  0.13100  1.0000
  N   N3        1.0  0.89600  0.66100  0.13100  1.0000
  N   N4        1.0  0.10400  0.33900  0.86900  1.0000
  N   N5        1.0  0.10400  0.89600  0.86900  1.0000
  N   N6        1.0  0.66100  0.89600  0.86900  1.0000
  O   O1        1.0  0.02930  0.31900  0.39100  1.0000
  O   O2        1.0  0.68100  0.31900  0.39100  1.0000
  O   O3        1.0  0.68100  0.97100  0.39100  1.0000
  O   O4        1.0  0.13000  0.87000  0.39100  1.0000
  O   O5        1.0  0.87000  0.13000  0.60900  1.0000
  O   O6        1.0  0.31900  0.02930  0.60900  1.0000
  O   O7        1.0  0.31900  0.68100  0.60900  1.0000
  O   O8        1.0  0.97100  0.68100  0.60900  1.0000
  Ru  Ru1       1.0  0.00000  0.00000  0.00000  1.0000
