data_image0
_chemical_formula_structural       Co8Ge20Lu10
_chemical_formula_sum              "Co8 Ge20 Lu10"
_cell_length_a       12.6278
_cell_length_b       12.6278
_cell_length_c       4.13561
_cell_angle_alpha    90
_cell_angle_beta     90
_cell_angle_gamma    90

_space_group_name_H-M_alt    "P 1"
_space_group_IT_number       1

loop_
  _space_group_symop_operation_xyz
  'x, y, z'

loop_
  _atom_site_type_symbol
  _atom_site_label
  _atom_site_symmetry_multiplicity
  _atom_site_fract_x
  _atom_site_fract_y
  _atom_site_fract_z
  _atom_site_occupancy
  Co  Co1       1.0  0.24600  0.02360  0.00000  1.0000
  Co  Co2       1.0  0.97600  0.24600  0.00000  1.0000
  Co  Co3       1.0  0.47600  0.25400  0.00000  1.0000
  Co  Co4       1.0  0.74600  0.47600  0.00000  1.0000
  Co  Co5       1.0  0.25400  0.52400  0.00000  1.0000
  Co  Co6       1.0  0.52400  0.74600  0.00000  1.0000
  Co  Co7       1.0  0.02360  0.75400  0.00000  1.0000
  Co  Co8       1.0  0.75400  0.97600  0.00000  1.0000
  Ge  Ge1       1.0  0.43100  0.06930  0.00000  1.0000
  Ge  Ge2       1.0  0.80200  0.15700  0.00000  1.0000
  Ge  Ge3       1.0  0.15700  0.19800  0.00000  1.0000
  Ge  Ge4       1.0  0.65700  0.30200  0.00000  1.0000
  Ge  Ge5       1.0  0.30200  0.34300  0.00000  1.0000
  Ge  Ge6       1.0  0.93100  0.43100  0.00000  1.0000
  Ge  Ge7       1.0  0.06930  0.56900  0.00000  1.0000
  Ge  Ge8       1.0  0.69800  0.65700  0.00000  1.0000
  Ge  Ge9       1.0  0.34300  0.69800  0.00000  1.0000
  Ge  Ge10      1.0  0.84300  0.80200  0.00000  1.0000
  Ge  Ge11      1.0  0.19800  0.84300  0.00000  1.0000
  Ge  Ge12      1.0  0.56900  0.93100  0.00000  1.0000
  Ge  Ge13      1.0  0.16400  0.00527  0.50000  1.0000
  Ge  Ge14      1.0  0.99500  0.16400  0.50000  1.0000
  Ge  Ge15      1.0  0.49500  0.33600  0.50000  1.0000
  Ge  Ge16      1.0  0.66400  0.49500  0.50000  1.0000
  Ge  Ge17      1.0  0.33600  0.50500  0.50000  1.0000
  Ge  Ge18      1.0  0.50500  0.66400  0.50000  1.0000
  Ge  Ge19      1.0  0.00527  0.83600  0.50000  1.0000
  Ge  Ge20      1.0  0.83600  0.99500  0.50000  1.0000
  Lu  Lu1       1.0  0.00000  0.00000  0.00000  1.0000
  Lu  Lu2       1.0  0.50000  0.50000  0.00000  1.0000
  Lu  Lu3       1.0  0.61100  0.11100  0.50000  1.0000
  Lu  Lu4       1.0  0.32400  0.17600  0.50000  1.0000
  Lu  Lu5       1.0  0.82400  0.32400  0.50000  1.0000
  Lu  Lu6       1.0  0.11100  0.38900  0.50000  1.0000
  Lu  Lu7       1.0  0.88900  0.61100  0.50000  1.0000
  Lu  Lu8       1.0  0.17600  0.67600  0.50000  1.0000
  Lu  Lu9       1.0  0.67600  0.82400  0.50000  1.0000
  Lu  Lu10      1.0  0.38900  0.88900  0.50000  1.0000
