data_image0
_chemical_formula_structural       Ge2Na8O7
_chemical_formula_sum              "Ge2 Na8 O7"
_cell_length_a       6.05978
_cell_length_b       6.54987
_cell_length_c       6.11006
_cell_angle_alpha    90
_cell_angle_beta     90.7265
_cell_angle_gamma    90

_space_group_name_H-M_alt    "P 1"
_space_group_IT_number       1

loop_
  _space_group_symop_operation_xyz
  'x, y, z'

loop_
  _atom_site_type_symbol
  _atom_site_label
  _atom_site_symmetry_multiplicity
  _atom_site_fract_x
  _atom_site_fract_y
  _atom_site_fract_z
  _atom_site_occupancy
  Ge  Ge1       1.0  0.64700  0.25000  0.32100  1.0000
  Ge  Ge2       1.0  0.33500  0.75000  0.67400  1.0000
  Na  Na1       1.0  0.57000  0.75000  0.13700  1.0000
  Na  Na2       1.0  0.17400  0.00123  0.16500  1.0000
  Na  Na3       1.0  0.17400  0.49900  0.16500  1.0000
  Na  Na4       1.0  0.86700  0.75000  0.45100  1.0000
  Na  Na5       1.0  0.10900  0.25000  0.55500  1.0000
  Na  Na6       1.0  0.45400  0.25000  0.83100  1.0000
  Na  Na7       1.0  0.83900  0.00285  0.84100  1.0000
  Na  Na8       1.0  0.83900  0.49700  0.84100  1.0000
  O   O1        1.0  0.80300  0.02910  0.21100  1.0000
  O   O2        1.0  0.80300  0.47100  0.21100  1.0000
  O   O3        1.0  0.27200  0.75000  0.38900  1.0000
  O   O4        1.0  0.74100  0.25000  0.60700  1.0000
  O   O5        1.0  0.61800  0.75000  0.74500  1.0000
  O   O6        1.0  0.21200  0.52500  0.79400  1.0000
  O   O7        1.0  0.21200  0.97500  0.79400  1.0000
