data_image0
_chemical_formula_structural       Ga4O11
_chemical_formula_sum              "Ga4 O11"
_cell_length_a       10.7722
_cell_length_b       4.82628
_cell_length_c       4.33998
_cell_angle_alpha    91.8769
_cell_angle_beta     118.447
_cell_angle_gamma    118.131

_space_group_name_H-M_alt    "P 1"
_space_group_IT_number       1

loop_
  _space_group_symop_operation_xyz
  'x, y, z'

loop_
  _atom_site_type_symbol
  _atom_site_label
  _atom_site_symmetry_multiplicity
  _atom_site_fract_x
  _atom_site_fract_y
  _atom_site_fract_z
  _atom_site_occupancy
  Ga  Ga1       1.0  0.91400  0.18700  0.00937  1.0000
  Ga  Ga2       1.0  0.04320  0.84400  0.68600  1.0000
  Ga  Ga3       1.0  0.57700  0.78700  0.96800  1.0000
  Ga  Ga4       1.0  0.39200  0.09460  0.99600  1.0000
  O   O1        1.0  0.23500  0.91400  0.09920  1.0000
  O   O2        1.0  0.94100  0.60600  0.17500  1.0000
  O   O3        1.0  0.61700  0.06680  0.37800  1.0000
  O   O4        1.0  0.88200  0.02960  0.38200  1.0000
  O   O5        1.0  0.21900  0.42000  0.44300  1.0000
  O   O6        1.0  0.36500  0.75700  0.64900  1.0000
  O   O7        1.0  0.66800  0.91600  0.67000  1.0000
  O   O8        1.0  0.98300  0.34300  0.69400  1.0000
  O   O9        1.0  0.22700  0.25500  0.72200  1.0000
  O   O10       1.0  0.91200  0.77200  0.89700  1.0000
  O   O11       1.0  0.56400  0.40600  0.97900  1.0000
