data_image0
_chemical_formula_structural       Al4O11
_chemical_formula_sum              "Al4 O11"
_cell_length_a       11.1922
_cell_length_b       4.78598
_cell_length_c       3.41784
_cell_angle_alpha    96.3532
_cell_angle_beta     115.61
_cell_angle_gamma    114.118

_space_group_name_H-M_alt    "P 1"
_space_group_IT_number       1

loop_
  _space_group_symop_operation_xyz
  'x, y, z'

loop_
  _atom_site_type_symbol
  _atom_site_label
  _atom_site_symmetry_multiplicity
  _atom_site_fract_x
  _atom_site_fract_y
  _atom_site_fract_z
  _atom_site_occupancy
  Al  Al1       1.0  0.42800  0.21000  0.09700  1.0000
  Al  Al2       1.0  0.14200  0.93900  0.10500  1.0000
  Al  Al3       1.0  0.88000  0.08020  0.93600  1.0000
  Al  Al4       1.0  0.59900  0.85500  0.98200  1.0000
  O   O1        1.0  0.08770  0.28300  0.09300  1.0000
  O   O2        1.0  0.89600  0.48600  0.13200  1.0000
  O   O3        1.0  0.32500  0.82900  0.28300  1.0000
  O   O4        1.0  0.80100  0.97100  0.30400  1.0000
  O   O5        1.0  0.62600  0.24100  0.35700  1.0000
  O   O6        1.0  0.60500  0.94900  0.50700  1.0000
  O   O7        1.0  0.48600  0.42200  0.71000  1.0000
  O   O8        1.0  0.38800  0.81600  0.71100  1.0000
  O   O9        1.0  0.22100  0.06660  0.73800  1.0000
  O   O10       1.0  0.10700  0.49700  0.85500  1.0000
  O   O11       1.0  0.93900  0.74300  0.95600  1.0000
