data_image0
_chemical_formula_structural       H10Na4O20S2Te2
_chemical_formula_sum              "H10 Na4 O20 S2 Te2"
_cell_length_a       5.35379
_cell_length_b       5.6993
_cell_length_c       14.8861
_cell_angle_alpha    92.1313
_cell_angle_beta     94.5414
_cell_angle_gamma    61.9859

_space_group_name_H-M_alt    "P 1"
_space_group_IT_number       1

loop_
  _space_group_symop_operation_xyz
  'x, y, z'

loop_
  _atom_site_type_symbol
  _atom_site_label
  _atom_site_symmetry_multiplicity
  _atom_site_fract_x
  _atom_site_fract_y
  _atom_site_fract_z
  _atom_site_occupancy
  H   H1        1.0  0.45100  0.02200  0.01060  1.0000
  H   H2        1.0  0.25600  0.58100  0.06750  1.0000
  H   H3        1.0  0.71900  0.23700  0.12800  1.0000
  H   H4        1.0  0.61100  0.06900  0.38500  1.0000
  H   H5        1.0  0.42200  0.51000  0.49500  1.0000
  H   H6        1.0  0.47300  0.97800  0.51100  1.0000
  H   H7        1.0  0.83800  0.41900  0.56700  1.0000
  H   H8        1.0  0.95500  0.76300  0.62800  1.0000
  H   H9        1.0  0.68000  0.93100  0.88500  1.0000
  H   H10       1.0  0.93200  0.49000  0.99500  1.0000
  Na  Na1       1.0  0.60600  0.85500  0.18800  1.0000
  Na  Na2       1.0  0.90300  0.50800  0.38100  1.0000
  Na  Na3       1.0  0.46100  0.14500  0.68800  1.0000
  Na  Na4       1.0  0.41100  0.49200  0.88100  1.0000
  O   O1        1.0  0.13700  0.63900  0.00828  1.0000
  O   O2        1.0  0.32600  0.02690  0.05930  1.0000
  O   O3        1.0  0.85100  0.04730  0.11300  1.0000
  O   O4        1.0  0.44600  0.51100  0.15900  1.0000
  O   O5        1.0  0.05290  0.59400  0.25100  1.0000
  O   O6        1.0  0.51400  0.21700  0.28400  1.0000
  O   O7        1.0  0.45200  0.66500  0.31000  1.0000
  O   O8        1.0  0.10800  0.05280  0.38400  1.0000
  O   O9        1.0  0.69000  0.95000  0.43900  1.0000
  O   O10       1.0  0.21000  0.58600  0.48500  1.0000
  O   O11       1.0  0.77600  0.36100  0.50800  1.0000
  O   O12       1.0  0.35300  0.97300  0.55900  1.0000
  O   O13       1.0  0.89900  0.95300  0.61300  1.0000
  O   O14       1.0  0.95700  0.48900  0.65900  1.0000
  O   O15       1.0  0.64700  0.40600  0.75100  1.0000
  O   O16       1.0  0.73100  0.78300  0.78400  1.0000
  O   O17       1.0  0.11700  0.33500  0.81000  1.0000
  O   O18       1.0  0.16100  0.94700  0.88400  1.0000
  O   O19       1.0  0.63900  0.05010  0.93900  1.0000
  O   O20       1.0  0.79600  0.41400  0.98500  1.0000
  S   S1        1.0  0.36000  0.49600  0.25200  1.0000
  S   S2        1.0  0.85600  0.50400  0.75200  1.0000
  Te  Te1       1.0  0.02370  0.97100  0.49700  1.0000
  Te  Te2       1.0  0.99500  0.02850  0.99700  1.0000
