data_image0
_chemical_formula_structural       H6Nd2O24Se6
_chemical_formula_sum              "H6 Nd2 O24 Se6"
_cell_length_a       9.38476
_cell_length_b       9.38471
_cell_length_c       6.10161
_cell_angle_alpha    90
_cell_angle_beta     90
_cell_angle_gamma    120

_space_group_name_H-M_alt    "P 1"
_space_group_IT_number       1

loop_
  _space_group_symop_operation_xyz
  'x, y, z'

loop_
  _atom_site_type_symbol
  _atom_site_label
  _atom_site_symmetry_multiplicity
  _atom_site_fract_x
  _atom_site_fract_y
  _atom_site_fract_z
  _atom_site_occupancy
  H   H1        1.0  0.10700  0.15500  0.25000  1.0000
  H   H2        1.0  0.04860  0.89300  0.25000  1.0000
  H   H3        1.0  0.84500  0.95100  0.25000  1.0000
  H   H4        1.0  0.15500  0.04860  0.75000  1.0000
  H   H5        1.0  0.95100  0.10700  0.75000  1.0000
  H   H6        1.0  0.89300  0.84500  0.75000  1.0000
  Nd  Nd1       1.0  0.66700  0.33300  0.25000  1.0000
  Nd  Nd2       1.0  0.33300  0.66700  0.75000  1.0000
  O   O1        1.0  0.21900  0.44800  0.02750  1.0000
  O   O2        1.0  0.22900  0.78100  0.02750  1.0000
  O   O3        1.0  0.55200  0.77100  0.02750  1.0000
  O   O4        1.0  0.48500  0.03500  0.25000  1.0000
  O   O5        1.0  0.01240  0.17600  0.25000  1.0000
  O   O6        1.0  0.96500  0.45000  0.25000  1.0000
  O   O7        1.0  0.55000  0.51500  0.25000  1.0000
  O   O8        1.0  0.82400  0.83700  0.25000  1.0000
  O   O9        1.0  0.16300  0.98800  0.25000  1.0000
  O   O10       1.0  0.55200  0.77100  0.47200  1.0000
  O   O11       1.0  0.22900  0.78100  0.47300  1.0000
  O   O12       1.0  0.21900  0.44800  0.47300  1.0000
  O   O13       1.0  0.78100  0.55200  0.52700  1.0000
  O   O14       1.0  0.77100  0.21900  0.52700  1.0000
  O   O15       1.0  0.44800  0.22900  0.52800  1.0000
  O   O16       1.0  0.83700  0.01240  0.75000  1.0000
  O   O17       1.0  0.17600  0.16300  0.75000  1.0000
  O   O18       1.0  0.45000  0.48500  0.75000  1.0000
  O   O19       1.0  0.03500  0.55000  0.75000  1.0000
  O   O20       1.0  0.98800  0.82400  0.75000  1.0000
  O   O21       1.0  0.51500  0.96500  0.75000  1.0000
  O   O22       1.0  0.44800  0.22900  0.97200  1.0000
  O   O23       1.0  0.77100  0.21900  0.97300  1.0000
  O   O24       1.0  0.78100  0.55200  0.97300  1.0000
  Se  Se1       1.0  0.10500  0.39600  0.25000  1.0000
  Se  Se2       1.0  0.60400  0.70900  0.25000  1.0000
  Se  Se3       1.0  0.29100  0.89500  0.25000  1.0000
  Se  Se4       1.0  0.70900  0.10500  0.75000  1.0000
  Se  Se5       1.0  0.39600  0.29100  0.75000  1.0000
  Se  Se6       1.0  0.89500  0.60400  0.75000  1.0000
