data_image0
_chemical_formula_structural       O23Rb6Si10
_chemical_formula_sum              "O23 Rb6 Si10"
_cell_length_a       7.97141
_cell_length_b       9.2724
_cell_length_c       9.34044
_cell_angle_alpha    60.2441
_cell_angle_beta     90
_cell_angle_gamma    90

_space_group_name_H-M_alt    "P 1"
_space_group_IT_number       1

loop_
  _space_group_symop_operation_xyz
  'x, y, z'

loop_
  _atom_site_type_symbol
  _atom_site_label
  _atom_site_symmetry_multiplicity
  _atom_site_fract_x
  _atom_site_fract_y
  _atom_site_fract_z
  _atom_site_occupancy
  O   O1        1.0  0.00000  0.57300  0.00000  1.0000
  O   O2        1.0  0.25600  0.76400  0.00000  1.0000
  O   O3        1.0  0.74400  0.76400  0.00000  1.0000
  O   O4        1.0  0.27300  0.42100  0.15400  1.0000
  O   O5        1.0  0.72700  0.42100  0.15400  1.0000
  O   O6        1.0  0.25200  0.00170  0.23800  1.0000
  O   O7        1.0  0.74800  0.00170  0.23800  1.0000
  O   O8        1.0  0.00000  0.09990  0.36600  1.0000
  O   O9        1.0  0.50000  0.39700  0.37500  1.0000
  O   O10       1.0  0.18200  0.41800  0.42900  1.0000
  O   O11       1.0  0.81800  0.41800  0.42900  1.0000
  O   O12       1.0  0.30500  0.14300  0.43600  1.0000
  O   O13       1.0  0.69500  0.14300  0.43600  1.0000
  O   O14       1.0  0.30500  0.57800  0.56400  1.0000
  O   O15       1.0  0.69500  0.57800  0.56400  1.0000
  O   O16       1.0  0.18200  0.84700  0.57000  1.0000
  O   O17       1.0  0.81800  0.84700  0.57000  1.0000
  O   O18       1.0  0.50000  0.77200  0.62500  1.0000
  O   O19       1.0  0.00000  0.46600  0.63400  1.0000
  O   O20       1.0  0.25200  0.24000  0.76200  1.0000
  O   O21       1.0  0.74800  0.24000  0.76200  1.0000
  O   O22       1.0  0.27300  0.57500  0.84600  1.0000
  O   O23       1.0  0.72700  0.57500  0.84600  1.0000
  Rb  Rb1       1.0  0.00000  0.24300  0.00000  1.0000
  Rb  Rb2       1.0  0.50000  0.24700  0.00000  1.0000
  Rb  Rb3       1.0  0.50000  0.77500  0.23500  1.0000
  Rb  Rb4       1.0  0.00000  0.75900  0.24100  1.0000
  Rb  Rb5       1.0  0.00000  0.00000  0.75900  1.0000
  Rb  Rb6       1.0  0.50000  0.00947  0.76500  1.0000
  Si  Si1       1.0  0.20400  0.60000  0.00000  1.0000
  Si  Si2       1.0  0.79600  0.60000  0.00000  1.0000
  Si  Si3       1.0  0.31200  0.34400  0.34900  1.0000
  Si  Si4       1.0  0.68800  0.34400  0.34900  1.0000
  Si  Si5       1.0  0.19100  0.02130  0.38800  1.0000
  Si  Si6       1.0  0.80900  0.02130  0.38800  1.0000
  Si  Si7       1.0  0.19100  0.41000  0.61100  1.0000
  Si  Si8       1.0  0.80900  0.41000  0.61100  1.0000
  Si  Si9       1.0  0.31200  0.69200  0.65100  1.0000
  Si  Si10      1.0  0.68800  0.69200  0.65100  1.0000
