data_image0
_chemical_formula_structural       Au18In15Na6
_chemical_formula_sum              "Au18 In15 Na6"
_cell_length_a       9.46263
_cell_length_b       9.46263
_cell_length_c       9.46263
_cell_angle_alpha    90
_cell_angle_beta     90
_cell_angle_gamma    90

_space_group_name_H-M_alt    "P 1"
_space_group_IT_number       1

loop_
  _space_group_symop_operation_xyz
  'x, y, z'

loop_
  _atom_site_type_symbol
  _atom_site_label
  _atom_site_symmetry_multiplicity
  _atom_site_fract_x
  _atom_site_fract_y
  _atom_site_fract_z
  _atom_site_occupancy
  Au  Au1       1.0  0.17200  0.26000  0.00000  1.0000
  Au  Au2       1.0  0.82800  0.26000  0.00000  1.0000
  Au  Au3       1.0  0.17200  0.74000  0.00000  1.0000
  Au  Au4       1.0  0.82800  0.74000  0.00000  1.0000
  Au  Au5       1.0  0.26000  0.00000  0.17200  1.0000
  Au  Au6       1.0  0.74000  0.00000  0.17200  1.0000
  Au  Au7       1.0  0.00000  0.17200  0.26000  1.0000
  Au  Au8       1.0  0.00000  0.82800  0.26000  1.0000
  Au  Au9       1.0  0.50000  0.50000  0.26200  1.0000
  Au  Au10      1.0  0.50000  0.26200  0.50000  1.0000
  Au  Au11      1.0  0.26200  0.50000  0.50000  1.0000
  Au  Au12      1.0  0.73800  0.50000  0.50000  1.0000
  Au  Au13      1.0  0.50000  0.73800  0.50000  1.0000
  Au  Au14      1.0  0.50000  0.50000  0.73800  1.0000
  Au  Au15      1.0  0.00000  0.17200  0.74000  1.0000
  Au  Au16      1.0  0.00000  0.82800  0.74000  1.0000
  Au  Au17      1.0  0.26000  0.00000  0.82800  1.0000
  Au  Au18      1.0  0.74000  0.00000  0.82800  1.0000
  In  In1       1.0  0.00000  0.00000  0.00000  1.0000
  In  In2       1.0  0.33600  0.50000  0.00000  1.0000
  In  In3       1.0  0.66400  0.50000  0.00000  1.0000
  In  In4       1.0  0.28300  0.28300  0.28300  1.0000
  In  In5       1.0  0.71700  0.28300  0.28300  1.0000
  In  In6       1.0  0.28300  0.71700  0.28300  1.0000
  In  In7       1.0  0.71700  0.71700  0.28300  1.0000
  In  In8       1.0  0.50000  0.00000  0.33600  1.0000
  In  In9       1.0  0.00000  0.33600  0.50000  1.0000
  In  In10      1.0  0.00000  0.66400  0.50000  1.0000
  In  In11      1.0  0.50000  0.00000  0.66400  1.0000
  In  In12      1.0  0.28300  0.28300  0.71700  1.0000
  In  In13      1.0  0.71700  0.28300  0.71700  1.0000
  In  In14      1.0  0.28300  0.71700  0.71700  1.0000
  In  In15      1.0  0.71700  0.71700  0.71700  1.0000
  Na  Na1       1.0  0.50000  0.17200  0.00000  1.0000
  Na  Na2       1.0  0.50000  0.82800  0.00000  1.0000
  Na  Na3       1.0  0.00000  0.50000  0.17200  1.0000
  Na  Na4       1.0  0.17200  0.00000  0.50000  1.0000
  Na  Na5       1.0  0.82800  0.00000  0.50000  1.0000
  Na  Na6       1.0  0.00000  0.50000  0.82800  1.0000
