data_image0
_chemical_formula_structural       Cu4O11
_chemical_formula_sum              "Cu4 O11"
_cell_length_a       10.4288
_cell_length_b       5.14597
_cell_length_c       3.86751
_cell_angle_alpha    91.9099
_cell_angle_beta     98.8132
_cell_angle_gamma    123.673

_space_group_name_H-M_alt    "P 1"
_space_group_IT_number       1

loop_
  _space_group_symop_operation_xyz
  'x, y, z'

loop_
  _atom_site_type_symbol
  _atom_site_label
  _atom_site_symmetry_multiplicity
  _atom_site_fract_x
  _atom_site_fract_y
  _atom_site_fract_z
  _atom_site_occupancy
  Cu  Cu1       1.0  0.41800  0.23600  0.03430  1.0000
  Cu  Cu2       1.0  0.55700  0.87800  0.07300  1.0000
  Cu  Cu3       1.0  0.07750  0.79000  0.89600  1.0000
  Cu  Cu4       1.0  0.93000  0.06840  0.98000  1.0000
  O   O1        1.0  0.26100  0.86500  0.13000  1.0000
  O   O2        1.0  0.10500  0.10200  0.19000  1.0000
  O   O3        1.0  0.95800  0.40300  0.27700  1.0000
  O   O4        1.0  0.55500  0.18100  0.29100  1.0000
  O   O5        1.0  0.74700  0.99700  0.38000  1.0000
  O   O6        1.0  0.04520  0.46300  0.59300  1.0000
  O   O7        1.0  0.90200  0.75500  0.69400  1.0000
  O   O8        1.0  0.76900  0.09150  0.71300  1.0000
  O   O9        1.0  0.35100  0.65200  0.79500  1.0000
  O   O10       1.0  0.28300  0.35100  0.79900  1.0000
  O   O11       1.0  0.57600  0.57600  0.90100  1.0000
