data_image0
_chemical_formula_structural       Al20Na4O32
_chemical_formula_sum              "Al20 Na4 O32"
_cell_length_a       8.03734
_cell_length_b       8.03734
_cell_length_c       8.03734
_cell_angle_alpha    90
_cell_angle_beta     90
_cell_angle_gamma    90

_space_group_name_H-M_alt    "P 1"
_space_group_IT_number       1

loop_
  _space_group_symop_operation_xyz
  'x, y, z'

loop_
  _atom_site_type_symbol
  _atom_site_label
  _atom_site_symmetry_multiplicity
  _atom_site_fract_x
  _atom_site_fract_y
  _atom_site_fract_z
  _atom_site_occupancy
  Al  Al1       1.0  0.49700  0.50300  0.00302  1.0000
  Al  Al2       1.0  0.62500  0.12600  0.12400  1.0000
  Al  Al3       1.0  0.37400  0.87600  0.12500  1.0000
  Al  Al4       1.0  0.12400  0.62500  0.12600  1.0000
  Al  Al5       1.0  0.74700  0.75300  0.24700  1.0000
  Al  Al6       1.0  0.25300  0.25300  0.25300  1.0000
  Al  Al7       1.0  0.87600  0.12500  0.37400  1.0000
  Al  Al8       1.0  0.62600  0.37600  0.37500  1.0000
  Al  Al9       1.0  0.37500  0.62600  0.37600  1.0000
  Al  Al10      1.0  0.50300  0.00302  0.49700  1.0000
  Al  Al11      1.0  0.00302  0.49700  0.50300  1.0000
  Al  Al12      1.0  0.87500  0.87400  0.62400  1.0000
  Al  Al13      1.0  0.12600  0.12400  0.62500  1.0000
  Al  Al14      1.0  0.37600  0.37500  0.62600  1.0000
  Al  Al15      1.0  0.75300  0.24700  0.74700  1.0000
  Al  Al16      1.0  0.24700  0.74700  0.75300  1.0000
  Al  Al17      1.0  0.62400  0.87500  0.87400  1.0000
  Al  Al18      1.0  0.87400  0.62400  0.87500  1.0000
  Al  Al19      1.0  0.12500  0.37400  0.87600  1.0000
  Al  Al20      1.0  0.99700  0.99700  0.99700  1.0000
  Na  Na1       1.0  0.87500  0.37500  0.12500  1.0000
  Na  Na2       1.0  0.12500  0.87500  0.37500  1.0000
  Na  Na3       1.0  0.62500  0.62500  0.62500  1.0000
  Na  Na4       1.0  0.37500  0.12500  0.87500  1.0000
  O   O1        1.0  0.14300  0.86500  0.10300  1.0000
  O   O2        1.0  0.14700  0.38500  0.10700  1.0000
  O   O3        1.0  0.61500  0.88500  0.11500  1.0000
  O   O4        1.0  0.89300  0.64700  0.11500  1.0000
  O   O5        1.0  0.60300  0.35700  0.13500  1.0000
  O   O6        1.0  0.36500  0.63500  0.13500  1.0000
  O   O7        1.0  0.86500  0.10300  0.14300  1.0000
  O   O8        1.0  0.38500  0.10700  0.14700  1.0000
  O   O9        1.0  0.61500  0.60700  0.35300  1.0000
  O   O10       1.0  0.13500  0.60300  0.35700  1.0000
  O   O11       1.0  0.63500  0.13500  0.36500  1.0000
  O   O12       1.0  0.39700  0.85700  0.36500  1.0000
  O   O13       1.0  0.10700  0.14700  0.38500  1.0000
  O   O14       1.0  0.38500  0.38500  0.38500  1.0000
  O   O15       1.0  0.85300  0.88500  0.39300  1.0000
  O   O16       1.0  0.85700  0.36500  0.39700  1.0000
  O   O17       1.0  0.35700  0.13500  0.60300  1.0000
  O   O18       1.0  0.35300  0.61500  0.60700  1.0000
  O   O19       1.0  0.88500  0.11500  0.61500  1.0000
  O   O20       1.0  0.60700  0.35300  0.61500  1.0000
  O   O21       1.0  0.89700  0.64300  0.63500  1.0000
  O   O22       1.0  0.13500  0.36500  0.63500  1.0000
  O   O23       1.0  0.63500  0.89700  0.64300  1.0000
  O   O24       1.0  0.11500  0.89300  0.64700  1.0000
  O   O25       1.0  0.88500  0.39300  0.85300  1.0000
  O   O26       1.0  0.36500  0.39700  0.85700  1.0000
  O   O27       1.0  0.86500  0.86500  0.86500  1.0000
  O   O28       1.0  0.10300  0.14300  0.86500  1.0000
  O   O29       1.0  0.39300  0.85300  0.88500  1.0000
  O   O30       1.0  0.11500  0.61500  0.88500  1.0000
  O   O31       1.0  0.64700  0.11500  0.89300  1.0000
  O   O32       1.0  0.64300  0.63500  0.89700  1.0000
