data_image0
_chemical_formula_structural       Ba4Co8Dy4O22
_chemical_formula_sum              "Ba4 Co8 Dy4 O22"
_cell_length_a       7.68833
_cell_length_b       7.82932
_cell_length_c       7.50599
_cell_angle_alpha    90
_cell_angle_beta     90
_cell_angle_gamma    90

_space_group_name_H-M_alt    "P 1"
_space_group_IT_number       1

loop_
  _space_group_symop_operation_xyz
  'x, y, z'

loop_
  _atom_site_type_symbol
  _atom_site_label
  _atom_site_symmetry_multiplicity
  _atom_site_fract_x
  _atom_site_fract_y
  _atom_site_fract_z
  _atom_site_occupancy
  Ba  Ba1       1.0  0.00000  0.24800  0.00000  1.0000
  Ba  Ba2       1.0  0.50000  0.24800  0.00000  1.0000
  Ba  Ba3       1.0  0.00000  0.75200  0.00000  1.0000
  Ba  Ba4       1.0  0.50000  0.75200  0.00000  1.0000
  Co  Co1       1.0  0.25000  0.50000  0.25400  1.0000
  Co  Co2       1.0  0.75000  0.50000  0.25400  1.0000
  Co  Co3       1.0  0.75000  0.00000  0.25600  1.0000
  Co  Co4       1.0  0.25000  0.00000  0.26100  1.0000
  Co  Co5       1.0  0.75000  0.00000  0.73900  1.0000
  Co  Co6       1.0  0.25000  0.00000  0.74400  1.0000
  Co  Co7       1.0  0.25000  0.50000  0.74600  1.0000
  Co  Co8       1.0  0.75000  0.50000  0.74600  1.0000
  Dy  Dy1       1.0  0.00000  0.26800  0.50000  1.0000
  Dy  Dy2       1.0  0.50000  0.26800  0.50000  1.0000
  Dy  Dy3       1.0  0.00000  0.73200  0.50000  1.0000
  Dy  Dy4       1.0  0.50000  0.73200  0.50000  1.0000
  O   O1        1.0  0.75000  0.50000  0.00063  1.0000
  O   O2        1.0  0.25000  0.00000  0.00539  1.0000
  O   O3        1.0  0.50100  0.50000  0.27500  1.0000
  O   O4        1.0  0.99900  0.50000  0.27500  1.0000
  O   O5        1.0  0.75000  0.24200  0.29800  1.0000
  O   O6        1.0  0.75000  0.75800  0.29800  1.0000
  O   O7        1.0  0.25000  0.23100  0.30600  1.0000
  O   O8        1.0  0.25000  0.76900  0.30600  1.0000
  O   O9        1.0  0.51000  0.00000  0.31700  1.0000
  O   O10       1.0  0.99000  0.00000  0.31700  1.0000
  O   O11       1.0  0.75000  0.50000  0.49900  1.0000
  O   O12       1.0  0.25000  0.50000  0.50100  1.0000
  O   O13       1.0  0.00967  0.00000  0.68300  1.0000
  O   O14       1.0  0.49000  0.00000  0.68300  1.0000
  O   O15       1.0  0.75000  0.23100  0.69400  1.0000
  O   O16       1.0  0.75000  0.76900  0.69400  1.0000
  O   O17       1.0  0.25000  0.24200  0.70200  1.0000
  O   O18       1.0  0.25000  0.75800  0.70200  1.0000
  O   O19       1.0  0.00135  0.50000  0.72500  1.0000
  O   O20       1.0  0.49900  0.50000  0.72500  1.0000
  O   O21       1.0  0.75000  0.00000  0.99500  1.0000
  O   O22       1.0  0.25000  0.50000  0.99900  1.0000
