data_image0
_chemical_formula_structural       Cl6Er2H4O26
_chemical_formula_sum              "Cl6 Er2 H4 O26"
_cell_length_a       6.61907
_cell_length_b       7.53974
_cell_length_c       9.4062
_cell_angle_alpha    77.9135
_cell_angle_beta     75.4687
_cell_angle_gamma    78.7456

_space_group_name_H-M_alt    "P 1"
_space_group_IT_number       1

loop_
  _space_group_symop_operation_xyz
  'x, y, z'

loop_
  _atom_site_type_symbol
  _atom_site_label
  _atom_site_symmetry_multiplicity
  _atom_site_fract_x
  _atom_site_fract_y
  _atom_site_fract_z
  _atom_site_occupancy
  Cl  Cl1       1.0  0.72100  0.67000  0.00753  1.0000
  Cl  Cl2       1.0  0.21900  0.89100  0.29800  1.0000
  Cl  Cl3       1.0  0.29600  0.30600  0.48300  1.0000
  Cl  Cl4       1.0  0.70400  0.69400  0.51700  1.0000
  Cl  Cl5       1.0  0.78100  0.10900  0.70200  1.0000
  Cl  Cl6       1.0  0.27900  0.33000  0.99200  1.0000
  Er  Er1       1.0  0.85700  0.31900  0.31200  1.0000
  Er  Er2       1.0  0.14300  0.68100  0.68800  1.0000
  H   H1        1.0  0.66300  0.17100  0.12700  1.0000
  H   H2        1.0  0.81800  0.00184  0.19000  1.0000
  H   H3        1.0  0.18200  0.99800  0.81000  1.0000
  H   H4        1.0  0.33700  0.82900  0.87300  1.0000
  O   O1        1.0  0.49000  0.27700  0.01510  1.0000
  O   O2        1.0  0.80700  0.81300  0.03880  1.0000
  O   O3        1.0  0.14200  0.40100  0.12500  1.0000
  O   O4        1.0  0.71300  0.51300  0.13000  1.0000
  O   O5        1.0  0.77900  0.13500  0.18100  1.0000
  O   O6        1.0  0.41600  0.94100  0.21400  1.0000
  O   O7        1.0  0.11600  0.80300  0.22200  1.0000
  O   O8        1.0  0.07720  0.05600  0.34400  1.0000
  O   O9        1.0  0.48100  0.35100  0.36800  1.0000
  O   O10       1.0  0.72500  0.60000  0.39100  1.0000
  O   O11       1.0  0.11500  0.38100  0.41600  1.0000
  O   O12       1.0  0.25500  0.76900  0.43800  1.0000
  O   O13       1.0  0.69000  0.88600  0.46400  1.0000
  O   O14       1.0  0.31000  0.11400  0.53600  1.0000
  O   O15       1.0  0.74500  0.23100  0.56200  1.0000
  O   O16       1.0  0.88500  0.61900  0.58400  1.0000
  O   O17       1.0  0.27500  0.40000  0.60900  1.0000
  O   O18       1.0  0.51900  0.64900  0.63200  1.0000
  O   O19       1.0  0.92300  0.94400  0.65600  1.0000
  O   O20       1.0  0.88400  0.19700  0.77800  1.0000
  O   O21       1.0  0.58400  0.05900  0.78600  1.0000
  O   O22       1.0  0.22100  0.86500  0.81900  1.0000
  O   O23       1.0  0.28700  0.48700  0.87000  1.0000
  O   O24       1.0  0.85800  0.59900  0.87500  1.0000
  O   O25       1.0  0.19300  0.18700  0.96100  1.0000
  O   O26       1.0  0.51000  0.72300  0.98500  1.0000
