data_image0
_chemical_formula_structural       Cu8Na4O8
_chemical_formula_sum              "Cu8 Na4 O8"
_cell_length_a       6.12135
_cell_length_b       2.9443
_cell_length_c       13.0788
_cell_angle_alpha    90
_cell_angle_beta     90
_cell_angle_gamma    90

_space_group_name_H-M_alt    "P 1"
_space_group_IT_number       1

loop_
  _space_group_symop_operation_xyz
  'x, y, z'

loop_
  _atom_site_type_symbol
  _atom_site_label
  _atom_site_symmetry_multiplicity
  _atom_site_fract_x
  _atom_site_fract_y
  _atom_site_fract_z
  _atom_site_occupancy
  Cu  Cu1       1.0  0.36700  0.75000  0.11000  1.0000
  Cu  Cu2       1.0  0.11400  0.25000  0.24300  1.0000
  Cu  Cu3       1.0  0.61400  0.25000  0.25700  1.0000
  Cu  Cu4       1.0  0.86700  0.75000  0.39000  1.0000
  Cu  Cu5       1.0  0.13300  0.25000  0.61000  1.0000
  Cu  Cu6       1.0  0.38600  0.75000  0.74300  1.0000
  Cu  Cu7       1.0  0.88600  0.75000  0.75700  1.0000
  Cu  Cu8       1.0  0.63300  0.25000  0.89000  1.0000
  Na  Na1       1.0  0.85200  0.75000  0.07730  1.0000
  Na  Na2       1.0  0.35200  0.75000  0.42300  1.0000
  Na  Na3       1.0  0.64800  0.25000  0.57700  1.0000
  Na  Na4       1.0  0.14800  0.25000  0.92300  1.0000
  O   O1        1.0  0.14900  0.25000  0.10200  1.0000
  O   O2        1.0  0.57800  0.25000  0.11800  1.0000
  O   O3        1.0  0.07820  0.25000  0.38200  1.0000
  O   O4        1.0  0.64900  0.25000  0.39800  1.0000
  O   O5        1.0  0.35100  0.75000  0.60200  1.0000
  O   O6        1.0  0.92200  0.75000  0.61800  1.0000
  O   O7        1.0  0.42200  0.75000  0.88200  1.0000
  O   O8        1.0  0.85100  0.75000  0.89800  1.0000
