data_image0
_chemical_formula_structural       Ca2F2Mg5O22Si8
_chemical_formula_sum              "Ca2 F2 Mg5 O22 Si8"
_cell_length_a       5.24898
_cell_length_b       9.70302
_cell_length_c       10.189
_cell_angle_alpha    61.5656
_cell_angle_beta     96.9998
_cell_angle_gamma    104.829

_space_group_name_H-M_alt    "P 1"
_space_group_IT_number       1

loop_
  _space_group_symop_operation_xyz
  'x, y, z'

loop_
  _atom_site_type_symbol
  _atom_site_label
  _atom_site_symmetry_multiplicity
  _atom_site_fract_x
  _atom_site_fract_y
  _atom_site_fract_z
  _atom_site_occupancy
  Ca  Ca1       1.0  0.50000  0.27700  0.44600  1.0000
  Ca  Ca2       1.0  0.50000  0.72300  0.55400  1.0000
  F   F1        1.0  0.71300  0.10600  0.00000  1.0000
  F   F2        1.0  0.28700  0.89400  0.00000  1.0000
  Mg  Mg1       1.0  0.00000  0.00000  0.00000  1.0000
  Mg  Mg2       1.0  0.50000  0.91300  0.17500  1.0000
  Mg  Mg3       1.0  0.00000  0.82500  0.35000  1.0000
  Mg  Mg4       1.0  0.00000  0.17500  0.65000  1.0000
  Mg  Mg5       1.0  0.50000  0.08750  0.82500  1.0000
  O   O1        1.0  0.28800  0.35100  0.00000  1.0000
  O   O2        1.0  0.71200  0.64900  0.00000  1.0000
  O   O3        1.0  0.21900  0.03070  0.16700  1.0000
  O   O4        1.0  0.78100  0.80200  0.16700  1.0000
  O   O5        1.0  0.59600  0.23200  0.23600  1.0000
  O   O6        1.0  0.40400  0.53200  0.23600  1.0000
  O   O7        1.0  0.10800  0.21600  0.27600  1.0000
  O   O8        1.0  0.89200  0.50900  0.27600  1.0000
  O   O9        1.0  0.27400  0.71400  0.33800  1.0000
  O   O10       1.0  0.72600  0.94900  0.33800  1.0000
  O   O11       1.0  0.78700  0.61400  0.49800  1.0000
  O   O12       1.0  0.21300  0.88900  0.49800  1.0000
  O   O13       1.0  0.78700  0.11100  0.50200  1.0000
  O   O14       1.0  0.21300  0.38600  0.50200  1.0000
  O   O15       1.0  0.27400  0.05130  0.66200  1.0000
  O   O16       1.0  0.72600  0.28600  0.66200  1.0000
  O   O17       1.0  0.10800  0.49100  0.72400  1.0000
  O   O18       1.0  0.89200  0.78400  0.72400  1.0000
  O   O19       1.0  0.59600  0.46800  0.76400  1.0000
  O   O20       1.0  0.40400  0.76800  0.76400  1.0000
  O   O21       1.0  0.21900  0.19800  0.83300  1.0000
  O   O22       1.0  0.78100  0.96900  0.83300  1.0000
  Si  Si1       1.0  0.29900  0.20400  0.16700  1.0000
  Si  Si2       1.0  0.70100  0.62900  0.16700  1.0000
  Si  Si3       1.0  0.80600  0.11900  0.34300  1.0000
  Si  Si4       1.0  0.19400  0.53800  0.34300  1.0000
  Si  Si5       1.0  0.80600  0.46200  0.65700  1.0000
  Si  Si6       1.0  0.19400  0.88100  0.65700  1.0000
  Si  Si7       1.0  0.29900  0.37100  0.83300  1.0000
  Si  Si8       1.0  0.70100  0.79600  0.83300  1.0000
