data_image0
_chemical_formula_structural       B12O20
_chemical_formula_sum              "B12 O20"
_cell_length_a       8.35187
_cell_length_b       5.15935
_cell_length_c       7.12091
_cell_angle_alpha    90
_cell_angle_beta     90
_cell_angle_gamma    90

_space_group_name_H-M_alt    "P 1"
_space_group_IT_number       1

loop_
  _space_group_symop_operation_xyz
  'x, y, z'

loop_
  _atom_site_type_symbol
  _atom_site_label
  _atom_site_symmetry_multiplicity
  _atom_site_fract_x
  _atom_site_fract_y
  _atom_site_fract_z
  _atom_site_occupancy
  B   B1        1.0  0.69800  0.01290  0.05000  1.0000
  B   B2        1.0  0.49300  0.31100  0.17600  1.0000
  B   B3        1.0  0.85000  0.68500  0.23100  1.0000
  B   B4        1.0  0.35000  0.68500  0.26900  1.0000
  B   B5        1.0  0.99300  0.31100  0.32400  1.0000
  B   B6        1.0  0.19800  0.01290  0.45000  1.0000
  B   B7        1.0  0.80200  0.51300  0.55000  1.0000
  B   B8        1.0  0.00672  0.81100  0.67600  1.0000
  B   B9        1.0  0.65000  0.18500  0.73100  1.0000
  B   B10       1.0  0.15000  0.18500  0.76900  1.0000
  B   B11       1.0  0.50700  0.81100  0.82400  1.0000
  B   B12       1.0  0.30200  0.51300  0.95000  1.0000
  O   O1        1.0  0.41500  0.30700  0.00495  1.0000
  O   O2        1.0  0.26300  0.68700  0.10700  1.0000
  O   O3        1.0  0.84500  0.89600  0.11500  1.0000
  O   O4        1.0  0.94400  0.47600  0.18300  1.0000
  O   O5        1.0  0.62200  0.15400  0.20500  1.0000
  O   O6        1.0  0.12200  0.15400  0.29500  1.0000
  O   O7        1.0  0.44400  0.47600  0.31700  1.0000
  O   O8        1.0  0.34500  0.89600  0.38500  1.0000
  O   O9        1.0  0.76300  0.68700  0.39300  1.0000
  O   O10       1.0  0.91500  0.30700  0.49500  1.0000
  O   O11       1.0  0.08490  0.80700  0.50500  1.0000
  O   O12       1.0  0.23700  0.18700  0.60700  1.0000
  O   O13       1.0  0.65500  0.39600  0.61500  1.0000
  O   O14       1.0  0.55600  0.97600  0.68300  1.0000
  O   O15       1.0  0.87800  0.65400  0.70500  1.0000
  O   O16       1.0  0.37800  0.65400  0.79500  1.0000
  O   O17       1.0  0.05590  0.97600  0.81700  1.0000
  O   O18       1.0  0.15500  0.39600  0.88500  1.0000
  O   O19       1.0  0.73700  0.18700  0.89300  1.0000
  O   O20       1.0  0.58500  0.80700  0.99500  1.0000
