data_image0
_chemical_formula_structural       Al15Cu18Mg6
_chemical_formula_sum              "Al15 Cu18 Mg6"
_cell_length_a       8.24933
_cell_length_b       8.24933
_cell_length_c       8.24933
_cell_angle_alpha    90
_cell_angle_beta     90
_cell_angle_gamma    90

_space_group_name_H-M_alt    "P 1"
_space_group_IT_number       1

loop_
  _space_group_symop_operation_xyz
  'x, y, z'

loop_
  _atom_site_type_symbol
  _atom_site_label
  _atom_site_symmetry_multiplicity
  _atom_site_fract_x
  _atom_site_fract_y
  _atom_site_fract_z
  _atom_site_occupancy
  Al  Al1       1.0  0.16600  0.50000  0.00000  1.0000
  Al  Al2       1.0  0.83400  0.50000  0.00000  1.0000
  Al  Al3       1.0  0.50000  0.00000  0.16600  1.0000
  Al  Al4       1.0  0.21800  0.21800  0.21800  1.0000
  Al  Al5       1.0  0.78200  0.21800  0.21800  1.0000
  Al  Al6       1.0  0.21800  0.78200  0.21800  1.0000
  Al  Al7       1.0  0.78200  0.78200  0.21800  1.0000
  Al  Al8       1.0  0.00000  0.16600  0.50000  1.0000
  Al  Al9       1.0  0.50000  0.50000  0.50000  1.0000
  Al  Al10      1.0  0.00000  0.83400  0.50000  1.0000
  Al  Al11      1.0  0.21800  0.21800  0.78200  1.0000
  Al  Al12      1.0  0.78200  0.21800  0.78200  1.0000
  Al  Al13      1.0  0.21800  0.78200  0.78200  1.0000
  Al  Al14      1.0  0.78200  0.78200  0.78200  1.0000
  Al  Al15      1.0  0.50000  0.00000  0.83400  1.0000
  Cu  Cu1       1.0  0.22900  0.00000  0.00000  1.0000
  Cu  Cu2       1.0  0.77100  0.00000  0.00000  1.0000
  Cu  Cu3       1.0  0.00000  0.22900  0.00000  1.0000
  Cu  Cu4       1.0  0.00000  0.77100  0.00000  1.0000
  Cu  Cu5       1.0  0.00000  0.00000  0.22900  1.0000
  Cu  Cu6       1.0  0.33500  0.50000  0.24400  1.0000
  Cu  Cu7       1.0  0.66500  0.50000  0.24400  1.0000
  Cu  Cu8       1.0  0.50000  0.24400  0.33500  1.0000
  Cu  Cu9       1.0  0.50000  0.75600  0.33500  1.0000
  Cu  Cu10      1.0  0.24400  0.33500  0.50000  1.0000
  Cu  Cu11      1.0  0.75600  0.33500  0.50000  1.0000
  Cu  Cu12      1.0  0.24400  0.66500  0.50000  1.0000
  Cu  Cu13      1.0  0.75600  0.66500  0.50000  1.0000
  Cu  Cu14      1.0  0.50000  0.24400  0.66500  1.0000
  Cu  Cu15      1.0  0.50000  0.75600  0.66500  1.0000
  Cu  Cu16      1.0  0.33500  0.50000  0.75600  1.0000
  Cu  Cu17      1.0  0.66500  0.50000  0.75600  1.0000
  Cu  Cu18      1.0  0.00000  0.00000  0.77100  1.0000
  Mg  Mg1       1.0  0.50000  0.32100  0.00000  1.0000
  Mg  Mg2       1.0  0.50000  0.67900  0.00000  1.0000
  Mg  Mg3       1.0  0.00000  0.50000  0.32100  1.0000
  Mg  Mg4       1.0  0.32100  0.00000  0.50000  1.0000
  Mg  Mg5       1.0  0.67900  0.00000  0.50000  1.0000
  Mg  Mg6       1.0  0.00000  0.50000  0.67900  1.0000
