data_image0
_chemical_formula_structural       K4N8Ni2O24
_chemical_formula_sum              "K4 N8 Ni2 O24"
_cell_length_a       6.8043
_cell_length_b       8.81067
_cell_length_c       8.84345
_cell_angle_alpha    98.9311
_cell_angle_beta     112.626
_cell_angle_gamma    90

_space_group_name_H-M_alt    "P 1"
_space_group_IT_number       1

loop_
  _space_group_symop_operation_xyz
  'x, y, z'

loop_
  _atom_site_type_symbol
  _atom_site_label
  _atom_site_symmetry_multiplicity
  _atom_site_fract_x
  _atom_site_fract_y
  _atom_site_fract_z
  _atom_site_occupancy
  K   K1        1.0  0.58300  0.72000  0.48200  1.0000
  K   K2        1.0  0.90000  0.22000  0.48200  1.0000
  K   K3        1.0  0.57300  0.14500  0.88000  1.0000
  K   K4        1.0  0.30700  0.64500  0.88000  1.0000
  N   N1        1.0  0.60300  0.92000  0.12400  1.0000
  N   N2        1.0  0.52100  0.42000  0.12400  1.0000
  N   N3        1.0  0.34000  0.02220  0.33600  1.0000
  N   N4        1.0  0.99600  0.52200  0.33600  1.0000
  N   N5        1.0  0.13000  0.90400  0.59900  1.0000
  N   N6        1.0  0.46900  0.40400  0.59900  1.0000
  N   N7        1.0  0.86600  0.78700  0.87200  1.0000
  N   N8        1.0  0.00589  0.28700  0.87200  1.0000
  Ni  Ni1       1.0  0.96100  0.82300  0.23800  1.0000
  Ni  Ni2       1.0  0.27700  0.32300  0.23800  1.0000
  O   O1        1.0  0.99000  0.76200  0.01690  1.0000
  O   O2        1.0  0.02670  0.26200  0.01690  1.0000
  O   O3        1.0  0.62600  0.45700  0.04740  1.0000
  O   O4        1.0  0.42100  0.95700  0.04740  1.0000
  O   O5        1.0  0.52200  0.28300  0.15900  1.0000
  O   O6        1.0  0.63700  0.78300  0.15900  1.0000
  O   O7        1.0  0.39600  0.51000  0.16700  1.0000
  O   O8        1.0  0.77100  0.00990  0.16700  1.0000
  O   O9        1.0  0.07110  0.61300  0.27000  1.0000
  O   O10       1.0  0.19900  0.11300  0.27000  1.0000
  O   O11       1.0  0.27400  0.88500  0.33200  1.0000
  O   O12       1.0  0.05740  0.38500  0.33200  1.0000
  O   O13       1.0  0.87000  0.55900  0.40300  1.0000
  O   O14       1.0  0.53300  0.05920  0.40300  1.0000
  O   O15       1.0  0.95800  0.90400  0.46500  1.0000
  O   O16       1.0  0.50700  0.40400  0.46500  1.0000
  O   O17       1.0  0.37100  0.29000  0.61200  1.0000
  O   O18       1.0  0.24100  0.79000  0.61200  1.0000
  O   O19       1.0  0.53300  0.52100  0.70800  1.0000
  O   O20       1.0  0.17500  0.02130  0.70800  1.0000
  O   O21       1.0  0.82900  0.24700  0.75500  1.0000
  O   O22       1.0  0.92600  0.74700  0.75500  1.0000
  O   O23       1.0  0.15600  0.34700  0.84800  1.0000
  O   O24       1.0  0.69200  0.84700  0.84800  1.0000
