data_image0
_chemical_formula_structural       Na11O8Zn2
_chemical_formula_sum              "Na11 O8 Zn2"
_cell_length_a       7.30009
_cell_length_b       7.39702
_cell_length_c       5.39198
_cell_angle_alpha    90
_cell_angle_beta     90
_cell_angle_gamma    90

_space_group_name_H-M_alt    "P 1"
_space_group_IT_number       1

loop_
  _space_group_symop_operation_xyz
  'x, y, z'

loop_
  _atom_site_type_symbol
  _atom_site_label
  _atom_site_symmetry_multiplicity
  _atom_site_fract_x
  _atom_site_fract_y
  _atom_site_fract_z
  _atom_site_occupancy
  Na  Na1       1.0  0.51400  0.05250  0.24400  1.0000
  Na  Na2       1.0  0.98600  0.05250  0.24400  1.0000
  Na  Na3       1.0  0.51400  0.44700  0.24400  1.0000
  Na  Na4       1.0  0.98600  0.44700  0.24400  1.0000
  Na  Na5       1.0  0.75000  0.75000  0.32900  1.0000
  Na  Na6       1.0  0.25000  0.25000  0.66100  1.0000
  Na  Na7       1.0  0.03800  0.53900  0.75300  1.0000
  Na  Na8       1.0  0.46200  0.53900  0.75300  1.0000
  Na  Na9       1.0  0.03800  0.96100  0.75300  1.0000
  Na  Na10      1.0  0.46200  0.96100  0.75300  1.0000
  Na  Na11      1.0  0.75000  0.75000  0.83500  1.0000
  O   O1        1.0  0.00656  0.75000  0.06860  1.0000
  O   O2        1.0  0.49300  0.75000  0.06860  1.0000
  O   O3        1.0  0.25000  0.51900  0.45100  1.0000
  O   O4        1.0  0.25000  0.98100  0.45100  1.0000
  O   O5        1.0  0.75000  0.00627  0.55700  1.0000
  O   O6        1.0  0.75000  0.49400  0.55700  1.0000
  O   O7        1.0  0.51100  0.25000  0.91000  1.0000
  O   O8        1.0  0.98900  0.25000  0.91000  1.0000
  Zn  Zn1       1.0  0.25000  0.75000  0.26000  1.0000
  Zn  Zn2       1.0  0.75000  0.25000  0.73700  1.0000
