data_image0
_chemical_formula_structural       Ba6Cu9O20Y3
_chemical_formula_sum              "Ba6 Cu9 O20 Y3"
_cell_length_a       11.4618
_cell_length_b       3.87791
_cell_length_c       11.6946
_cell_angle_alpha    90
_cell_angle_beta     90
_cell_angle_gamma    90

_space_group_name_H-M_alt    "P 1"
_space_group_IT_number       1

loop_
  _space_group_symop_operation_xyz
  'x, y, z'

loop_
  _atom_site_type_symbol
  _atom_site_label
  _atom_site_symmetry_multiplicity
  _atom_site_fract_x
  _atom_site_fract_y
  _atom_site_fract_z
  _atom_site_occupancy
  Ba  Ba1       1.0  0.50000  0.50000  0.18100  1.0000
  Ba  Ba2       1.0  0.17100  0.50000  0.18700  1.0000
  Ba  Ba3       1.0  0.82900  0.50000  0.18700  1.0000
  Ba  Ba4       1.0  0.17100  0.50000  0.81300  1.0000
  Ba  Ba5       1.0  0.82900  0.50000  0.81300  1.0000
  Ba  Ba6       1.0  0.50000  0.50000  0.81900  1.0000
  Cu  Cu1       1.0  0.00000  0.00000  0.00000  1.0000
  Cu  Cu2       1.0  0.33000  0.00000  0.00000  1.0000
  Cu  Cu3       1.0  0.67000  0.00000  0.00000  1.0000
  Cu  Cu4       1.0  0.00000  0.00000  0.35200  1.0000
  Cu  Cu5       1.0  0.33400  0.00000  0.35600  1.0000
  Cu  Cu6       1.0  0.66600  0.00000  0.35600  1.0000
  Cu  Cu7       1.0  0.33400  0.00000  0.64400  1.0000
  Cu  Cu8       1.0  0.66600  0.00000  0.64400  1.0000
  Cu  Cu9       1.0  0.00000  0.00000  0.64800  1.0000
  O   O1        1.0  0.32700  0.50000  0.00000  1.0000
  O   O2        1.0  0.67300  0.50000  0.00000  1.0000
  O   O3        1.0  0.00000  0.00000  0.15200  1.0000
  O   O4        1.0  0.33300  0.00000  0.15900  1.0000
  O   O5        1.0  0.66700  0.00000  0.15900  1.0000
  O   O6        1.0  0.16800  0.00000  0.37700  1.0000
  O   O7        1.0  0.83200  0.00000  0.37700  1.0000
  O   O8        1.0  0.33400  0.50000  0.37800  1.0000
  O   O9        1.0  0.66600  0.50000  0.37800  1.0000
  O   O10       1.0  0.50000  0.00000  0.37800  1.0000
  O   O11       1.0  0.00000  0.50000  0.37900  1.0000
  O   O12       1.0  0.00000  0.50000  0.62100  1.0000
  O   O13       1.0  0.50000  0.00000  0.62200  1.0000
  O   O14       1.0  0.33400  0.50000  0.62200  1.0000
  O   O15       1.0  0.66600  0.50000  0.62200  1.0000
  O   O16       1.0  0.16800  0.00000  0.62300  1.0000
  O   O17       1.0  0.83200  0.00000  0.62300  1.0000
  O   O18       1.0  0.33300  0.00000  0.84100  1.0000
  O   O19       1.0  0.66700  0.00000  0.84100  1.0000
  O   O20       1.0  0.00000  0.00000  0.84800  1.0000
  Y   Y1        1.0  0.16600  0.50000  0.50000  1.0000
  Y   Y2        1.0  0.50000  0.50000  0.50000  1.0000
  Y   Y3        1.0  0.83400  0.50000  0.50000  1.0000
