data_image0
_chemical_formula_structural       B4O11
_chemical_formula_sum              "B4 O11"
_cell_length_a       9.80256
_cell_length_b       4.70792
_cell_length_c       4.36778
_cell_angle_alpha    98.7017
_cell_angle_beta     107.742
_cell_angle_gamma    128.091

_space_group_name_H-M_alt    "P 1"
_space_group_IT_number       1

loop_
  _space_group_symop_operation_xyz
  'x, y, z'

loop_
  _atom_site_type_symbol
  _atom_site_label
  _atom_site_symmetry_multiplicity
  _atom_site_fract_x
  _atom_site_fract_y
  _atom_site_fract_z
  _atom_site_occupancy
  B   B1        1.0  0.09280  0.98200  0.04110  1.0000
  B   B2        1.0  0.97000  0.33700  0.06790  1.0000
  B   B3        1.0  0.27700  0.08350  0.67300  1.0000
  B   B4        1.0  0.62900  0.72200  0.93900  1.0000
  O   O1        1.0  0.76900  0.10600  0.00442  1.0000
  O   O2        1.0  0.41800  0.94500  0.11600  1.0000
  O   O3        1.0  0.70500  0.57600  0.14800  1.0000
  O   O4        1.0  0.04650  0.17900  0.16600  1.0000
  O   O5        1.0  0.11600  0.79300  0.28300  1.0000
  O   O6        1.0  0.64100  0.44900  0.36800  1.0000
  O   O7        1.0  0.91800  0.58000  0.66400  1.0000
  O   O8        1.0  0.43600  0.45300  0.68600  1.0000
  O   O9        1.0  0.92600  0.31000  0.68800  1.0000
  O   O10       1.0  0.35400  0.87900  0.78000  1.0000
  O   O11       1.0  0.23000  0.17100  0.92100  1.0000
