data_image0
_chemical_formula_structural       Mn34Yb4
_chemical_formula_sum              "Mn34 Yb4"
_cell_length_a       8.56884
_cell_length_b       8.57043
_cell_length_c       7.69887
_cell_angle_alpha    90
_cell_angle_beta     90
_cell_angle_gamma    119.994

_space_group_name_H-M_alt    "P 1"
_space_group_IT_number       1

loop_
  _space_group_symop_operation_xyz
  'x, y, z'

loop_
  _atom_site_type_symbol
  _atom_site_label
  _atom_site_symmetry_multiplicity
  _atom_site_fract_x
  _atom_site_fract_y
  _atom_site_fract_z
  _atom_site_occupancy
  Mn  Mn1       1.0  0.50000  0.00000  0.00000  1.0000
  Mn  Mn2       1.0  0.00000  0.50000  0.00000  1.0000
  Mn  Mn3       1.0  0.50000  0.50000  0.00000  1.0000
  Mn  Mn4       1.0  0.34200  0.17100  0.04640  1.0000
  Mn  Mn5       1.0  0.82900  0.17100  0.04640  1.0000
  Mn  Mn6       1.0  0.82900  0.65800  0.04650  1.0000
  Mn  Mn7       1.0  0.33300  0.66700  0.10400  1.0000
  Mn  Mn8       1.0  0.06280  0.38700  0.25000  1.0000
  Mn  Mn9       1.0  0.32400  0.38700  0.25000  1.0000
  Mn  Mn10      1.0  0.06270  0.67600  0.25000  1.0000
  Mn  Mn11      1.0  0.61300  0.67600  0.25000  1.0000
  Mn  Mn12      1.0  0.32400  0.93700  0.25000  1.0000
  Mn  Mn13      1.0  0.61300  0.93700  0.25000  1.0000
  Mn  Mn14      1.0  0.33300  0.66700  0.39600  1.0000
  Mn  Mn15      1.0  0.82900  0.65800  0.45400  1.0000
  Mn  Mn16      1.0  0.34200  0.17100  0.45400  1.0000
  Mn  Mn17      1.0  0.82900  0.17100  0.45400  1.0000
  Mn  Mn18      1.0  0.50000  0.00000  0.50000  1.0000
  Mn  Mn19      1.0  0.00000  0.50000  0.50000  1.0000
  Mn  Mn20      1.0  0.50000  0.50000  0.50000  1.0000
  Mn  Mn21      1.0  0.17100  0.82900  0.54600  1.0000
  Mn  Mn22      1.0  0.65800  0.82900  0.54600  1.0000
  Mn  Mn23      1.0  0.17100  0.34200  0.54600  1.0000
  Mn  Mn24      1.0  0.66700  0.33300  0.60400  1.0000
  Mn  Mn25      1.0  0.38700  0.06280  0.75000  1.0000
  Mn  Mn26      1.0  0.67600  0.06280  0.75000  1.0000
  Mn  Mn27      1.0  0.38700  0.32400  0.75000  1.0000
  Mn  Mn28      1.0  0.93700  0.32400  0.75000  1.0000
  Mn  Mn29      1.0  0.67600  0.61300  0.75000  1.0000
  Mn  Mn30      1.0  0.93700  0.61300  0.75000  1.0000
  Mn  Mn31      1.0  0.66700  0.33300  0.89600  1.0000
  Mn  Mn32      1.0  0.17100  0.34200  0.95400  1.0000
  Mn  Mn33      1.0  0.17100  0.82900  0.95400  1.0000
  Mn  Mn34      1.0  0.65800  0.82900  0.95400  1.0000
  Yb  Yb1       1.0  0.00000  0.00000  0.25000  1.0000
  Yb  Yb2       1.0  0.66700  0.33300  0.25000  1.0000
  Yb  Yb3       1.0  0.00000  0.00000  0.75000  1.0000
  Yb  Yb4       1.0  0.33300  0.66700  0.75000  1.0000
