data_image0
_chemical_formula_structural       Fe4Mn2Na2O24P6
_chemical_formula_sum              "Fe4 Mn2 Na2 O24 P6"
_cell_length_a       6.39463
_cell_length_b       8.61376
_cell_length_c       8.61376
_cell_angle_alpha    92.5798
_cell_angle_beta     106.252
_cell_angle_gamma    106.252

_space_group_name_H-M_alt    "P 1"
_space_group_IT_number       1

loop_
  _space_group_symop_operation_xyz
  'x, y, z'

loop_
  _atom_site_type_symbol
  _atom_site_label
  _atom_site_symmetry_multiplicity
  _atom_site_fract_x
  _atom_site_fract_y
  _atom_site_fract_z
  _atom_site_occupancy
  Fe  Fe1       1.0  0.62700  0.37000  0.06490  1.0000
  Fe  Fe2       1.0  0.12700  0.06490  0.37000  1.0000
  Fe  Fe3       1.0  0.87300  0.93500  0.63000  1.0000
  Fe  Fe4       1.0  0.37300  0.63000  0.93500  1.0000
  Mn  Mn1       1.0  0.25000  0.73900  0.26100  1.0000
  Mn  Mn2       1.0  0.75000  0.26100  0.73900  1.0000
  Na  Na1       1.0  0.00000  0.50000  0.50000  1.0000
  Na  Na2       1.0  0.50000  0.50000  0.50000  1.0000
  O   O1        1.0  0.89700  0.33700  0.00636  1.0000
  O   O2        1.0  0.31900  0.40400  0.04730  1.0000
  O   O3        1.0  0.53300  0.74100  0.16800  1.0000
  O   O4        1.0  0.62300  0.18800  0.18200  1.0000
  O   O5        1.0  0.12300  0.18200  0.18800  1.0000
  O   O6        1.0  0.96700  0.83200  0.25900  1.0000
  O   O7        1.0  0.75600  0.53700  0.26000  1.0000
  O   O8        1.0  0.18300  0.48000  0.27900  1.0000
  O   O9        1.0  0.39700  0.00636  0.33700  1.0000
  O   O10       1.0  0.81900  0.04730  0.40400  1.0000
  O   O11       1.0  0.74400  0.74000  0.46300  1.0000
  O   O12       1.0  0.68300  0.27900  0.48000  1.0000
  O   O13       1.0  0.31700  0.72100  0.52000  1.0000
  O   O14       1.0  0.25600  0.26000  0.53700  1.0000
  O   O15       1.0  0.18100  0.95300  0.59600  1.0000
  O   O16       1.0  0.60300  0.99400  0.66300  1.0000
  O   O17       1.0  0.81700  0.52000  0.72100  1.0000
  O   O18       1.0  0.24400  0.46300  0.74000  1.0000
  O   O19       1.0  0.03310  0.16800  0.74100  1.0000
  O   O20       1.0  0.87700  0.81800  0.81200  1.0000
  O   O21       1.0  0.37700  0.81200  0.81800  1.0000
  O   O22       1.0  0.46700  0.25900  0.83200  1.0000
  O   O23       1.0  0.68100  0.59600  0.95300  1.0000
  O   O24       1.0  0.10300  0.66300  0.99400  1.0000
  P   P1        1.0  0.13000  0.35100  0.13400  1.0000
  P   P2        1.0  0.75000  0.71500  0.28500  1.0000
  P   P3        1.0  0.63000  0.13400  0.35100  1.0000
  P   P4        1.0  0.37000  0.86600  0.64900  1.0000
  P   P5        1.0  0.25000  0.28500  0.71500  1.0000
  P   P6        1.0  0.87000  0.64900  0.86600  1.0000
