data_image0
_chemical_formula_structural       Al2Na10O8
_chemical_formula_sum              "Al2 Na10 O8"
_cell_length_a       7.24611
_cell_length_b       7.0108
_cell_length_c       5.3575
_cell_angle_alpha    90
_cell_angle_beta     90
_cell_angle_gamma    90

_space_group_name_H-M_alt    "P 1"
_space_group_IT_number       1

loop_
  _space_group_symop_operation_xyz
  'x, y, z'

loop_
  _atom_site_type_symbol
  _atom_site_label
  _atom_site_symmetry_multiplicity
  _atom_site_fract_x
  _atom_site_fract_y
  _atom_site_fract_z
  _atom_site_occupancy
  Al  Al1       1.0  0.25000  0.25000  0.21800  1.0000
  Al  Al2       1.0  0.75000  0.75000  0.78200  1.0000
  Na  Na1       1.0  0.25000  0.75000  0.18000  1.0000
  Na  Na2       1.0  0.55900  0.51200  0.25900  1.0000
  Na  Na3       1.0  0.94100  0.51200  0.25900  1.0000
  Na  Na4       1.0  0.55900  0.98800  0.25900  1.0000
  Na  Na5       1.0  0.94100  0.98800  0.25900  1.0000
  Na  Na6       1.0  0.05890  0.01230  0.74100  1.0000
  Na  Na7       1.0  0.44100  0.01230  0.74100  1.0000
  Na  Na8       1.0  0.05890  0.48800  0.74100  1.0000
  Na  Na9       1.0  0.44100  0.48800  0.74100  1.0000
  Na  Na10      1.0  0.75000  0.25000  0.82000  1.0000
  O   O1        1.0  0.04020  0.25000  0.03320  1.0000
  O   O2        1.0  0.46000  0.25000  0.03320  1.0000
  O   O3        1.0  0.25000  0.03380  0.40000  1.0000
  O   O4        1.0  0.25000  0.46600  0.40000  1.0000
  O   O5        1.0  0.75000  0.53400  0.60000  1.0000
  O   O6        1.0  0.75000  0.96600  0.60000  1.0000
  O   O7        1.0  0.54000  0.75000  0.96700  1.0000
  O   O8        1.0  0.96000  0.75000  0.96700  1.0000
