data_image0
_chemical_formula_structural       O8Zn2
_chemical_formula_sum              "O8 Zn2"
_cell_length_a       4.29331
_cell_length_b       4.29521
_cell_length_c       4.93987
_cell_angle_alpha    90
_cell_angle_beta     90
_cell_angle_gamma    90

_space_group_name_H-M_alt    "P 1"
_space_group_IT_number       1

loop_
  _space_group_symop_operation_xyz
  'x, y, z'

loop_
  _atom_site_type_symbol
  _atom_site_label
  _atom_site_symmetry_multiplicity
  _atom_site_fract_x
  _atom_site_fract_y
  _atom_site_fract_z
  _atom_site_occupancy
  O   O1        1.0  0.09270  0.25000  0.05290  1.0000
  O   O2        1.0  0.40700  0.25000  0.05290  1.0000
  O   O3        1.0  0.75000  0.59300  0.44200  1.0000
  O   O4        1.0  0.75000  0.90700  0.44200  1.0000
  O   O5        1.0  0.25000  0.09240  0.55300  1.0000
  O   O6        1.0  0.25000  0.40800  0.55300  1.0000
  O   O7        1.0  0.59300  0.75000  0.94200  1.0000
  O   O8        1.0  0.90700  0.75000  0.94200  1.0000
  Zn  Zn1       1.0  0.25000  0.75000  0.24800  1.0000
  Zn  Zn2       1.0  0.75000  0.25000  0.74800  1.0000
