data_image0
_chemical_formula_structural       B16Na8O28
_chemical_formula_sum              "B16 Na8 O28"
_cell_length_a       6.46176
_cell_length_b       8.48363
_cell_length_c       10.3578
_cell_angle_alpha    93.5531
_cell_angle_beta     95.0424
_cell_angle_gamma    90.4216

_space_group_name_H-M_alt    "P 1"
_space_group_IT_number       1

loop_
  _space_group_symop_operation_xyz
  'x, y, z'

loop_
  _atom_site_type_symbol
  _atom_site_label
  _atom_site_symmetry_multiplicity
  _atom_site_fract_x
  _atom_site_fract_y
  _atom_site_fract_z
  _atom_site_occupancy
  B   B1        1.0  0.32200  0.72000  0.01720  1.0000
  B   B2        1.0  0.14700  0.95000  0.12200  1.0000
  B   B3        1.0  0.10900  0.69100  0.19400  1.0000
  B   B4        1.0  0.06590  0.18100  0.27000  1.0000
  B   B5        1.0  0.94500  0.45600  0.28600  1.0000
  B   B6        1.0  0.74400  0.24500  0.37100  1.0000
  B   B7        1.0  0.34600  0.76900  0.40400  1.0000
  B   B8        1.0  0.38400  0.17500  0.42500  1.0000
  B   B9        1.0  0.61600  0.82500  0.57500  1.0000
  B   B10       1.0  0.65400  0.23100  0.59600  1.0000
  B   B11       1.0  0.25600  0.75500  0.62900  1.0000
  B   B12       1.0  0.05510  0.54400  0.71400  1.0000
  B   B13       1.0  0.93400  0.81900  0.73000  1.0000
  B   B14       1.0  0.89100  0.30900  0.80600  1.0000
  B   B15       1.0  0.85300  0.05040  0.87800  1.0000
  B   B16       1.0  0.67800  0.28000  0.98300  1.0000
  Na  Na1       1.0  0.18000  0.34000  0.01690  1.0000
  Na  Na2       1.0  0.55200  0.07490  0.14600  1.0000
  Na  Na3       1.0  0.46500  0.46600  0.23600  1.0000
  Na  Na4       1.0  0.89100  0.87900  0.38200  1.0000
  Na  Na5       1.0  0.10900  0.12100  0.61800  1.0000
  Na  Na6       1.0  0.53500  0.53400  0.76400  1.0000
  Na  Na7       1.0  0.44800  0.92500  0.85400  1.0000
  Na  Na8       1.0  0.82000  0.66000  0.98300  1.0000
  O   O1        1.0  0.29800  0.88900  0.04600  1.0000
  O   O2        1.0  0.52900  0.32500  0.05410  1.0000
  O   O3        1.0  0.17600  0.62200  0.06900  1.0000
  O   O4        1.0  0.14600  0.10800  0.14900  1.0000
  O   O5        1.0  0.01580  0.84900  0.17400  1.0000
  O   O6        1.0  0.94500  0.60600  0.24600  1.0000
  O   O7        1.0  0.10100  0.35300  0.25800  1.0000
  O   O8        1.0  0.30800  0.71100  0.27800  1.0000
  O   O9        1.0  0.85100  0.14100  0.28300  1.0000
  O   O10       1.0  0.51800  0.21300  0.33800  1.0000
  O   O11       1.0  0.77900  0.41300  0.35000  1.0000
  O   O12       1.0  0.18600  0.12700  0.38900  1.0000
  O   O13       1.0  0.55300  0.81400  0.44100  1.0000
  O   O14       1.0  0.19800  0.78100  0.48900  1.0000
  O   O15       1.0  0.80200  0.21900  0.51100  1.0000
  O   O16       1.0  0.44700  0.18600  0.55900  1.0000
  O   O17       1.0  0.81400  0.87300  0.61100  1.0000
  O   O18       1.0  0.22100  0.58700  0.65000  1.0000
  O   O19       1.0  0.48200  0.78700  0.66200  1.0000
  O   O20       1.0  0.14900  0.85900  0.71700  1.0000
  O   O21       1.0  0.69200  0.28900  0.72200  1.0000
  O   O22       1.0  0.89900  0.64700  0.74200  1.0000
  O   O23       1.0  0.05520  0.39400  0.75400  1.0000
  O   O24       1.0  0.98400  0.15100  0.82600  1.0000
  O   O25       1.0  0.85400  0.89200  0.85100  1.0000
  O   O26       1.0  0.82400  0.37800  0.93100  1.0000
  O   O27       1.0  0.47100  0.67500  0.94600  1.0000
  O   O28       1.0  0.70200  0.11100  0.95400  1.0000
