data_image0
_chemical_formula_structural       Ge2Na16O12
_chemical_formula_sum              "Ge2 Na16 O12"
_cell_length_a       6.27036
_cell_length_b       6.27036
_cell_length_c       12.5293
_cell_angle_alpha    90
_cell_angle_beta     90
_cell_angle_gamma    120.001

_space_group_name_H-M_alt    "P 1"
_space_group_IT_number       1

loop_
  _space_group_symop_operation_xyz
  'x, y, z'

loop_
  _atom_site_type_symbol
  _atom_site_label
  _atom_site_symmetry_multiplicity
  _atom_site_fract_x
  _atom_site_fract_y
  _atom_site_fract_z
  _atom_site_occupancy
  Ge  Ge1       1.0  0.00000  0.00000  0.50000  1.0000
  Ge  Ge2       1.0  0.00000  0.00000  0.00000  1.0000
  Na  Na1       1.0  0.60600  0.00000  0.12600  1.0000
  Na  Na2       1.0  0.39400  0.39400  0.12600  1.0000
  Na  Na3       1.0  0.00000  0.60600  0.12600  1.0000
  Na  Na4       1.0  0.70600  0.70600  0.27200  1.0000
  Na  Na5       1.0  0.29400  0.00000  0.27200  1.0000
  Na  Na6       1.0  0.00000  0.29400  0.27200  1.0000
  Na  Na7       1.0  0.66700  0.33300  0.41500  1.0000
  Na  Na8       1.0  0.33300  0.66700  0.41500  1.0000
  Na  Na9       1.0  0.60600  0.60600  0.62600  1.0000
  Na  Na10      1.0  0.39400  0.00000  0.62600  1.0000
  Na  Na11      1.0  0.00000  0.39400  0.62600  1.0000
  Na  Na12      1.0  0.70600  0.00000  0.77200  1.0000
  Na  Na13      1.0  0.29400  0.29400  0.77200  1.0000
  Na  Na14      1.0  0.00000  0.70600  0.77200  1.0000
  Na  Na15      1.0  0.66700  0.33300  0.91500  1.0000
  Na  Na16      1.0  0.33300  0.66700  0.91500  1.0000
  O   O1        1.0  0.00000  0.00000  0.14500  1.0000
  O   O2        1.0  0.33300  0.66700  0.22400  1.0000
  O   O3        1.0  0.66700  0.33300  0.22400  1.0000
  O   O4        1.0  0.27000  0.00000  0.45500  1.0000
  O   O5        1.0  0.73000  0.73000  0.45500  1.0000
  O   O6        1.0  0.00000  0.27000  0.45500  1.0000
  O   O7        1.0  0.00000  0.00000  0.64500  1.0000
  O   O8        1.0  0.66700  0.33300  0.72400  1.0000
  O   O9        1.0  0.33300  0.66700  0.72400  1.0000
  O   O10       1.0  0.73000  0.00000  0.95500  1.0000
  O   O11       1.0  0.27000  0.27000  0.95500  1.0000
  O   O12       1.0  0.00000  0.73000  0.95500  1.0000
