data_image0
_chemical_formula_structural       Ba4Mn8O22Tb4
_chemical_formula_sum              "Ba4 Mn8 O22 Tb4"
_cell_length_a       7.60792
_cell_length_b       8.14708
_cell_length_c       9.49356
_cell_angle_alpha    115.41
_cell_angle_beta     113.621
_cell_angle_gamma    90

_space_group_name_H-M_alt    "P 1"
_space_group_IT_number       1

loop_
  _space_group_symop_operation_xyz
  'x, y, z'

loop_
  _atom_site_type_symbol
  _atom_site_label
  _atom_site_symmetry_multiplicity
  _atom_site_fract_x
  _atom_site_fract_y
  _atom_site_fract_z
  _atom_site_occupancy
  Ba  Ba1       1.0  0.24900  0.50200  0.49900  1.0000
  Ba  Ba2       1.0  0.74900  0.99700  0.49900  1.0000
  Ba  Ba3       1.0  0.25100  0.00342  0.50100  1.0000
  Ba  Ba4       1.0  0.75100  0.49800  0.50100  1.0000
  Mn  Mn1       1.0  0.36400  0.11400  0.22700  1.0000
  Mn  Mn2       1.0  0.86400  0.11400  0.22700  1.0000
  Mn  Mn3       1.0  0.37600  0.62600  0.25100  1.0000
  Mn  Mn4       1.0  0.87600  0.62600  0.25100  1.0000
  Mn  Mn5       1.0  0.12400  0.37400  0.74900  1.0000
  Mn  Mn6       1.0  0.62400  0.37400  0.74900  1.0000
  Mn  Mn7       1.0  0.13600  0.88600  0.77300  1.0000
  Mn  Mn8       1.0  0.63600  0.88600  0.77300  1.0000
  O   O1        1.0  0.25000  0.50000  0.00000  1.0000
  O   O2        1.0  0.75000  0.50000  0.00000  1.0000
  O   O3        1.0  0.59100  0.13600  0.18200  1.0000
  O   O4        1.0  0.09110  0.04580  0.18200  1.0000
  O   O5        1.0  0.31600  0.33300  0.20100  1.0000
  O   O6        1.0  0.88500  0.33300  0.20100  1.0000
  O   O7        1.0  0.38500  0.86900  0.20100  1.0000
  O   O8        1.0  0.81600  0.86900  0.20100  1.0000
  O   O9        1.0  0.11600  0.64600  0.23200  1.0000
  O   O10       1.0  0.61600  0.58600  0.23200  1.0000
  O   O11       1.0  0.50000  0.75000  0.50000  1.0000
  O   O12       1.0  0.00000  0.75000  0.50000  1.0000
  O   O13       1.0  0.00013  0.25000  0.50000  1.0000
  O   O14       1.0  0.50000  0.25000  0.50000  1.0000
  O   O15       1.0  0.38400  0.41400  0.76800  1.0000
  O   O16       1.0  0.88400  0.35400  0.76800  1.0000
  O   O17       1.0  0.18400  0.13100  0.79900  1.0000
  O   O18       1.0  0.61500  0.13100  0.79900  1.0000
  O   O19       1.0  0.11500  0.66700  0.79900  1.0000
  O   O20       1.0  0.68400  0.66700  0.79900  1.0000
  O   O21       1.0  0.90900  0.95400  0.81800  1.0000
  O   O22       1.0  0.40900  0.86400  0.81800  1.0000
  Tb  Tb1       1.0  0.00364  0.72600  0.00729  1.0000
  Tb  Tb2       1.0  0.50400  0.28100  0.00729  1.0000
  Tb  Tb3       1.0  0.49600  0.71900  0.99300  1.0000
  Tb  Tb4       1.0  0.99600  0.27400  0.99300  1.0000
