data_image0
_chemical_formula_structural       B4Na12O12
_chemical_formula_sum              "B4 Na12 O12"
_cell_length_a       5.65174
_cell_length_b       7.44681
_cell_length_c       9.91431
_cell_angle_alpha    90
_cell_angle_beta     127.18
_cell_angle_gamma    90

_space_group_name_H-M_alt    "P 1"
_space_group_IT_number       1

loop_
  _space_group_symop_operation_xyz
  'x, y, z'

loop_
  _atom_site_type_symbol
  _atom_site_label
  _atom_site_symmetry_multiplicity
  _atom_site_fract_x
  _atom_site_fract_y
  _atom_site_fract_z
  _atom_site_occupancy
  B   B1        1.0  0.58500  0.16100  0.15300  1.0000
  B   B2        1.0  0.41500  0.66100  0.34700  1.0000
  B   B3        1.0  0.58500  0.33900  0.65300  1.0000
  B   B4        1.0  0.41500  0.83900  0.84700  1.0000
  Na  Na1       1.0  0.29800  0.47400  0.04460  1.0000
  Na  Na2       1.0  0.19200  0.85100  0.07190  1.0000
  Na  Na3       1.0  0.84900  0.78000  0.22200  1.0000
  Na  Na4       1.0  0.15100  0.28000  0.27800  1.0000
  Na  Na5       1.0  0.80800  0.35100  0.42800  1.0000
  Na  Na6       1.0  0.70200  0.97400  0.45500  1.0000
  Na  Na7       1.0  0.29800  0.02650  0.54500  1.0000
  Na  Na8       1.0  0.19200  0.64900  0.57200  1.0000
  Na  Na9       1.0  0.84900  0.72000  0.72200  1.0000
  Na  Na10      1.0  0.15100  0.22000  0.77800  1.0000
  Na  Na11      1.0  0.80800  0.14900  0.92800  1.0000
  Na  Na12      1.0  0.70200  0.52600  0.95500  1.0000
  O   O1        1.0  0.61000  0.27000  0.04760  1.0000
  O   O2        1.0  0.31400  0.14800  0.12800  1.0000
  O   O3        1.0  0.16200  0.58000  0.20700  1.0000
  O   O4        1.0  0.83800  0.08000  0.29300  1.0000
  O   O5        1.0  0.68600  0.64800  0.37200  1.0000
  O   O6        1.0  0.39000  0.77000  0.45200  1.0000
  O   O7        1.0  0.61000  0.23000  0.54800  1.0000
  O   O8        1.0  0.31400  0.35200  0.62800  1.0000
  O   O9        1.0  0.16200  0.92000  0.70700  1.0000
  O   O10       1.0  0.83800  0.42000  0.79300  1.0000
  O   O11       1.0  0.68600  0.85200  0.87200  1.0000
  O   O12       1.0  0.39000  0.73000  0.95200  1.0000
