data_image0
_chemical_formula_structural       Fe30Ge4U4
_chemical_formula_sum              "Fe30 Ge4 U4"
_cell_length_a       8.29915
_cell_length_b       8.29942
_cell_length_c       8.50356
_cell_angle_alpha    90
_cell_angle_beta     90
_cell_angle_gamma    119.999

_space_group_name_H-M_alt    "P 1"
_space_group_IT_number       1

loop_
  _space_group_symop_operation_xyz
  'x, y, z'

loop_
  _atom_site_type_symbol
  _atom_site_label
  _atom_site_symmetry_multiplicity
  _atom_site_fract_x
  _atom_site_fract_y
  _atom_site_fract_z
  _atom_site_occupancy
  Fe  Fe1       1.0  0.50000  0.00000  0.00000  1.0000
  Fe  Fe2       1.0  0.00000  0.50000  0.00000  1.0000
  Fe  Fe3       1.0  0.50000  0.50000  0.00000  1.0000
  Fe  Fe4       1.0  0.32900  0.16500  0.00940  1.0000
  Fe  Fe5       1.0  0.83600  0.16500  0.00940  1.0000
  Fe  Fe6       1.0  0.83500  0.67100  0.00943  1.0000
  Fe  Fe7       1.0  0.01670  0.34800  0.25000  1.0000
  Fe  Fe8       1.0  0.33100  0.34800  0.25000  1.0000
  Fe  Fe9       1.0  0.01680  0.66900  0.25000  1.0000
  Fe  Fe10      1.0  0.65200  0.66900  0.25000  1.0000
  Fe  Fe11      1.0  0.33100  0.98300  0.25000  1.0000
  Fe  Fe12      1.0  0.65200  0.98300  0.25000  1.0000
  Fe  Fe13      1.0  0.83500  0.67100  0.49100  1.0000
  Fe  Fe14      1.0  0.32900  0.16500  0.49100  1.0000
  Fe  Fe15      1.0  0.83600  0.16500  0.49100  1.0000
  Fe  Fe16      1.0  0.50000  0.00000  0.50000  1.0000
  Fe  Fe17      1.0  0.00000  0.50000  0.50000  1.0000
  Fe  Fe18      1.0  0.50000  0.50000  0.50000  1.0000
  Fe  Fe19      1.0  0.16400  0.83500  0.50900  1.0000
  Fe  Fe20      1.0  0.67100  0.83500  0.50900  1.0000
  Fe  Fe21      1.0  0.16500  0.32900  0.50900  1.0000
  Fe  Fe22      1.0  0.34800  0.01660  0.75000  1.0000
  Fe  Fe23      1.0  0.66900  0.01660  0.75000  1.0000
  Fe  Fe24      1.0  0.34800  0.33100  0.75000  1.0000
  Fe  Fe25      1.0  0.98300  0.33100  0.75000  1.0000
  Fe  Fe26      1.0  0.66900  0.65200  0.75000  1.0000
  Fe  Fe27      1.0  0.98300  0.65200  0.75000  1.0000
  Fe  Fe28      1.0  0.16500  0.32900  0.99100  1.0000
  Fe  Fe29      1.0  0.16400  0.83500  0.99100  1.0000
  Fe  Fe30      1.0  0.67100  0.83500  0.99100  1.0000
  Ge  Ge1       1.0  0.33300  0.66700  0.10200  1.0000
  Ge  Ge2       1.0  0.33300  0.66700  0.39800  1.0000
  Ge  Ge3       1.0  0.66700  0.33300  0.60200  1.0000
  Ge  Ge4       1.0  0.66700  0.33300  0.89800  1.0000
  U   U1        1.0  0.00000  0.00000  0.25000  1.0000
  U   U2        1.0  0.66700  0.33300  0.25000  1.0000
  U   U3        1.0  0.00000  0.00000  0.75000  1.0000
  U   U4        1.0  0.33300  0.66700  0.75000  1.0000
