data_image0
_chemical_formula_structural       F28O4Os2Sb4
_chemical_formula_sum              "F28 O4 Os2 Sb4"
_cell_length_a       7.1164
_cell_length_b       8.21922
_cell_length_c       9.57158
_cell_angle_alpha    97.6622
_cell_angle_beta     110.916
_cell_angle_gamma    111.918

_space_group_name_H-M_alt    "P 1"
_space_group_IT_number       1

loop_
  _space_group_symop_operation_xyz
  'x, y, z'

loop_
  _atom_site_type_symbol
  _atom_site_label
  _atom_site_symmetry_multiplicity
  _atom_site_fract_x
  _atom_site_fract_y
  _atom_site_fract_z
  _atom_site_occupancy
  F   F1        1.0  0.85400  0.88000  0.04050  1.0000
  F   F2        1.0  0.86200  0.21200  0.04320  1.0000
  F   F3        1.0  0.87900  0.55500  0.05670  1.0000
  F   F4        1.0  0.59100  0.28700  0.13200  1.0000
  F   F5        1.0  0.61300  0.99200  0.13500  1.0000
  F   F6        1.0  0.58900  0.63800  0.13600  1.0000
  F   F7        1.0  0.31900  0.73100  0.22200  1.0000
  F   F8        1.0  0.31700  0.04770  0.22900  1.0000
  F   F9        1.0  0.32200  0.40500  0.23300  1.0000
  F   F10       1.0  0.02520  0.14600  0.31100  1.0000
  F   F11       1.0  0.06010  0.81900  0.33300  1.0000
  F   F12       1.0  0.75800  0.90300  0.40700  1.0000
  F   F13       1.0  0.78300  0.57400  0.41600  1.0000
  F   F14       1.0  0.49100  0.67300  0.49700  1.0000
  F   F15       1.0  0.50900  0.32700  0.50300  1.0000
  F   F16       1.0  0.21700  0.42600  0.58400  1.0000
  F   F17       1.0  0.24200  0.09660  0.59300  1.0000
  F   F18       1.0  0.94000  0.18100  0.66700  1.0000
  F   F19       1.0  0.97500  0.85400  0.68900  1.0000
  F   F20       1.0  0.67800  0.59500  0.76700  1.0000
  F   F21       1.0  0.68300  0.95200  0.77100  1.0000
  F   F22       1.0  0.68100  0.26900  0.77800  1.0000
  F   F23       1.0  0.41100  0.36200  0.86400  1.0000
  F   F24       1.0  0.38700  0.00776  0.86500  1.0000
  F   F25       1.0  0.40900  0.71300  0.86800  1.0000
  F   F26       1.0  0.12100  0.44500  0.94300  1.0000
  F   F27       1.0  0.13800  0.78800  0.95700  1.0000
  F   F28       1.0  0.14600  0.12000  0.95900  1.0000
  O   O1        1.0  0.02080  0.45700  0.30700  1.0000
  O   O2        1.0  0.76100  0.23900  0.41300  1.0000
  O   O3        1.0  0.23900  0.76100  0.58700  1.0000
  O   O4        1.0  0.97900  0.54300  0.69300  1.0000
  Os  Os1       1.0  0.81600  0.23800  0.25600  1.0000
  Os  Os2       1.0  0.18400  0.76200  0.74400  1.0000
  Sb  Sb1       1.0  0.07470  0.80900  0.14100  1.0000
  Sb  Sb2       1.0  0.55900  0.64900  0.32400  1.0000
  Sb  Sb3       1.0  0.44100  0.35100  0.67600  1.0000
  Sb  Sb4       1.0  0.92500  0.19100  0.85900  1.0000
