data_image0
_chemical_formula_structural       Co34Pu4
_chemical_formula_sum              "Co34 Pu4"
_cell_length_a       8.18527
_cell_length_b       8.18643
_cell_length_c       7.93928
_cell_angle_alpha    90
_cell_angle_beta     90
_cell_angle_gamma    119.992

_space_group_name_H-M_alt    "P 1"
_space_group_IT_number       1

loop_
  _space_group_symop_operation_xyz
  'x, y, z'

loop_
  _atom_site_type_symbol
  _atom_site_label
  _atom_site_symmetry_multiplicity
  _atom_site_fract_x
  _atom_site_fract_y
  _atom_site_fract_z
  _atom_site_occupancy
  Co  Co1       1.0  0.50000  0.00000  0.00000  1.0000
  Co  Co2       1.0  0.00000  0.50000  0.00000  1.0000
  Co  Co3       1.0  0.50000  0.50000  0.00000  1.0000
  Co  Co4       1.0  0.83500  0.66900  0.02910  1.0000
  Co  Co5       1.0  0.83500  0.16500  0.02920  1.0000
  Co  Co6       1.0  0.33100  0.16500  0.02920  1.0000
  Co  Co7       1.0  0.33300  0.66700  0.09810  1.0000
  Co  Co8       1.0  0.32500  0.37000  0.25000  1.0000
  Co  Co9       1.0  0.04520  0.37000  0.25000  1.0000
  Co  Co10      1.0  0.63000  0.67500  0.25000  1.0000
  Co  Co11      1.0  0.04510  0.67500  0.25000  1.0000
  Co  Co12      1.0  0.32500  0.95500  0.25000  1.0000
  Co  Co13      1.0  0.63000  0.95500  0.25000  1.0000
  Co  Co14      1.0  0.33300  0.66700  0.40200  1.0000
  Co  Co15      1.0  0.33100  0.16500  0.47100  1.0000
  Co  Co16      1.0  0.83500  0.16500  0.47100  1.0000
  Co  Co17      1.0  0.83500  0.66900  0.47100  1.0000
  Co  Co18      1.0  0.50000  0.00000  0.50000  1.0000
  Co  Co19      1.0  0.00000  0.50000  0.50000  1.0000
  Co  Co20      1.0  0.50000  0.50000  0.50000  1.0000
  Co  Co21      1.0  0.16500  0.33100  0.52900  1.0000
  Co  Co22      1.0  0.16500  0.83500  0.52900  1.0000
  Co  Co23      1.0  0.66900  0.83500  0.52900  1.0000
  Co  Co24      1.0  0.66700  0.33300  0.59800  1.0000
  Co  Co25      1.0  0.37000  0.04540  0.75000  1.0000
  Co  Co26      1.0  0.67500  0.04540  0.75000  1.0000
  Co  Co27      1.0  0.95500  0.32500  0.75000  1.0000
  Co  Co28      1.0  0.37000  0.32500  0.75000  1.0000
  Co  Co29      1.0  0.95500  0.63000  0.75000  1.0000
  Co  Co30      1.0  0.67500  0.63000  0.75000  1.0000
  Co  Co31      1.0  0.66700  0.33300  0.90200  1.0000
  Co  Co32      1.0  0.66900  0.83500  0.97100  1.0000
  Co  Co33      1.0  0.16500  0.83500  0.97100  1.0000
  Co  Co34      1.0  0.16500  0.33100  0.97100  1.0000
  Pu  Pu1       1.0  0.00000  0.00014  0.25000  1.0000
  Pu  Pu2       1.0  0.66700  0.33300  0.25000  1.0000
  Pu  Pu3       1.0  0.33300  0.66700  0.75000  1.0000
  Pu  Pu4       1.0  0.00000  0.00000  0.75000  1.0000
