data_image0
_chemical_formula_structural       Na15O12Si2
_chemical_formula_sum              "Na15 O12 Si2"
_cell_length_a       6.15354
_cell_length_b       6.15368
_cell_length_c       12.0019
_cell_angle_alpha    89.998
_cell_angle_beta     90.0006
_cell_angle_gamma    120.002

_space_group_name_H-M_alt    "P 1"
_space_group_IT_number       1

loop_
  _space_group_symop_operation_xyz
  'x, y, z'

loop_
  _atom_site_type_symbol
  _atom_site_label
  _atom_site_symmetry_multiplicity
  _atom_site_fract_x
  _atom_site_fract_y
  _atom_site_fract_z
  _atom_site_occupancy
  Na  Na1       1.0  0.61700  0.00757  0.13000  1.0000
  Na  Na2       1.0  0.99200  0.60900  0.13000  1.0000
  Na  Na3       1.0  0.39100  0.38300  0.13000  1.0000
  Na  Na4       1.0  0.68300  0.73400  0.30800  1.0000
  Na  Na5       1.0  0.05110  0.31700  0.30800  1.0000
  Na  Na6       1.0  0.26600  0.94900  0.30800  1.0000
  Na  Na7       1.0  0.66700  0.33300  0.41100  1.0000
  Na  Na8       1.0  0.00371  0.43400  0.59100  1.0000
  Na  Na9       1.0  0.56600  0.57000  0.59100  1.0000
  Na  Na10      1.0  0.43000  0.99600  0.59100  1.0000
  Na  Na11      1.0  0.28700  0.28700  0.76500  1.0000
  Na  Na12      1.0  0.71300  0.00028  0.76500  1.0000
  Na  Na13      1.0  0.00000  0.71300  0.76500  1.0000
  Na  Na14      1.0  0.66700  0.33300  0.91500  1.0000
  Na  Na15      1.0  0.33300  0.66700  0.91900  1.0000
  O   O1        1.0  0.00000  0.00000  0.14000  1.0000
  O   O2        1.0  0.33300  0.66700  0.22100  1.0000
  O   O3        1.0  0.66700  0.33300  0.23100  1.0000
  O   O4        1.0  0.77700  0.05230  0.46200  1.0000
  O   O5        1.0  0.94800  0.72500  0.46200  1.0000
  O   O6        1.0  0.27500  0.22300  0.46200  1.0000
  O   O7        1.0  0.00000  0.00000  0.64600  1.0000
  O   O8        1.0  0.33300  0.66700  0.71200  1.0000
  O   O9        1.0  0.66700  0.33300  0.71200  1.0000
  O   O10       1.0  0.74600  0.00272  0.95400  1.0000
  O   O11       1.0  0.99700  0.74300  0.95400  1.0000
  O   O12       1.0  0.25700  0.25400  0.95400  1.0000
  Si  Si1       1.0  0.00019  0.00000  0.50900  1.0000
  Si  Si2       1.0  0.00000  0.00000  0.99900  1.0000
