data_image0
_chemical_formula_structural       Na2O16V6
_chemical_formula_sum              "Na2 O16 V6"
_cell_length_a       6.89462
_cell_length_b       3.62492
_cell_length_c       12.1362
_cell_angle_alpha    90
_cell_angle_beta     108.326
_cell_angle_gamma    90

_space_group_name_H-M_alt    "P 1"
_space_group_IT_number       1

loop_
  _space_group_symop_operation_xyz
  'x, y, z'

loop_
  _atom_site_type_symbol
  _atom_site_label
  _atom_site_symmetry_multiplicity
  _atom_site_fract_x
  _atom_site_fract_y
  _atom_site_fract_z
  _atom_site_occupancy
  Na  Na1       1.0  0.50800  0.75000  0.31900  1.0000
  Na  Na2       1.0  0.49200  0.25000  0.68100  1.0000
  O   O1        1.0  0.72400  0.75000  0.04910  1.0000
  O   O2        1.0  0.12200  0.75000  0.07120  1.0000
  O   O3        1.0  0.99700  0.25000  0.17300  1.0000
  O   O4        1.0  0.42100  0.25000  0.18300  1.0000
  O   O5        1.0  0.79800  0.75000  0.27900  1.0000
  O   O6        1.0  0.19000  0.75000  0.32300  1.0000
  O   O7        1.0  0.62700  0.25000  0.44800  1.0000
  O   O8        1.0  0.06280  0.25000  0.45700  1.0000
  O   O9        1.0  0.93700  0.75000  0.54300  1.0000
  O   O10       1.0  0.37300  0.75000  0.55200  1.0000
  O   O11       1.0  0.81000  0.25000  0.67700  1.0000
  O   O12       1.0  0.20200  0.25000  0.72100  1.0000
  O   O13       1.0  0.57900  0.75000  0.81700  1.0000
  O   O14       1.0  0.00274  0.75000  0.82700  1.0000
  O   O15       1.0  0.87800  0.25000  0.92900  1.0000
  O   O16       1.0  0.27600  0.25000  0.95100  1.0000
  V   V1        1.0  0.20400  0.25000  0.07880  1.0000
  V   V2        1.0  0.93200  0.75000  0.19000  1.0000
  V   V3        1.0  0.14400  0.75000  0.45700  1.0000
  V   V4        1.0  0.85600  0.25000  0.54300  1.0000
  V   V5        1.0  0.06750  0.25000  0.81000  1.0000
  V   V6        1.0  0.79600  0.75000  0.92100  1.0000
