data_image0
_chemical_formula_structural       Ge9Na4O20
_chemical_formula_sum              "Ge9 Na4 O20"
_cell_length_a       7.51515
_cell_length_b       7.51515
_cell_length_c       7.69598
_cell_angle_alpha    89.4635
_cell_angle_beta     89.4635
_cell_angle_gamma    65.4786

_space_group_name_H-M_alt    "P 1"
_space_group_IT_number       1

loop_
  _space_group_symop_operation_xyz
  'x, y, z'

loop_
  _atom_site_type_symbol
  _atom_site_label
  _atom_site_symmetry_multiplicity
  _atom_site_fract_x
  _atom_site_fract_y
  _atom_site_fract_z
  _atom_site_occupancy
  Ge  Ge1       1.0  0.60000  0.91900  0.04520  1.0000
  Ge  Ge2       1.0  0.12200  0.09170  0.24400  1.0000
  Ge  Ge3       1.0  0.35400  0.34400  0.29600  1.0000
  Ge  Ge4       1.0  0.50700  0.67900  0.33600  1.0000
  Ge  Ge5       1.0  0.76200  0.23800  0.50000  1.0000
  Ge  Ge6       1.0  0.32100  0.49300  0.66400  1.0000
  Ge  Ge7       1.0  0.65600  0.64600  0.70400  1.0000
  Ge  Ge8       1.0  0.90800  0.87800  0.75600  1.0000
  Ge  Ge9       1.0  0.08060  0.40000  0.95500  1.0000
  Na  Na1       1.0  0.72300  0.27700  0.00000  1.0000
  Na  Na2       1.0  0.33600  0.66400  0.00000  1.0000
  Na  Na3       1.0  0.94900  0.74500  0.33200  1.0000
  Na  Na4       1.0  0.25500  0.05120  0.66800  1.0000
  O   O1        1.0  0.06550  0.17900  0.02720  1.0000
  O   O2        1.0  0.46600  0.15800  0.11900  1.0000
  O   O3        1.0  0.15400  0.50200  0.13000  1.0000
  O   O4        1.0  0.67500  0.75100  0.22100  1.0000
  O   O5        1.0  0.52500  0.46400  0.22600  1.0000
  O   O6        1.0  0.28000  0.84500  0.22600  1.0000
  O   O7        1.0  0.89500  0.09410  0.31900  1.0000
  O   O8        1.0  0.20400  0.21700  0.38700  1.0000
  O   O9        1.0  0.23000  0.55300  0.45200  1.0000
  O   O10       1.0  0.76400  0.47300  0.50000  1.0000
  O   O11       1.0  0.52700  0.23600  0.50000  1.0000
  O   O12       1.0  0.44700  0.77000  0.54800  1.0000
  O   O13       1.0  0.78300  0.79600  0.61300  1.0000
  O   O14       1.0  0.90600  0.10500  0.68100  1.0000
  O   O15       1.0  0.15500  0.72000  0.77400  1.0000
  O   O16       1.0  0.53600  0.47500  0.77400  1.0000
  O   O17       1.0  0.24900  0.32500  0.77900  1.0000
  O   O18       1.0  0.49800  0.84600  0.87000  1.0000
  O   O19       1.0  0.84200  0.53400  0.88100  1.0000
  O   O20       1.0  0.82100  0.93500  0.97300  1.0000
