data_image0
_chemical_formula_structural       Na16O12Si2
_chemical_formula_sum              "Na16 O12 Si2"
_cell_length_a       6.18107
_cell_length_b       6.18107
_cell_length_c       12.4262
_cell_angle_alpha    90
_cell_angle_beta     90
_cell_angle_gamma    120.001

_space_group_name_H-M_alt    "P 1"
_space_group_IT_number       1

loop_
  _space_group_symop_operation_xyz
  'x, y, z'

loop_
  _atom_site_type_symbol
  _atom_site_label
  _atom_site_symmetry_multiplicity
  _atom_site_fract_x
  _atom_site_fract_y
  _atom_site_fract_z
  _atom_site_occupancy
  Na  Na1       1.0  0.39500  0.39500  0.12400  1.0000
  Na  Na2       1.0  0.60500  0.00000  0.12400  1.0000
  Na  Na3       1.0  0.00000  0.60500  0.12400  1.0000
  Na  Na4       1.0  0.71100  0.71100  0.27300  1.0000
  Na  Na5       1.0  0.28900  0.00000  0.27300  1.0000
  Na  Na6       1.0  0.00000  0.28900  0.27300  1.0000
  Na  Na7       1.0  0.66700  0.33300  0.41700  1.0000
  Na  Na8       1.0  0.33300  0.66700  0.41700  1.0000
  Na  Na9       1.0  0.60500  0.60500  0.62400  1.0000
  Na  Na10      1.0  0.39500  0.00000  0.62400  1.0000
  Na  Na11      1.0  0.00000  0.39500  0.62400  1.0000
  Na  Na12      1.0  0.28900  0.28900  0.77200  1.0000
  Na  Na13      1.0  0.71100  0.00000  0.77300  1.0000
  Na  Na14      1.0  0.00000  0.71100  0.77300  1.0000
  Na  Na15      1.0  0.66700  0.33300  0.91700  1.0000
  Na  Na16      1.0  0.33300  0.66700  0.91700  1.0000
  O   O1        1.0  0.00000  0.00000  0.13500  1.0000
  O   O2        1.0  0.66700  0.33300  0.22500  1.0000
  O   O3        1.0  0.33300  0.66700  0.22500  1.0000
  O   O4        1.0  0.74500  0.74500  0.45600  1.0000
  O   O5        1.0  0.25500  0.00000  0.45600  1.0000
  O   O6        1.0  0.00000  0.25500  0.45600  1.0000
  O   O7        1.0  0.00000  0.00000  0.63500  1.0000
  O   O8        1.0  0.66700  0.33300  0.72500  1.0000
  O   O9        1.0  0.33300  0.66700  0.72500  1.0000
  O   O10       1.0  0.25500  0.25500  0.95600  1.0000
  O   O11       1.0  0.74500  0.00000  0.95600  1.0000
  O   O12       1.0  0.00000  0.74500  0.95600  1.0000
  Si  Si1       1.0  0.00000  0.00000  0.49900  1.0000
  Si  Si2       1.0  0.00000  0.00000  0.99900  1.0000
