data_image0
_chemical_formula_structural       Na20O18Zn8
_chemical_formula_sum              "Na20 O18 Zn8"
_cell_length_a       10.57
_cell_length_b       10.57
_cell_length_c       5.33766
_cell_angle_alpha    90
_cell_angle_beta     90
_cell_angle_gamma    90

_space_group_name_H-M_alt    "P 1"
_space_group_IT_number       1

loop_
  _space_group_symop_operation_xyz
  'x, y, z'

loop_
  _atom_site_type_symbol
  _atom_site_label
  _atom_site_symmetry_multiplicity
  _atom_site_fract_x
  _atom_site_fract_y
  _atom_site_fract_z
  _atom_site_occupancy
  Na  Na1       1.0  0.61100  0.54600  0.06590  1.0000
  Na  Na2       1.0  0.88900  0.54600  0.06590  1.0000
  Na  Na3       1.0  0.61100  0.95400  0.06590  1.0000
  Na  Na4       1.0  0.88900  0.95400  0.06590  1.0000
  Na  Na5       1.0  0.75000  0.75000  0.14600  1.0000
  Na  Na6       1.0  0.25000  0.25000  0.35400  1.0000
  Na  Na7       1.0  0.04560  0.11100  0.43400  1.0000
  Na  Na8       1.0  0.45400  0.11100  0.43400  1.0000
  Na  Na9       1.0  0.04560  0.38900  0.43400  1.0000
  Na  Na10      1.0  0.45400  0.38900  0.43400  1.0000
  Na  Na11      1.0  0.54600  0.61100  0.56600  1.0000
  Na  Na12      1.0  0.95400  0.61100  0.56600  1.0000
  Na  Na13      1.0  0.54600  0.88900  0.56600  1.0000
  Na  Na14      1.0  0.95400  0.88900  0.56600  1.0000
  Na  Na15      1.0  0.75000  0.75000  0.64600  1.0000
  Na  Na16      1.0  0.25000  0.25000  0.85400  1.0000
  Na  Na17      1.0  0.11100  0.04560  0.93400  1.0000
  Na  Na18      1.0  0.38900  0.04560  0.93400  1.0000
  Na  Na19      1.0  0.11100  0.45400  0.93400  1.0000
  Na  Na20      1.0  0.38900  0.45400  0.93400  1.0000
  O   O1        1.0  0.07730  0.25000  0.12000  1.0000
  O   O2        1.0  0.42300  0.25000  0.12000  1.0000
  O   O3        1.0  0.75000  0.25000  0.25000  1.0000
  O   O4        1.0  0.09330  0.59300  0.25000  1.0000
  O   O5        1.0  0.40700  0.59300  0.25000  1.0000
  O   O6        1.0  0.09330  0.90700  0.25000  1.0000
  O   O7        1.0  0.40700  0.90700  0.25000  1.0000
  O   O8        1.0  0.75000  0.57700  0.38000  1.0000
  O   O9        1.0  0.75000  0.92300  0.38000  1.0000
  O   O10       1.0  0.25000  0.07730  0.62000  1.0000
  O   O11       1.0  0.25000  0.42300  0.62000  1.0000
  O   O12       1.0  0.59300  0.09330  0.75000  1.0000
  O   O13       1.0  0.90700  0.09330  0.75000  1.0000
  O   O14       1.0  0.59300  0.40700  0.75000  1.0000
  O   O15       1.0  0.90700  0.40700  0.75000  1.0000
  O   O16       1.0  0.25000  0.75000  0.75000  1.0000
  O   O17       1.0  0.57700  0.75000  0.88000  1.0000
  O   O18       1.0  0.92300  0.75000  0.88000  1.0000
  Zn  Zn1       1.0  0.09770  0.75000  0.03360  1.0000
  Zn  Zn2       1.0  0.40200  0.75000  0.03360  1.0000
  Zn  Zn3       1.0  0.25000  0.59800  0.46600  1.0000
  Zn  Zn4       1.0  0.25000  0.90200  0.46600  1.0000
  Zn  Zn5       1.0  0.75000  0.09770  0.53400  1.0000
  Zn  Zn6       1.0  0.75000  0.40200  0.53400  1.0000
  Zn  Zn7       1.0  0.59800  0.25000  0.96600  1.0000
  Zn  Zn8       1.0  0.90200  0.25000  0.96600  1.0000
