data_image0
_chemical_formula_structural       Ba3O26Si4Ta6
_chemical_formula_sum              "Ba3 O26 Si4 Ta6"
_cell_length_a       9.01555
_cell_length_b       9.01555
_cell_length_c       7.71027
_cell_angle_alpha    90
_cell_angle_beta     90
_cell_angle_gamma    120

_space_group_name_H-M_alt    "P 1"
_space_group_IT_number       1

loop_
  _space_group_symop_operation_xyz
  'x, y, z'

loop_
  _atom_site_type_symbol
  _atom_site_label
  _atom_site_symmetry_multiplicity
  _atom_site_fract_x
  _atom_site_fract_y
  _atom_site_fract_z
  _atom_site_occupancy
  Ba  Ba1       1.0  0.60500  0.00000  0.50000  1.0000
  Ba  Ba2       1.0  0.39500  0.39500  0.50000  1.0000
  Ba  Ba3       1.0  0.00000  0.60500  0.50000  1.0000
  O   O1        1.0  0.28800  0.00000  0.00000  1.0000
  O   O2        1.0  0.00000  0.28800  0.00000  1.0000
  O   O3        1.0  0.66700  0.33300  0.00000  1.0000
  O   O4        1.0  0.33300  0.66700  0.00000  1.0000
  O   O5        1.0  0.71200  0.71200  0.00000  1.0000
  O   O6        1.0  0.81800  0.00000  0.22500  1.0000
  O   O7        1.0  0.00000  0.81800  0.22500  1.0000
  O   O8        1.0  0.18200  0.18200  0.22500  1.0000
  O   O9        1.0  0.48800  0.18200  0.28900  1.0000
  O   O10       1.0  0.18200  0.48800  0.28900  1.0000
  O   O11       1.0  0.81800  0.30600  0.28900  1.0000
  O   O12       1.0  0.30600  0.81800  0.28900  1.0000
  O   O13       1.0  0.69400  0.51200  0.28900  1.0000
  O   O14       1.0  0.51200  0.69400  0.28900  1.0000
  O   O15       1.0  0.21900  0.00000  0.50000  1.0000
  O   O16       1.0  0.00000  0.21900  0.50000  1.0000
  O   O17       1.0  0.78100  0.78100  0.50000  1.0000
  O   O18       1.0  0.69400  0.51200  0.71100  1.0000
  O   O19       1.0  0.51200  0.69400  0.71100  1.0000
  O   O20       1.0  0.81800  0.30600  0.71100  1.0000
  O   O21       1.0  0.30600  0.81800  0.71100  1.0000
  O   O22       1.0  0.48800  0.18200  0.71100  1.0000
  O   O23       1.0  0.18200  0.48800  0.71100  1.0000
  O   O24       1.0  0.18200  0.18200  0.77500  1.0000
  O   O25       1.0  0.81800  0.00000  0.77500  1.0000
  O   O26       1.0  0.00000  0.81800  0.77500  1.0000
  Si  Si1       1.0  0.66700  0.33300  0.20800  1.0000
  Si  Si2       1.0  0.33300  0.66700  0.20800  1.0000
  Si  Si3       1.0  0.66700  0.33300  0.79200  1.0000
  Si  Si4       1.0  0.33300  0.66700  0.79200  1.0000
  Ta  Ta1       1.0  0.23800  0.00000  0.24300  1.0000
  Ta  Ta2       1.0  0.00000  0.23800  0.24300  1.0000
  Ta  Ta3       1.0  0.76200  0.76200  0.24300  1.0000
  Ta  Ta4       1.0  0.76200  0.76200  0.75700  1.0000
  Ta  Ta5       1.0  0.23800  0.00000  0.75700  1.0000
  Ta  Ta6       1.0  0.00000  0.23800  0.75700  1.0000
