data_image0
_chemical_formula_structural       O26Si4Sr3Ta6
_chemical_formula_sum              "O26 Si4 Sr3 Ta6"
_cell_length_a       8.90118
_cell_length_b       8.90118
_cell_length_c       7.59131
_cell_angle_alpha    90
_cell_angle_beta     90
_cell_angle_gamma    119.999

_space_group_name_H-M_alt    "P 1"
_space_group_IT_number       1

loop_
  _space_group_symop_operation_xyz
  'x, y, z'

loop_
  _atom_site_type_symbol
  _atom_site_label
  _atom_site_symmetry_multiplicity
  _atom_site_fract_x
  _atom_site_fract_y
  _atom_site_fract_z
  _atom_site_occupancy
  O   O1        1.0  0.29700  0.00000  0.00000  1.0000
  O   O2        1.0  0.00000  0.29700  0.00000  1.0000
  O   O3        1.0  0.66700  0.33300  0.00000  1.0000
  O   O4        1.0  0.33300  0.66700  0.00000  1.0000
  O   O5        1.0  0.70300  0.70300  0.00000  1.0000
  O   O6        1.0  0.19100  0.19100  0.21900  1.0000
  O   O7        1.0  0.80900  0.00000  0.21900  1.0000
  O   O8        1.0  0.00000  0.80900  0.21900  1.0000
  O   O9        1.0  0.68600  0.50900  0.29900  1.0000
  O   O10       1.0  0.50900  0.68600  0.29900  1.0000
  O   O11       1.0  0.82400  0.31400  0.29900  1.0000
  O   O12       1.0  0.31400  0.82400  0.29900  1.0000
  O   O13       1.0  0.49100  0.17600  0.29900  1.0000
  O   O14       1.0  0.17600  0.49100  0.29900  1.0000
  O   O15       1.0  0.20500  0.00000  0.50000  1.0000
  O   O16       1.0  0.00000  0.20500  0.50000  1.0000
  O   O17       1.0  0.79500  0.79500  0.50000  1.0000
  O   O18       1.0  0.49100  0.17600  0.70100  1.0000
  O   O19       1.0  0.17600  0.49100  0.70100  1.0000
  O   O20       1.0  0.82400  0.31400  0.70100  1.0000
  O   O21       1.0  0.31400  0.82400  0.70100  1.0000
  O   O22       1.0  0.68600  0.50900  0.70100  1.0000
  O   O23       1.0  0.50900  0.68600  0.70100  1.0000
  O   O24       1.0  0.80900  0.00000  0.78100  1.0000
  O   O25       1.0  0.00000  0.80900  0.78100  1.0000
  O   O26       1.0  0.19100  0.19100  0.78100  1.0000
  Si  Si1       1.0  0.66700  0.33300  0.21300  1.0000
  Si  Si2       1.0  0.33300  0.66700  0.21300  1.0000
  Si  Si3       1.0  0.66700  0.33300  0.78700  1.0000
  Si  Si4       1.0  0.33300  0.66700  0.78700  1.0000
  Sr  Sr1       1.0  0.60400  0.00000  0.50000  1.0000
  Sr  Sr2       1.0  0.39600  0.39600  0.50000  1.0000
  Sr  Sr3       1.0  0.00000  0.60400  0.50000  1.0000
  Ta  Ta1       1.0  0.23900  0.00000  0.24400  1.0000
  Ta  Ta2       1.0  0.00000  0.23900  0.24400  1.0000
  Ta  Ta3       1.0  0.76100  0.76100  0.24400  1.0000
  Ta  Ta4       1.0  0.76100  0.76100  0.75600  1.0000
  Ta  Ta5       1.0  0.23900  0.00000  0.75600  1.0000
  Ta  Ta6       1.0  0.00000  0.23900  0.75600  1.0000
