data_image0
_chemical_formula_structural       Ni20P13Zr6
_chemical_formula_sum              "Ni20 P13 Zr6"
_cell_length_a       12.4802
_cell_length_b       12.4795
_cell_length_c       3.63062
_cell_angle_alpha    90
_cell_angle_beta     90
_cell_angle_gamma    120.003

_space_group_name_H-M_alt    "P 1"
_space_group_IT_number       1

loop_
  _space_group_symop_operation_xyz
  'x, y, z'

loop_
  _atom_site_type_symbol
  _atom_site_label
  _atom_site_symmetry_multiplicity
  _atom_site_fract_x
  _atom_site_fract_y
  _atom_site_fract_z
  _atom_site_occupancy
  Ni  Ni1       1.0  0.75500  0.07910  0.00000  1.0000
  Ni  Ni2       1.0  0.10400  0.19900  0.00000  1.0000
  Ni  Ni3       1.0  0.32400  0.24500  0.00000  1.0000
  Ni  Ni4       1.0  0.66700  0.33300  0.00000  1.0000
  Ni  Ni5       1.0  0.02050  0.43900  0.00000  1.0000
  Ni  Ni6       1.0  0.56100  0.58200  0.00000  1.0000
  Ni  Ni7       1.0  0.92100  0.67600  0.00000  1.0000
  Ni  Ni8       1.0  0.09420  0.89600  0.00000  1.0000
  Ni  Ni9       1.0  0.80100  0.90600  0.00000  1.0000
  Ni  Ni10      1.0  0.41800  0.98000  0.00000  1.0000
  Ni  Ni11      1.0  0.58500  0.02110  0.50000  1.0000
  Ni  Ni12      1.0  0.16100  0.07860  0.50000  1.0000
  Ni  Ni13      1.0  0.92100  0.08240  0.50000  1.0000
  Ni  Ni14      1.0  0.07150  0.32400  0.50000  1.0000
  Ni  Ni15      1.0  0.43600  0.41500  0.50000  1.0000
  Ni  Ni16      1.0  0.97900  0.56400  0.50000  1.0000
  Ni  Ni17      1.0  0.33300  0.66700  0.50000  1.0000
  Ni  Ni18      1.0  0.67600  0.74800  0.50000  1.0000
  Ni  Ni19      1.0  0.91800  0.83900  0.50000  1.0000
  Ni  Ni20      1.0  0.25200  0.92800  0.50000  1.0000
  P   P1        1.0  0.00000  0.00000  0.00000  1.0000
  P   P2        1.0  0.28700  0.05320  0.00000  1.0000
  P   P3        1.0  0.61400  0.14000  0.00000  1.0000
  P   P4        1.0  0.94700  0.23400  0.00000  1.0000
  P   P5        1.0  0.52600  0.38600  0.00000  1.0000
  P   P6        1.0  0.86000  0.47400  0.00000  1.0000
  P   P7        1.0  0.76600  0.71300  0.00000  1.0000
  P   P8        1.0  0.23200  0.28500  0.50000  1.0000
  P   P9        1.0  0.14000  0.52700  0.50000  1.0000
  P   P10       1.0  0.47300  0.61300  0.50000  1.0000
  P   P11       1.0  0.05300  0.76800  0.50000  1.0000
  P   P12       1.0  0.38700  0.86000  0.50000  1.0000
  P   P13       1.0  0.71500  0.94700  0.50000  1.0000
  Zr  Zr1       1.0  0.28200  0.47300  0.00000  1.0000
  Zr  Zr2       1.0  0.19200  0.71800  0.00000  1.0000
  Zr  Zr3       1.0  0.52700  0.80900  0.00000  1.0000
  Zr  Zr4       1.0  0.47400  0.19100  0.50000  1.0000
  Zr  Zr5       1.0  0.80900  0.28300  0.50000  1.0000
  Zr  Zr6       1.0  0.71700  0.52600  0.50000  1.0000
