data_image0
_chemical_formula_structural       Bi2H16Na6O14
_chemical_formula_sum              "Bi2 H16 Na6 O14"
_cell_length_a       6.69883
_cell_length_b       7.39973
_cell_length_c       7.99004
_cell_angle_alpha    92.1326
_cell_angle_beta     90.6882
_cell_angle_gamma    115.889

_space_group_name_H-M_alt    "P 1"
_space_group_IT_number       1

loop_
  _space_group_symop_operation_xyz
  'x, y, z'

loop_
  _atom_site_type_symbol
  _atom_site_label
  _atom_site_symmetry_multiplicity
  _atom_site_fract_x
  _atom_site_fract_y
  _atom_site_fract_z
  _atom_site_occupancy
  Bi  Bi1       1.0  0.54200  0.38900  0.31700  1.0000
  Bi  Bi2       1.0  0.45800  0.61100  0.68300  1.0000
  H   H1        1.0  0.74600  0.98000  0.00782  1.0000
  H   H2        1.0  0.75500  0.75900  0.01040  1.0000
  H   H3        1.0  0.98200  0.32400  0.03350  1.0000
  H   H4        1.0  0.39300  0.82100  0.04910  1.0000
  H   H5        1.0  0.18800  0.54600  0.07050  1.0000
  H   H6        1.0  0.68700  0.11200  0.21700  1.0000
  H   H7        1.0  0.97000  0.65400  0.22800  1.0000
  H   H8        1.0  0.15000  0.06200  0.22900  1.0000
  H   H9        1.0  0.85000  0.93800  0.77100  1.0000
  H   H10       1.0  0.03000  0.34600  0.77200  1.0000
  H   H11       1.0  0.31300  0.88800  0.78300  1.0000
  H   H12       1.0  0.81200  0.45400  0.93000  1.0000
  H   H13       1.0  0.60700  0.17900  0.95100  1.0000
  H   H14       1.0  0.01770  0.67600  0.96600  1.0000
  H   H15       1.0  0.24500  0.24100  0.99000  1.0000
  H   H16       1.0  0.25400  0.02030  0.99200  1.0000
  Na  Na1       1.0  0.31400  0.86100  0.36300  1.0000
  Na  Na2       1.0  0.79600  0.88400  0.36600  1.0000
  Na  Na3       1.0  0.05330  0.37200  0.36800  1.0000
  Na  Na4       1.0  0.94700  0.62800  0.63200  1.0000
  Na  Na5       1.0  0.20400  0.11600  0.63400  1.0000
  Na  Na6       1.0  0.68600  0.13900  0.63700  1.0000
  O   O1        1.0  0.24100  0.80700  0.06260  1.0000
  O   O2        1.0  0.70900  0.85400  0.07240  1.0000
  O   O3        1.0  0.14300  0.39900  0.07930  1.0000
  O   O4        1.0  0.67300  0.13800  0.33600  1.0000
  O   O5        1.0  0.92000  0.62500  0.34200  1.0000
  O   O6        1.0  0.18100  0.11600  0.34500  1.0000
  O   O7        1.0  0.43200  0.62200  0.42200  1.0000
  O   O8        1.0  0.56800  0.37800  0.57800  1.0000
  O   O9        1.0  0.81900  0.88400  0.65500  1.0000
  O   O10       1.0  0.08010  0.37500  0.65800  1.0000
  O   O11       1.0  0.32700  0.86200  0.66400  1.0000
  O   O12       1.0  0.85700  0.60100  0.92100  1.0000
  O   O13       1.0  0.29100  0.14600  0.92800  1.0000
  O   O14       1.0  0.75900  0.19300  0.93700  1.0000
