data_image0
_chemical_formula_structural       C19Er10Ru10
_chemical_formula_sum              "C19 Er10 Ru10"
_cell_length_a       7.21707
_cell_length_b       8.16609
_cell_length_c       10.0282
_cell_angle_alpha    109.143
_cell_angle_beta     90
_cell_angle_gamma    116.225

_space_group_name_H-M_alt    "P 1"
_space_group_IT_number       1

loop_
  _space_group_symop_operation_xyz
  'x, y, z'

loop_
  _atom_site_type_symbol
  _atom_site_label
  _atom_site_symmetry_multiplicity
  _atom_site_fract_x
  _atom_site_fract_y
  _atom_site_fract_z
  _atom_site_occupancy
  C   C1        1.0  0.36800  0.23600  0.15500  1.0000
  C   C2        1.0  0.86900  0.23600  0.15500  1.0000
  C   C3        1.0  0.28600  0.07720  0.19600  1.0000
  C   C4        1.0  0.79100  0.07720  0.19600  1.0000
  C   C5        1.0  0.13600  0.77100  0.34700  1.0000
  C   C6        1.0  0.63600  0.77100  0.34700  1.0000
  C   C7        1.0  0.08520  0.64900  0.42300  1.0000
  C   C8        1.0  0.56400  0.64900  0.42300  1.0000
  C   C9        1.0  0.35500  0.21500  0.55600  1.0000
  C   C10       1.0  0.86000  0.21500  0.55600  1.0000
  C   C11       1.0  0.45900  0.41300  0.63100  1.0000
  C   C12       1.0  0.95500  0.41300  0.63100  1.0000
  C   C13       1.0  0.18200  0.87000  0.78300  1.0000
  C   C14       1.0  0.68800  0.87000  0.78300  1.0000
  C   C15       1.0  0.28500  0.07100  0.82400  1.0000
  C   C16       1.0  0.78600  0.07100  0.82400  1.0000
  C   C17       1.0  0.18800  0.57900  0.98900  1.0000
  C   C18       1.0  0.39200  0.57900  0.98900  1.0000
  C   C19       1.0  0.78800  0.57700  0.98900  1.0000
  Er  Er1       1.0  0.25500  0.51000  0.21500  1.0000
  Er  Er2       1.0  0.75100  0.50300  0.24000  1.0000
  Er  Er3       1.0  0.51100  0.02130  0.36300  1.0000
  Er  Er4       1.0  0.01580  0.03170  0.38000  1.0000
  Er  Er5       1.0  0.82100  0.64200  0.60000  1.0000
  Er  Er6       1.0  0.32300  0.64600  0.61400  1.0000
  Er  Er7       1.0  0.62600  0.25200  0.73800  1.0000
  Er  Er8       1.0  0.14200  0.28400  0.76500  1.0000
  Er  Er9       1.0  0.00066  0.00132  0.98900  1.0000
  Er  Er10      1.0  0.47800  0.95700  0.98900  1.0000
  Ru  Ru1       1.0  0.09600  0.76700  0.13600  1.0000
  Ru  Ru2       1.0  0.67100  0.76700  0.13600  1.0000
  Ru  Ru3       1.0  0.41700  0.35300  0.39600  1.0000
  Ru  Ru4       1.0  0.93600  0.35300  0.39600  1.0000
  Ru  Ru5       1.0  0.21900  0.94600  0.58300  1.0000
  Ru  Ru6       1.0  0.72600  0.94600  0.58300  1.0000
  Ru  Ru7       1.0  0.02220  0.62100  0.84300  1.0000
  Ru  Ru8       1.0  0.59800  0.62100  0.84300  1.0000
  Ru  Ru9       1.0  0.46200  0.35500  0.99000  1.0000
  Ru  Ru10      1.0  0.89300  0.35500  0.99000  1.0000
