data_image0
_chemical_formula_structural       Ba6F26Mg7
_chemical_formula_sum              "Ba6 F26 Mg7"
_cell_length_a       5.78055
_cell_length_b       9.95537
_cell_length_c       9.95537
_cell_angle_alpha    96.1947
_cell_angle_beta     106.877
_cell_angle_gamma    106.877

_space_group_name_H-M_alt    "P 1"
_space_group_IT_number       1

loop_
  _space_group_symop_operation_xyz
  'x, y, z'

loop_
  _atom_site_type_symbol
  _atom_site_label
  _atom_site_symmetry_multiplicity
  _atom_site_fract_x
  _atom_site_fract_y
  _atom_site_fract_z
  _atom_site_occupancy
  Ba  Ba1       1.0  0.74100  0.39000  0.09320  1.0000
  Ba  Ba2       1.0  0.50000  0.64800  0.35200  1.0000
  Ba  Ba3       1.0  0.74100  0.09320  0.39000  1.0000
  Ba  Ba4       1.0  0.25900  0.90700  0.61000  1.0000
  Ba  Ba5       1.0  0.50000  0.35200  0.64800  1.0000
  Ba  Ba6       1.0  0.25900  0.61000  0.90700  1.0000
  F   F1        1.0  0.00000  0.91100  0.08910  1.0000
  F   F2        1.0  0.50000  0.90900  0.09120  1.0000
  F   F3        1.0  0.11900  0.64500  0.12700  1.0000
  F   F4        1.0  0.65300  0.64500  0.12700  1.0000
  F   F5        1.0  0.27800  0.40800  0.14900  1.0000
  F   F6        1.0  0.42200  0.16300  0.16300  1.0000
  F   F7        1.0  0.90500  0.16300  0.16300  1.0000
  F   F8        1.0  0.34700  0.87300  0.35500  1.0000
  F   F9        1.0  0.88100  0.87300  0.35500  1.0000
  F   F10       1.0  0.00000  0.63100  0.36900  1.0000
  F   F11       1.0  0.13700  0.38700  0.38700  1.0000
  F   F12       1.0  0.63800  0.38700  0.38700  1.0000
  F   F13       1.0  0.27800  0.14900  0.40800  1.0000
  F   F14       1.0  0.72200  0.85100  0.59200  1.0000
  F   F15       1.0  0.36200  0.61300  0.61300  1.0000
  F   F16       1.0  0.86300  0.61300  0.61300  1.0000
  F   F17       1.0  0.00000  0.36900  0.63100  1.0000
  F   F18       1.0  0.11900  0.12700  0.64500  1.0000
  F   F19       1.0  0.65300  0.12700  0.64500  1.0000
  F   F20       1.0  0.09510  0.83700  0.83700  1.0000
  F   F21       1.0  0.57800  0.83700  0.83700  1.0000
  F   F22       1.0  0.72200  0.59200  0.85100  1.0000
  F   F23       1.0  0.34700  0.35500  0.87300  1.0000
  F   F24       1.0  0.88100  0.35500  0.87300  1.0000
  F   F25       1.0  0.50000  0.09120  0.90900  1.0000
  F   F26       1.0  1.00000  0.08910  0.91100  1.0000
  Mg  Mg1       1.0  0.25500  0.00000  0.00000  1.0000
  Mg  Mg2       1.0  0.74500  0.00000  0.00000  1.0000
  Mg  Mg3       1.0  0.00000  0.78000  0.22000  1.0000
  Mg  Mg4       1.0  0.26700  0.26700  0.26700  1.0000
  Mg  Mg5       1.0  0.00000  0.50000  0.50000  1.0000
  Mg  Mg6       1.0  0.73300  0.73300  0.73300  1.0000
  Mg  Mg7       1.0  1.00000  0.22000  0.78000  1.0000
