data_image0
_chemical_formula_structural       Be2Ca3H10O20P4
_chemical_formula_sum              "Be2 Ca3 H10 O20 P4"
_cell_length_a       7.23534
_cell_length_b       7.58298
_cell_length_c       6.97731
_cell_angle_alpha    94.78
_cell_angle_beta     96.6553
_cell_angle_gamma    101.762

_space_group_name_H-M_alt    "P 1"
_space_group_IT_number       1

loop_
  _space_group_symop_operation_xyz
  'x, y, z'

loop_
  _atom_site_type_symbol
  _atom_site_label
  _atom_site_symmetry_multiplicity
  _atom_site_fract_x
  _atom_site_fract_y
  _atom_site_fract_z
  _atom_site_occupancy
  Be  Be1       1.0  0.73500  0.41700  0.48600  1.0000
  Be  Be2       1.0  0.26500  0.58300  0.51400  1.0000
  Ca  Ca1       1.0  0.00000  0.00000  0.00000  1.0000
  Ca  Ca2       1.0  0.28900  0.61200  0.02270  1.0000
  Ca  Ca3       1.0  0.71100  0.38800  0.97700  1.0000
  H   H1        1.0  0.64600  0.02590  0.17300  1.0000
  H   H2        1.0  0.36000  0.95600  0.27500  1.0000
  H   H3        1.0  0.81800  0.16800  0.28400  1.0000
  H   H4        1.0  0.48700  0.83100  0.37200  1.0000
  H   H5        1.0  0.15900  0.11300  0.49400  1.0000
  H   H6        1.0  0.84100  0.88700  0.50600  1.0000
  H   H7        1.0  0.51300  0.16900  0.62800  1.0000
  H   H8        1.0  0.18200  0.83200  0.71600  1.0000
  H   H9        1.0  0.64000  0.04370  0.72500  1.0000
  H   H10       1.0  0.35400  0.97400  0.82700  1.0000
  O   O1        1.0  0.41300  0.32500  0.06960  1.0000
  O   O2        1.0  0.00910  0.71200  0.11100  1.0000
  O   O3        1.0  0.75500  0.12200  0.15000  1.0000
  O   O4        1.0  0.45100  0.87800  0.24700  1.0000
  O   O5        1.0  0.21300  0.11500  0.27400  1.0000
  O   O6        1.0  0.80100  0.52300  0.30600  1.0000
  O   O7        1.0  0.25000  0.45700  0.31400  1.0000
  O   O8        1.0  0.85700  0.86700  0.36300  1.0000
  O   O9        1.0  0.52100  0.30100  0.43100  1.0000
  O   O10       1.0  0.12100  0.71900  0.47600  1.0000
  O   O11       1.0  0.87900  0.28100  0.52400  1.0000
  O   O12       1.0  0.47900  0.69900  0.56900  1.0000
  O   O13       1.0  0.14300  0.13300  0.63700  1.0000
  O   O14       1.0  0.75000  0.54300  0.68600  1.0000
  O   O15       1.0  0.19900  0.47700  0.69400  1.0000
  O   O16       1.0  0.78700  0.88500  0.72600  1.0000
  O   O17       1.0  0.54900  0.12200  0.75300  1.0000
  O   O18       1.0  0.24500  0.87800  0.85000  1.0000
  O   O19       1.0  0.99100  0.28800  0.88900  1.0000
  O   O20       1.0  0.58700  0.67500  0.93000  1.0000
  P   P1        1.0  0.35400  0.29900  0.27000  1.0000
  P   P2        1.0  0.95200  0.70100  0.31600  1.0000
  P   P3        1.0  0.04780  0.29900  0.68400  1.0000
  P   P4        1.0  0.64600  0.70100  0.73000  1.0000
