data_image0
_chemical_formula_structural       B16O28
_chemical_formula_sum              "B16 O28"
_cell_length_a       8.25226
_cell_length_b       8.25226
_cell_length_c       8.25226
_cell_angle_alpha    111.808
_cell_angle_beta     104.892
_cell_angle_gamma    111.808

_space_group_name_H-M_alt    "P 1"
_space_group_IT_number       1

loop_
  _space_group_symop_operation_xyz
  'x, y, z'

loop_
  _atom_site_type_symbol
  _atom_site_label
  _atom_site_symmetry_multiplicity
  _atom_site_fract_x
  _atom_site_fract_y
  _atom_site_fract_z
  _atom_site_occupancy
  B   B1        1.0  0.03080  0.73700  0.09920  1.0000
  B   B2        1.0  0.34900  0.56800  0.11200  1.0000
  B   B3        1.0  0.01330  0.04900  0.19300  1.0000
  B   B4        1.0  0.94300  0.54900  0.26300  1.0000
  B   B5        1.0  0.84900  0.23700  0.28100  1.0000
  B   B6        1.0  0.36200  0.26300  0.29400  1.0000
  B   B7        1.0  0.71400  0.45100  0.39500  1.0000
  B   B8        1.0  0.51300  0.82000  0.46400  1.0000
  B   B9        1.0  0.86200  0.06830  0.59900  1.0000
  B   B10       1.0  0.04380  0.76300  0.61200  1.0000
  B   B11       1.0  0.64500  0.18000  0.69300  1.0000
  B   B12       1.0  0.21400  0.32000  0.76300  1.0000
  B   B13       1.0  0.54400  0.43200  0.78100  1.0000
  B   B14       1.0  0.53100  0.93200  0.79400  1.0000
  B   B15       1.0  0.44300  0.68000  0.89500  1.0000
  B   B16       1.0  0.14500  0.95100  0.96400  1.0000
  O   O1        1.0  0.47700  0.71100  0.08910  1.0000
  O   O2        1.0  0.96900  0.56300  0.10200  1.0000
  O   O3        1.0  0.33900  0.11200  0.12800  1.0000
  O   O4        1.0  0.85200  0.06270  0.21900  1.0000
  O   O5        1.0  0.01640  0.88800  0.22700  1.0000
  O   O6        1.0  0.74700  0.50000  0.24700  1.0000
  O   O7        1.0  0.97700  0.38800  0.26600  1.0000
  O   O8        1.0  0.35200  0.63300  0.29000  1.0000
  O   O9        1.0  0.21000  0.23200  0.34200  1.0000
  O   O10       1.0  0.72700  0.26800  0.36000  1.0000
  O   O11       1.0  0.54000  0.43700  0.40600  1.0000
  O   O12       1.0  0.09230  0.73200  0.46000  1.0000
  O   O13       1.0  0.71000  0.86800  0.47700  1.0000
  O   O14       1.0  0.49700  0.00000  0.49700  1.0000
  O   O15       1.0  0.87800  0.61200  0.58900  1.0000
  O   O16       1.0  0.03950  0.13300  0.60200  1.0000
  O   O17       1.0  0.51600  0.78900  0.62800  1.0000
  O   O18       1.0  0.65600  0.36700  0.71900  1.0000
  O   O19       1.0  0.83900  0.21100  0.72700  1.0000
  O   O20       1.0  0.24700  0.50000  0.74700  1.0000
  O   O21       1.0  0.37800  0.28900  0.76600  1.0000
  O   O22       1.0  0.15600  0.93700  0.79000  1.0000
  O   O23       1.0  0.61000  0.13200  0.84200  1.0000
  O   O24       1.0  0.59200  0.63200  0.86000  1.0000
  O   O25       1.0  0.46900  0.86700  0.90600  1.0000
  O   O26       1.0  0.22700  0.36800  0.96000  1.0000
  O   O27       1.0  0.11000  0.76800  0.97700  1.0000
  O   O28       1.0  0.99700  0.00000  0.99700  1.0000
