data_image0
_chemical_formula_structural       B6Ga6K6O21
_chemical_formula_sum              "B6 Ga6 K6 O21"
_cell_length_a       8.55189
_cell_length_b       8.55193
_cell_length_c       8.60354
_cell_angle_alpha    90
_cell_angle_beta     90.0002
_cell_angle_gamma    120

_space_group_name_H-M_alt    "P 1"
_space_group_IT_number       1

loop_
  _space_group_symop_operation_xyz
  'x, y, z'

loop_
  _atom_site_type_symbol
  _atom_site_label
  _atom_site_symmetry_multiplicity
  _atom_site_fract_x
  _atom_site_fract_y
  _atom_site_fract_z
  _atom_site_occupancy
  B   B1        1.0  0.00012  0.33500  0.25800  1.0000
  B   B2        1.0  0.33500  0.00000  0.25800  1.0000
  B   B3        1.0  0.66500  0.66500  0.25800  1.0000
  B   B4        1.0  0.33500  0.00013  0.74200  1.0000
  B   B5        1.0  0.66500  0.66500  0.74200  1.0000
  B   B6        1.0  0.00000  0.33500  0.74200  1.0000
  Ga  Ga1       1.0  0.66700  0.33300  0.18600  1.0000
  Ga  Ga2       1.0  0.33300  0.66700  0.23300  1.0000
  Ga  Ga3       1.0  0.00000  0.00000  0.29200  1.0000
  Ga  Ga4       1.0  0.00000  0.00000  0.70800  1.0000
  Ga  Ga5       1.0  0.66700  0.33300  0.76700  1.0000
  Ga  Ga6       1.0  0.33300  0.66700  0.81400  1.0000
  K   K1        1.0  0.67800  0.00000  0.00000  1.0000
  K   K2        1.0  0.32200  0.32200  0.00000  1.0000
  K   K3        1.0  0.00000  0.67800  0.00000  1.0000
  K   K4        1.0  0.35100  0.35100  0.50000  1.0000
  K   K5        1.0  0.00000  0.64900  0.50000  1.0000
  K   K6        1.0  0.64900  0.00000  0.50000  1.0000
  O   O1        1.0  0.33300  0.66700  0.02350  1.0000
  O   O2        1.0  0.84400  0.76800  0.21900  1.0000
  O   O3        1.0  0.92400  0.15600  0.21900  1.0000
  O   O4        1.0  0.23200  0.07590  0.21900  1.0000
  O   O5        1.0  0.90000  0.42100  0.25500  1.0000
  O   O6        1.0  0.57900  0.47900  0.25500  1.0000
  O   O7        1.0  0.52100  0.09990  0.25500  1.0000
  O   O8        1.0  0.17900  0.43400  0.30200  1.0000
  O   O9        1.0  0.25500  0.82100  0.30200  1.0000
  O   O10       1.0  0.56600  0.74500  0.30300  1.0000
  O   O11       1.0  0.00000  0.00000  0.50000  1.0000
  O   O12       1.0  0.43400  0.17900  0.69700  1.0000
  O   O13       1.0  0.74500  0.56600  0.69800  1.0000
  O   O14       1.0  0.82100  0.25500  0.69800  1.0000
  O   O15       1.0  0.47900  0.57900  0.74500  1.0000
  O   O16       1.0  0.42100  0.90000  0.74500  1.0000
  O   O17       1.0  0.09990  0.52100  0.74500  1.0000
  O   O18       1.0  0.76800  0.84400  0.78100  1.0000
  O   O19       1.0  0.07590  0.23200  0.78100  1.0000
  O   O20       1.0  0.15600  0.92400  0.78100  1.0000
  O   O21       1.0  0.66700  0.33300  0.97600  1.0000
