data_image0
_chemical_formula_structural       Na8O11Sn4
_chemical_formula_sum              "Na8 O11 Sn4"
_cell_length_a       11.2121
_cell_length_b       5.54247
_cell_length_c       5.79536
_cell_angle_alpha    99.3194
_cell_angle_beta     99.8023
_cell_angle_gamma    119.91

_space_group_name_H-M_alt    "P 1"
_space_group_IT_number       1

loop_
  _space_group_symop_operation_xyz
  'x, y, z'

loop_
  _atom_site_type_symbol
  _atom_site_label
  _atom_site_symmetry_multiplicity
  _atom_site_fract_x
  _atom_site_fract_y
  _atom_site_fract_z
  _atom_site_occupancy
  Na  Na1       1.0  0.99800  0.99500  0.49700  1.0000
  Na  Na2       1.0  0.82900  0.33700  0.49800  1.0000
  Na  Na3       1.0  0.67800  0.66000  0.49900  1.0000
  Na  Na4       1.0  0.17100  0.66000  0.50000  1.0000
  Na  Na5       1.0  0.50100  0.02450  0.51100  1.0000
  Na  Na6       1.0  0.31700  0.32000  0.51300  1.0000
  Na  Na7       1.0  0.24700  0.50100  0.99200  1.0000
  Na  Na8       1.0  0.75000  0.49600  0.99600  1.0000
  O   O1        1.0  0.78900  0.93500  0.21200  1.0000
  O   O2        1.0  0.97000  0.57200  0.21200  1.0000
  O   O3        1.0  0.10500  0.20800  0.21600  1.0000
  O   O4        1.0  0.28500  0.93500  0.21700  1.0000
  O   O5        1.0  0.60700  0.19500  0.22000  1.0000
  O   O6        1.0  0.53300  0.43100  0.75800  1.0000
  O   O7        1.0  0.71400  0.05760  0.78200  1.0000
  O   O8        1.0  0.02840  0.42300  0.78300  1.0000
  O   O9        1.0  0.89800  0.79400  0.78400  1.0000
  O   O10       1.0  0.21100  0.05910  0.78500  1.0000
  O   O11       1.0  0.39800  0.80400  0.78900  1.0000
  Sn  Sn1       1.0  0.42200  0.18900  0.01070  1.0000
  Sn  Sn2       1.0  0.58400  0.82500  0.99000  1.0000
  Sn  Sn3       1.0  0.08450  0.83200  0.99900  1.0000
  Sn  Sn4       1.0  0.91700  0.16600  0.99900  1.0000
