data_image0
_chemical_formula_structural       Ba6H26Mg7
_chemical_formula_sum              "Ba6 H26 Mg7"
_cell_length_a       5.7374
_cell_length_b       9.84803
_cell_length_c       9.84803
_cell_angle_alpha    96.5839
_cell_angle_beta     106.936
_cell_angle_gamma    106.936

_space_group_name_H-M_alt    "P 1"
_space_group_IT_number       1

loop_
  _space_group_symop_operation_xyz
  'x, y, z'

loop_
  _atom_site_type_symbol
  _atom_site_label
  _atom_site_symmetry_multiplicity
  _atom_site_fract_x
  _atom_site_fract_y
  _atom_site_fract_z
  _atom_site_occupancy
  Ba  Ba1       1.0  0.74100  0.38900  0.09380  1.0000
  Ba  Ba2       1.0  0.50000  0.64400  0.35600  1.0000
  Ba  Ba3       1.0  0.74100  0.09380  0.38900  1.0000
  Ba  Ba4       1.0  0.25900  0.90600  0.61100  1.0000
  Ba  Ba5       1.0  0.50000  0.35600  0.64400  1.0000
  Ba  Ba6       1.0  0.25900  0.61100  0.90600  1.0000
  H   H1        1.0  0.00000  0.91400  0.08640  1.0000
  H   H2        1.0  0.50000  0.90800  0.09210  1.0000
  H   H3        1.0  0.11900  0.64200  0.13300  1.0000
  H   H4        1.0  0.65500  0.64200  0.13300  1.0000
  H   H5        1.0  0.27400  0.40300  0.14400  1.0000
  H   H6        1.0  0.43200  0.16300  0.16300  1.0000
  H   H7        1.0  0.89300  0.16300  0.16300  1.0000
  H   H8        1.0  0.34500  0.86700  0.35800  1.0000
  H   H9        1.0  0.88100  0.86700  0.35800  1.0000
  H   H10       1.0  0.00000  0.63000  0.37000  1.0000
  H   H11       1.0  0.13500  0.38500  0.38500  1.0000
  H   H12       1.0  0.63400  0.38500  0.38500  1.0000
  H   H13       1.0  0.27400  0.14400  0.40300  1.0000
  H   H14       1.0  0.72600  0.85600  0.59700  1.0000
  H   H15       1.0  0.36600  0.61500  0.61500  1.0000
  H   H16       1.0  0.86500  0.61500  0.61500  1.0000
  H   H17       1.0  0.00000  0.37000  0.63000  1.0000
  H   H18       1.0  0.11900  0.13300  0.64200  1.0000
  H   H19       1.0  0.65500  0.13300  0.64200  1.0000
  H   H20       1.0  0.10700  0.83700  0.83700  1.0000
  H   H21       1.0  0.56800  0.83700  0.83700  1.0000
  H   H22       1.0  0.72600  0.59700  0.85600  1.0000
  H   H23       1.0  0.34500  0.35800  0.86700  1.0000
  H   H24       1.0  0.88100  0.35800  0.86700  1.0000
  H   H25       1.0  0.50000  0.09210  0.90800  1.0000
  H   H26       1.0  0.00000  0.08640  0.91400  1.0000
  Mg  Mg1       1.0  0.25600  0.00000  0.00000  1.0000
  Mg  Mg2       1.0  0.74400  0.00000  0.00000  1.0000
  Mg  Mg3       1.0  0.00000  0.78200  0.21800  1.0000
  Mg  Mg4       1.0  0.25700  0.25700  0.25700  1.0000
  Mg  Mg5       1.0  0.00000  0.50000  0.50000  1.0000
  Mg  Mg6       1.0  0.74300  0.74300  0.74300  1.0000
  Mg  Mg7       1.0  0.00000  0.21800  0.78200  1.0000
