data_image0
_chemical_formula_structural       Al4Dy4Fe30
_chemical_formula_sum              "Al4 Dy4 Fe30"
_cell_length_a       8.29534
_cell_length_b       8.29495
_cell_length_c       8.35276
_cell_angle_alpha    90
_cell_angle_beta     90
_cell_angle_gamma    120.002

_space_group_name_H-M_alt    "P 1"
_space_group_IT_number       1

loop_
  _space_group_symop_operation_xyz
  'x, y, z'

loop_
  _atom_site_type_symbol
  _atom_site_label
  _atom_site_symmetry_multiplicity
  _atom_site_fract_x
  _atom_site_fract_y
  _atom_site_fract_z
  _atom_site_occupancy
  Al  Al1       1.0  0.33300  0.66700  0.10000  1.0000
  Al  Al2       1.0  0.33300  0.66700  0.40000  1.0000
  Al  Al3       1.0  0.66700  0.33300  0.60000  1.0000
  Al  Al4       1.0  0.66700  0.33300  0.90000  1.0000
  Dy  Dy1       1.0  0.00000  0.00000  0.25000  1.0000
  Dy  Dy2       1.0  0.66700  0.33300  0.25000  1.0000
  Dy  Dy3       1.0  0.00000  0.00000  0.75000  1.0000
  Dy  Dy4       1.0  0.33300  0.66700  0.75000  1.0000
  Fe  Fe1       1.0  0.50000  0.00000  0.00000  1.0000
  Fe  Fe2       1.0  0.00000  0.50000  0.00000  1.0000
  Fe  Fe3       1.0  0.50000  0.50000  0.00000  1.0000
  Fe  Fe4       1.0  0.83500  0.66900  0.01190  1.0000
  Fe  Fe5       1.0  0.33100  0.16500  0.01190  1.0000
  Fe  Fe6       1.0  0.83500  0.16500  0.01190  1.0000
  Fe  Fe7       1.0  0.03430  0.36500  0.25000  1.0000
  Fe  Fe8       1.0  0.33100  0.36500  0.25000  1.0000
  Fe  Fe9       1.0  0.03430  0.66900  0.25000  1.0000
  Fe  Fe10      1.0  0.63500  0.66900  0.25000  1.0000
  Fe  Fe11      1.0  0.33100  0.96600  0.25000  1.0000
  Fe  Fe12      1.0  0.63500  0.96600  0.25000  1.0000
  Fe  Fe13      1.0  0.33100  0.16500  0.48800  1.0000
  Fe  Fe14      1.0  0.83500  0.16500  0.48800  1.0000
  Fe  Fe15      1.0  0.83500  0.66900  0.48800  1.0000
  Fe  Fe16      1.0  0.50000  0.00000  0.50000  1.0000
  Fe  Fe17      1.0  0.00000  0.50000  0.50000  1.0000
  Fe  Fe18      1.0  0.50000  0.50000  0.50000  1.0000
  Fe  Fe19      1.0  0.16500  0.33100  0.51200  1.0000
  Fe  Fe20      1.0  0.16500  0.83500  0.51200  1.0000
  Fe  Fe21      1.0  0.66900  0.83500  0.51200  1.0000
  Fe  Fe22      1.0  0.36500  0.03430  0.75000  1.0000
  Fe  Fe23      1.0  0.66900  0.03430  0.75000  1.0000
  Fe  Fe24      1.0  0.36500  0.33100  0.75000  1.0000
  Fe  Fe25      1.0  0.96600  0.33100  0.75000  1.0000
  Fe  Fe26      1.0  0.66900  0.63500  0.75000  1.0000
  Fe  Fe27      1.0  0.96600  0.63500  0.75000  1.0000
  Fe  Fe28      1.0  0.16500  0.83500  0.98800  1.0000
  Fe  Fe29      1.0  0.66900  0.83500  0.98800  1.0000
  Fe  Fe30      1.0  0.16500  0.33100  0.98800  1.0000
