data_image0
_chemical_formula_structural       Ba6F26Zn7
_chemical_formula_sum              "Ba6 F26 Zn7"
_cell_length_a       5.88556
_cell_length_b       10.02
_cell_length_c       10.0877
_cell_angle_alpha    95.8333
_cell_angle_beta     106.961
_cell_angle_gamma    107.079

_space_group_name_H-M_alt    "P 1"
_space_group_IT_number       1

loop_
  _space_group_symop_operation_xyz
  'x, y, z'

loop_
  _atom_site_type_symbol
  _atom_site_label
  _atom_site_symmetry_multiplicity
  _atom_site_fract_x
  _atom_site_fract_y
  _atom_site_fract_z
  _atom_site_occupancy
  Ba  Ba1       1.0  0.75800  0.41500  0.10100  1.0000
  Ba  Ba2       1.0  0.00632  0.86000  0.15200  1.0000
  Ba  Ba3       1.0  0.75800  0.11600  0.40100  1.0000
  Ba  Ba4       1.0  0.24200  0.88400  0.59900  1.0000
  Ba  Ba5       1.0  0.99400  0.14000  0.84800  1.0000
  Ba  Ba6       1.0  0.24200  0.58500  0.89900  1.0000
  F   F1        1.0  0.22800  0.37200  0.08440  1.0000
  F   F2        1.0  0.36100  0.13000  0.09520  1.0000
  F   F3        1.0  0.86400  0.13000  0.09520  1.0000
  F   F4        1.0  0.15900  0.63800  0.14800  1.0000
  F   F5        1.0  0.62700  0.63800  0.14800  1.0000
  F   F6        1.0  0.52700  0.89700  0.15700  1.0000
  F   F7        1.0  0.05940  0.34400  0.32600  1.0000
  F   F8        1.0  0.61000  0.34400  0.32600  1.0000
  F   F9        1.0  0.22200  0.10300  0.34000  1.0000
  F   F10       1.0  0.38400  0.86700  0.38300  1.0000
  F   F11       1.0  0.86500  0.86700  0.38300  1.0000
  F   F12       1.0  0.00854  0.60700  0.41000  1.0000
  F   F13       1.0  0.50900  0.59700  0.42000  1.0000
  F   F14       1.0  0.49100  0.40300  0.58000  1.0000
  F   F15       1.0  0.99100  0.39300  0.59000  1.0000
  F   F16       1.0  0.13500  0.13300  0.61700  1.0000
  F   F17       1.0  0.61600  0.13300  0.61700  1.0000
  F   F18       1.0  0.77800  0.89700  0.66000  1.0000
  F   F19       1.0  0.39000  0.65600  0.67400  1.0000
  F   F20       1.0  0.94100  0.65600  0.67400  1.0000
  F   F21       1.0  0.47300  0.10300  0.84300  1.0000
  F   F22       1.0  0.37300  0.36200  0.85200  1.0000
  F   F23       1.0  0.84100  0.36200  0.85200  1.0000
  F   F24       1.0  0.13600  0.87000  0.90500  1.0000
  F   F25       1.0  0.63900  0.87000  0.90500  1.0000
  F   F26       1.0  0.77200  0.62800  0.91600  1.0000
  Zn  Zn1       1.0  0.50000  0.00000  0.00000  1.0000
  Zn  Zn2       1.0  0.23800  0.25100  0.22600  1.0000
  Zn  Zn3       1.0  0.51000  0.73100  0.28900  1.0000
  Zn  Zn4       1.0  0.23800  0.50000  0.50000  1.0000
  Zn  Zn5       1.0  0.76200  0.50000  0.50000  1.0000
  Zn  Zn6       1.0  0.49000  0.26900  0.71100  1.0000
  Zn  Zn7       1.0  0.76200  0.74900  0.77400  1.0000
