data_image0
_chemical_formula_structural       B4Na11O12
_chemical_formula_sum              "B4 Na11 O12"
_cell_length_a       3.82118
_cell_length_b       10.0642
_cell_length_c       9.28837
_cell_angle_alpha    89.9406
_cell_angle_beta     101.594
_cell_angle_gamma    90.416

_space_group_name_H-M_alt    "P 1"
_space_group_IT_number       1

loop_
  _space_group_symop_operation_xyz
  'x, y, z'

loop_
  _atom_site_type_symbol
  _atom_site_label
  _atom_site_symmetry_multiplicity
  _atom_site_fract_x
  _atom_site_fract_y
  _atom_site_fract_z
  _atom_site_occupancy
  B   B1        1.0  0.79400  0.67400  0.23800  1.0000
  B   B2        1.0  0.22700  0.17700  0.27100  1.0000
  B   B3        1.0  0.79200  0.82400  0.74100  1.0000
  B   B4        1.0  0.19400  0.32800  0.74600  1.0000
  Na  Na1       1.0  0.28100  0.43800  0.10600  1.0000
  Na  Na2       1.0  0.11000  0.91500  0.12800  1.0000
  Na  Na3       1.0  0.89100  0.41700  0.35900  1.0000
  Na  Na4       1.0  0.75300  0.97600  0.37700  1.0000
  Na  Na5       1.0  0.47600  0.73700  0.45800  1.0000
  Na  Na6       1.0  0.52500  0.25800  0.54300  1.0000
  Na  Na7       1.0  0.09390  0.59100  0.63700  1.0000
  Na  Na8       1.0  0.27700  0.01130  0.64200  1.0000
  Na  Na9       1.0  0.72700  0.51900  0.88500  1.0000
  Na  Na10      1.0  0.89000  0.12800  0.89700  1.0000
  Na  Na11      1.0  0.47800  0.76200  0.95900  1.0000
  O   O1        1.0  0.77400  0.58300  0.12400  1.0000
  O   O2        1.0  0.06950  0.13600  0.13400  1.0000
  O   O3        1.0  0.65000  0.80200  0.21200  1.0000
  O   O4        1.0  0.35500  0.30600  0.29900  1.0000
  O   O5        1.0  0.94300  0.63900  0.38300  1.0000
  O   O6        1.0  0.26100  0.08750  0.38900  1.0000
  O   O7        1.0  0.04400  0.37000  0.60500  1.0000
  O   O8        1.0  0.76800  0.89700  0.61300  1.0000
  O   O9        1.0  0.64300  0.69600  0.73100  1.0000
  O   O10       1.0  0.33400  0.20100  0.76500  1.0000
  O   O11       1.0  0.21100  0.41400  0.86200  1.0000
  O   O12       1.0  0.94500  0.87800  0.87700  1.0000
