data_image0
_chemical_formula_structural       Na6O8V2
_chemical_formula_sum              "Na6 O8 V2"
_cell_length_a       7.04326
_cell_length_b       6.03285
_cell_length_c       5.47156
_cell_angle_alpha    90
_cell_angle_beta     90
_cell_angle_gamma    90

_space_group_name_H-M_alt    "P 1"
_space_group_IT_number       1

loop_
  _space_group_symop_operation_xyz
  'x, y, z'

loop_
  _atom_site_type_symbol
  _atom_site_label
  _atom_site_symmetry_multiplicity
  _atom_site_fract_x
  _atom_site_fract_y
  _atom_site_fract_z
  _atom_site_occupancy
  Na  Na1       1.0  0.00000  0.16000  0.48700  1.0000
  Na  Na2       1.0  0.25400  0.67300  0.48900  1.0000
  Na  Na3       1.0  0.74600  0.67300  0.48900  1.0000
  Na  Na4       1.0  0.50000  0.84000  0.98700  1.0000
  Na  Na5       1.0  0.24600  0.32700  0.98900  1.0000
  Na  Na6       1.0  0.75400  0.32700  0.98900  1.0000
  O   O1        1.0  0.00000  0.82200  0.31600  1.0000
  O   O2        1.0  0.29600  0.30900  0.40100  1.0000
  O   O3        1.0  0.70400  0.30900  0.40100  1.0000
  O   O4        1.0  0.50000  0.89900  0.40300  1.0000
  O   O5        1.0  0.50000  0.17800  0.81600  1.0000
  O   O6        1.0  0.20400  0.69100  0.90100  1.0000
  O   O7        1.0  0.79600  0.69100  0.90100  1.0000
  O   O8        1.0  0.00000  0.10100  0.90300  1.0000
  V   V1        1.0  0.00000  0.82700  0.00038  1.0000
  V   V2        1.0  0.50000  0.17300  0.50000  1.0000
