data_image0
_chemical_formula_structural       Cu4Na8O11
_chemical_formula_sum              "Cu4 Na8 O11"
_cell_length_a       10.5976
_cell_length_b       5.34614
_cell_length_c       5.59601
_cell_angle_alpha    100.171
_cell_angle_beta     101.062
_cell_angle_gamma    118.882

_space_group_name_H-M_alt    "P 1"
_space_group_IT_number       1

loop_
  _space_group_symop_operation_xyz
  'x, y, z'

loop_
  _atom_site_type_symbol
  _atom_site_label
  _atom_site_symmetry_multiplicity
  _atom_site_fract_x
  _atom_site_fract_y
  _atom_site_fract_z
  _atom_site_occupancy
  Cu  Cu1       1.0  0.41000  0.14400  0.01460  1.0000
  Cu  Cu2       1.0  0.91900  0.16500  0.98100  1.0000
  Cu  Cu3       1.0  0.57900  0.83200  0.98700  1.0000
  Cu  Cu4       1.0  0.08360  0.82600  0.99300  1.0000
  Na  Na1       1.0  0.75300  0.50700  0.00000  1.0000
  Na  Na2       1.0  0.25600  0.50800  0.00839  1.0000
  Na  Na3       1.0  0.65800  0.65700  0.47700  1.0000
  Na  Na4       1.0  0.98800  0.00608  0.48800  1.0000
  Na  Na5       1.0  0.83300  0.35800  0.49100  1.0000
  Na  Na6       1.0  0.18100  0.66400  0.49800  1.0000
  Na  Na7       1.0  0.30600  0.28700  0.52200  1.0000
  Na  Na8       1.0  0.52000  0.05400  0.54300  1.0000
  O   O1        1.0  0.97900  0.56600  0.18200  1.0000
  O   O2        1.0  0.09370  0.18000  0.19100  1.0000
  O   O3        1.0  0.59000  0.18400  0.20100  1.0000
  O   O4        1.0  0.75900  0.92400  0.20900  1.0000
  O   O5        1.0  0.31100  0.96100  0.23100  1.0000
  O   O6        1.0  0.40600  0.75400  0.76000  1.0000
  O   O7        1.0  0.73500  0.08290  0.77300  1.0000
  O   O8        1.0  0.88600  0.80700  0.77500  1.0000
  O   O9        1.0  0.04850  0.47600  0.77800  1.0000
  O   O10       1.0  0.22000  0.05900  0.82300  1.0000
  O   O11       1.0  0.51500  0.41900  0.84400  1.0000
