data_image0
_chemical_formula_structural       H26Mg7Sr6
_chemical_formula_sum              "H26 Mg7 Sr6"
_cell_length_a       5.55804
_cell_length_b       9.36254
_cell_length_c       9.50054
_cell_angle_alpha    95.6563
_cell_angle_beta     107.008
_cell_angle_gamma    107.267

_space_group_name_H-M_alt    "P 1"
_space_group_IT_number       1

loop_
  _space_group_symop_operation_xyz
  'x, y, z'

loop_
  _atom_site_type_symbol
  _atom_site_label
  _atom_site_symmetry_multiplicity
  _atom_site_fract_x
  _atom_site_fract_y
  _atom_site_fract_z
  _atom_site_occupancy
  H   H1        1.0  0.99000  0.90200  0.07710  1.0000
  H   H2        1.0  0.48700  0.89000  0.08410  1.0000
  H   H3        1.0  0.11700  0.62800  0.12000  1.0000
  H   H4        1.0  0.63100  0.62800  0.12000  1.0000
  H   H5        1.0  0.28100  0.40100  0.16200  1.0000
  H   H6        1.0  0.44800  0.15600  0.17800  1.0000
  H   H7        1.0  0.88600  0.15600  0.17800  1.0000
  H   H8        1.0  0.96300  0.59300  0.33200  1.0000
  H   H9        1.0  0.34300  0.85800  0.35700  1.0000
  H   H10       1.0  0.87100  0.85800  0.35700  1.0000
  H   H11       1.0  0.14400  0.36500  0.41200  1.0000
  H   H12       1.0  0.63300  0.36500  0.41200  1.0000
  H   H13       1.0  0.27100  0.12100  0.42100  1.0000
  H   H14       1.0  0.72900  0.87900  0.57900  1.0000
  H   H15       1.0  0.36700  0.63500  0.58800  1.0000
  H   H16       1.0  0.85600  0.63500  0.58800  1.0000
  H   H17       1.0  0.12900  0.14200  0.64300  1.0000
  H   H18       1.0  0.65700  0.14200  0.64300  1.0000
  H   H19       1.0  0.03730  0.40700  0.66800  1.0000
  H   H20       1.0  0.11400  0.84400  0.82200  1.0000
  H   H21       1.0  0.55200  0.84400  0.82200  1.0000
  H   H22       1.0  0.71900  0.59900  0.83800  1.0000
  H   H23       1.0  0.36900  0.37200  0.88000  1.0000
  H   H24       1.0  0.88300  0.37200  0.88000  1.0000
  H   H25       1.0  0.51300  0.11000  0.91600  1.0000
  H   H26       1.0  0.01040  0.09800  0.92300  1.0000
  Mg  Mg1       1.0  0.25700  0.00000  0.00000  1.0000
  Mg  Mg2       1.0  0.74300  0.00000  0.00000  1.0000
  Mg  Mg3       1.0  0.99000  0.76800  0.21100  1.0000
  Mg  Mg4       1.0  0.26100  0.24700  0.27400  1.0000
  Mg  Mg5       1.0  0.00000  0.50000  0.50000  1.0000
  Mg  Mg6       1.0  0.73900  0.75300  0.72600  1.0000
  Mg  Mg7       1.0  0.01050  0.23200  0.78900  1.0000
  Sr  Sr1       1.0  0.73900  0.38300  0.09410  1.0000
  Sr  Sr2       1.0  0.49400  0.64100  0.34700  1.0000
  Sr  Sr3       1.0  0.74200  0.08290  0.40100  1.0000
  Sr  Sr4       1.0  0.25800  0.91700  0.59900  1.0000
  Sr  Sr5       1.0  0.50600  0.35900  0.65300  1.0000
  Sr  Sr6       1.0  0.26100  0.61700  0.90600  1.0000
