data_image0
_chemical_formula_structural       O36S12
_chemical_formula_sum              "O36 S12"
_cell_length_a       4.79488
_cell_length_b       9.73261
_cell_length_c       11.6499
_cell_angle_alpha    90
_cell_angle_beta     90
_cell_angle_gamma    90

_space_group_name_H-M_alt    "P 1"
_space_group_IT_number       1

loop_
  _space_group_symop_operation_xyz
  'x, y, z'

loop_
  _atom_site_type_symbol
  _atom_site_label
  _atom_site_symmetry_multiplicity
  _atom_site_fract_x
  _atom_site_fract_y
  _atom_site_fract_z
  _atom_site_occupancy
  O   O1        1.0  0.99800  0.19900  0.17000  1.0000
  O   O2        1.0  0.49800  0.80100  0.83000  1.0000
  O   O3        1.0  0.49800  0.30100  0.67000  1.0000
  O   O4        1.0  0.99800  0.69900  0.33000  1.0000
  O   O5        1.0  0.75100  0.40300  0.22400  1.0000
  O   O6        1.0  0.25100  0.59700  0.77600  1.0000
  O   O7        1.0  0.25100  0.09690  0.72400  1.0000
  O   O8        1.0  0.75100  0.90300  0.27600  1.0000
  O   O9        1.0  0.24500  0.42600  0.15400  1.0000
  O   O10       1.0  0.74500  0.57400  0.84600  1.0000
  O   O11       1.0  0.74500  0.07420  0.65400  1.0000
  O   O12       1.0  0.24500  0.92600  0.34600  1.0000
  O   O13       1.0  0.86200  0.36500  0.02140  1.0000
  O   O14       1.0  0.36200  0.63500  0.97900  1.0000
  O   O15       1.0  0.36200  0.13500  0.52100  1.0000
  O   O16       1.0  0.86200  0.86500  0.47900  1.0000
  O   O17       1.0  0.32400  0.35900  0.91800  1.0000
  O   O18       1.0  0.82400  0.64100  0.08160  1.0000
  O   O19       1.0  0.82400  0.14100  0.41800  1.0000
  O   O20       1.0  0.32400  0.85900  0.58200  1.0000
  O   O21       1.0  0.87500  0.29200  0.82500  1.0000
  O   O22       1.0  0.37500  0.70800  0.17500  1.0000
  O   O23       1.0  0.37500  0.20800  0.32500  1.0000
  O   O24       1.0  0.87500  0.79200  0.67500  1.0000
  O   O25       1.0  0.07790  0.14400  0.96600  1.0000
  O   O26       1.0  0.57800  0.85600  0.03380  1.0000
  O   O27       1.0  0.57800  0.35600  0.46600  1.0000
  O   O28       1.0  0.07790  0.64400  0.53400  1.0000
  O   O29       1.0  0.48200  0.15200  0.09960  1.0000
  O   O30       1.0  0.98200  0.84800  0.90000  1.0000
  O   O31       1.0  0.98200  0.34800  0.60000  1.0000
  O   O32       1.0  0.48200  0.65200  0.40000  1.0000
  O   O33       1.0  0.11300  0.97000  0.11100  1.0000
  O   O34       1.0  0.61300  0.02990  0.88900  1.0000
  O   O35       1.0  0.61300  0.53000  0.61100  1.0000
  O   O36       1.0  0.11300  0.47000  0.38900  1.0000
  S   S1        1.0  0.97800  0.36500  0.15400  1.0000
  S   S2        1.0  0.47800  0.63500  0.84600  1.0000
  S   S3        1.0  0.47800  0.13500  0.65400  1.0000
  S   S4        1.0  0.97800  0.86500  0.34600  1.0000
  S   S5        1.0  0.05460  0.30000  0.91900  1.0000
  S   S6        1.0  0.55500  0.70000  0.08070  1.0000
  S   S7        1.0  0.55500  0.20000  0.41900  1.0000
  S   S8        1.0  0.05460  0.80000  0.58100  1.0000
  S   S9        1.0  0.20400  0.10600  0.09200  1.0000
  S   S10       1.0  0.70400  0.89400  0.90800  1.0000
  S   S11       1.0  0.70400  0.39400  0.59200  1.0000
  S   S12       1.0  0.20400  0.60600  0.40800  1.0000
