data_image0
_chemical_formula_structural       Al4Na8O11
_chemical_formula_sum              "Al4 Na8 O11"
_cell_length_a       10.4565
_cell_length_b       5.41177
_cell_length_c       5.68935
_cell_angle_alpha    101.934
_cell_angle_beta     102.396
_cell_angle_gamma    117.398

_space_group_name_H-M_alt    "P 1"
_space_group_IT_number       1

loop_
  _space_group_symop_operation_xyz
  'x, y, z'

loop_
  _atom_site_type_symbol
  _atom_site_label
  _atom_site_symmetry_multiplicity
  _atom_site_fract_x
  _atom_site_fract_y
  _atom_site_fract_z
  _atom_site_occupancy
  Al  Al1       1.0  0.10300  0.89700  0.98200  1.0000
  Al  Al2       1.0  0.59800  0.88000  0.98800  1.0000
  Al  Al3       1.0  0.40500  0.11300  0.99200  1.0000
  Al  Al4       1.0  0.90000  0.09500  0.99800  1.0000
  Na  Na1       1.0  0.67900  0.66800  0.43100  1.0000
  Na  Na2       1.0  0.18300  0.67300  0.44800  1.0000
  Na  Na3       1.0  0.50200  0.99900  0.49100  1.0000
  Na  Na4       1.0  0.00192  0.00029  0.49200  1.0000
  Na  Na5       1.0  0.81900  0.32000  0.53300  1.0000
  Na  Na6       1.0  0.32300  0.32500  0.54900  1.0000
  Na  Na7       1.0  0.74100  0.48700  0.98400  1.0000
  Na  Na8       1.0  0.26400  0.50700  0.99900  1.0000
  O   O1        1.0  0.97400  0.51200  0.10200  1.0000
  O   O2        1.0  0.79600  0.96200  0.20700  1.0000
  O   O3        1.0  0.10100  0.19100  0.20700  1.0000
  O   O4        1.0  0.30100  0.98600  0.20800  1.0000
  O   O5        1.0  0.59900  0.18000  0.21100  1.0000
  O   O6        1.0  0.40400  0.81200  0.76900  1.0000
  O   O7        1.0  0.70200  0.00748  0.77300  1.0000
  O   O8        1.0  0.90200  0.80200  0.77300  1.0000
  O   O9        1.0  0.20700  0.03230  0.77400  1.0000
  O   O10       1.0  0.03010  0.48100  0.87300  1.0000
  O   O11       1.0  0.50200  0.49600  0.99000  1.0000
