data_image0
_chemical_formula_structural       O14Si6
_chemical_formula_sum              "O14 Si6"
_cell_length_a       6.03141
_cell_length_b       6.00414
_cell_length_c       7.38508
_cell_angle_alpha    87.7263
_cell_angle_beta     105.977
_cell_angle_gamma    79.7314

_space_group_name_H-M_alt    "P 1"
_space_group_IT_number       1

loop_
  _space_group_symop_operation_xyz
  'x, y, z'

loop_
  _atom_site_type_symbol
  _atom_site_label
  _atom_site_symmetry_multiplicity
  _atom_site_fract_x
  _atom_site_fract_y
  _atom_site_fract_z
  _atom_site_occupancy
  O   O1        1.0  0.70000  0.73300  0.00945  1.0000
  O   O2        1.0  0.45900  0.05320  0.13700  1.0000
  O   O3        1.0  0.76100  0.30200  0.15900  1.0000
  O   O4        1.0  0.11800  0.52400  0.22200  1.0000
  O   O5        1.0  0.92100  0.89900  0.34400  1.0000
  O   O6        1.0  0.40400  0.76400  0.46200  1.0000
  O   O7        1.0  0.63900  0.21700  0.47000  1.0000
  O   O8        1.0  0.09680  0.51900  0.56300  1.0000
  O   O9        1.0  0.81800  0.83300  0.69500  1.0000
  O   O10       1.0  0.51700  0.13900  0.79600  1.0000
  O   O11       1.0  0.26300  0.84700  0.81100  1.0000
  O   O12       1.0  0.96000  0.18600  0.82200  1.0000
  O   O13       1.0  0.89700  0.43000  0.85600  1.0000
  O   O14       1.0  0.24300  0.64100  0.92600  1.0000
  Si  Si1       1.0  0.87200  0.49500  0.08800  1.0000
  Si  Si2       1.0  0.69900  0.10600  0.28600  1.0000
  Si  Si3       1.0  0.16200  0.69100  0.40100  1.0000
  Si  Si4       1.0  0.71400  0.09830  0.68300  1.0000
  Si  Si5       1.0  0.02400  0.61400  0.73900  1.0000
  Si  Si6       1.0  0.48400  0.94700  0.94400  1.0000
