data_image0
_chemical_formula_structural       B14O24
_chemical_formula_sum              "B14 O24"
_cell_length_a       6.46546
_cell_length_b       7.38432
_cell_length_c       8.22923
_cell_angle_alpha    93.4029
_cell_angle_beta     105.766
_cell_angle_gamma    96.8742

_space_group_name_H-M_alt    "P 1"
_space_group_IT_number       1

loop_
  _space_group_symop_operation_xyz
  'x, y, z'

loop_
  _atom_site_type_symbol
  _atom_site_label
  _atom_site_symmetry_multiplicity
  _atom_site_fract_x
  _atom_site_fract_y
  _atom_site_fract_z
  _atom_site_occupancy
  B   B1        1.0  0.73100  0.87500  0.01460  1.0000
  B   B2        1.0  0.52200  0.72600  0.18600  1.0000
  B   B3        1.0  0.09060  0.03150  0.22100  1.0000
  B   B4        1.0  0.24700  0.51500  0.26000  1.0000
  B   B5        1.0  0.59700  0.42800  0.29500  1.0000
  B   B6        1.0  0.95200  0.31100  0.34400  1.0000
  B   B7        1.0  0.77000  0.85500  0.47800  1.0000
  B   B8        1.0  0.23000  0.14500  0.52200  1.0000
  B   B9        1.0  0.04760  0.68900  0.65600  1.0000
  B   B10       1.0  0.40300  0.57200  0.70500  1.0000
  B   B11       1.0  0.75300  0.48500  0.74000  1.0000
  B   B12       1.0  0.90900  0.96800  0.77900  1.0000
  B   B13       1.0  0.47800  0.27400  0.81400  1.0000
  B   B14       1.0  0.26900  0.12500  0.98500  1.0000
  O   O1        1.0  0.53600  0.80800  0.03250  1.0000
  O   O2        1.0  0.25300  0.06270  0.13400  1.0000
  O   O3        1.0  0.92200  0.87800  0.14400  1.0000
  O   O4        1.0  0.29300  0.66200  0.17800  1.0000
  O   O5        1.0  0.63200  0.56200  0.19400  1.0000
  O   O6        1.0  0.94900  0.17900  0.20100  1.0000
  O   O7        1.0  0.03470  0.46900  0.26200  1.0000
  O   O8        1.0  0.61200  0.86200  0.33200  1.0000
  O   O9        1.0  0.39900  0.40500  0.33200  1.0000
  O   O10       1.0  0.74200  0.31800  0.36400  1.0000
  O   O11       1.0  0.19600  0.00537  0.39400  1.0000
  O   O12       1.0  0.89700  0.71700  0.49800  1.0000
  O   O13       1.0  0.10300  0.28300  0.50200  1.0000
  O   O14       1.0  0.80400  0.99500  0.60600  1.0000
  O   O15       1.0  0.25800  0.68200  0.63600  1.0000
  O   O16       1.0  0.60100  0.59500  0.66800  1.0000
  O   O17       1.0  0.38800  0.13800  0.66800  1.0000
  O   O18       1.0  0.96500  0.53100  0.73800  1.0000
  O   O19       1.0  0.05060  0.82100  0.79900  1.0000
  O   O20       1.0  0.36800  0.43800  0.80600  1.0000
  O   O21       1.0  0.70700  0.33800  0.82200  1.0000
  O   O22       1.0  0.07790  0.12200  0.85600  1.0000
  O   O23       1.0  0.74700  0.93700  0.86600  1.0000
  O   O24       1.0  0.46400  0.19200  0.96800  1.0000
