data_image0
_chemical_formula_structural       Cu18Ga15Mg6
_chemical_formula_sum              "Cu18 Ga15 Mg6"
_cell_length_a       8.28686
_cell_length_b       8.28686
_cell_length_c       8.28686
_cell_angle_alpha    90
_cell_angle_beta     90
_cell_angle_gamma    90

_space_group_name_H-M_alt    "P 1"
_space_group_IT_number       1

loop_
  _space_group_symop_operation_xyz
  'x, y, z'

loop_
  _atom_site_type_symbol
  _atom_site_label
  _atom_site_symmetry_multiplicity
  _atom_site_fract_x
  _atom_site_fract_y
  _atom_site_fract_z
  _atom_site_occupancy
  Cu  Cu1       1.0  0.16400  0.25700  0.00000  1.0000
  Cu  Cu2       1.0  0.83600  0.25700  0.00000  1.0000
  Cu  Cu3       1.0  0.16400  0.74300  0.00000  1.0000
  Cu  Cu4       1.0  0.83600  0.74300  0.00000  1.0000
  Cu  Cu5       1.0  0.25700  0.00000  0.16400  1.0000
  Cu  Cu6       1.0  0.74300  0.00000  0.16400  1.0000
  Cu  Cu7       1.0  0.00000  0.16400  0.25700  1.0000
  Cu  Cu8       1.0  0.00000  0.83600  0.25700  1.0000
  Cu  Cu9       1.0  0.50000  0.50000  0.27500  1.0000
  Cu  Cu10      1.0  0.50000  0.27500  0.50000  1.0000
  Cu  Cu11      1.0  0.27500  0.50000  0.50000  1.0000
  Cu  Cu12      1.0  0.72500  0.50000  0.50000  1.0000
  Cu  Cu13      1.0  0.50000  0.72500  0.50000  1.0000
  Cu  Cu14      1.0  0.50000  0.50000  0.72500  1.0000
  Cu  Cu15      1.0  0.00000  0.16400  0.74300  1.0000
  Cu  Cu16      1.0  0.00000  0.83600  0.74300  1.0000
  Cu  Cu17      1.0  0.25700  0.00000  0.83600  1.0000
  Cu  Cu18      1.0  0.74300  0.00000  0.83600  1.0000
  Ga  Ga1       1.0  0.00000  0.00000  0.00000  1.0000
  Ga  Ga2       1.0  0.33600  0.50000  0.00000  1.0000
  Ga  Ga3       1.0  0.66400  0.50000  0.00000  1.0000
  Ga  Ga4       1.0  0.28200  0.28200  0.28200  1.0000
  Ga  Ga5       1.0  0.71800  0.28200  0.28200  1.0000
  Ga  Ga6       1.0  0.28200  0.71800  0.28200  1.0000
  Ga  Ga7       1.0  0.71800  0.71800  0.28200  1.0000
  Ga  Ga8       1.0  0.50000  0.00000  0.33600  1.0000
  Ga  Ga9       1.0  0.00000  0.33600  0.50000  1.0000
  Ga  Ga10      1.0  0.00000  0.66400  0.50000  1.0000
  Ga  Ga11      1.0  0.50000  0.00000  0.66400  1.0000
  Ga  Ga12      1.0  0.28200  0.28200  0.71800  1.0000
  Ga  Ga13      1.0  0.71800  0.28200  0.71800  1.0000
  Ga  Ga14      1.0  0.28200  0.71800  0.71800  1.0000
  Ga  Ga15      1.0  0.71800  0.71800  0.71800  1.0000
  Mg  Mg1       1.0  0.50000  0.18100  0.00000  1.0000
  Mg  Mg2       1.0  0.50000  0.81900  0.00000  1.0000
  Mg  Mg3       1.0  0.00000  0.50000  0.18100  1.0000
  Mg  Mg4       1.0  0.18100  0.00000  0.50000  1.0000
  Mg  Mg5       1.0  0.81900  0.00000  0.50000  1.0000
  Mg  Mg6       1.0  0.00000  0.50000  0.81900  1.0000
