data_image0
_chemical_formula_structural       Na12O14Zr4
_chemical_formula_sum              "Na12 O14 Zr4"
_cell_length_a       6.4593
_cell_length_b       6.49883
_cell_length_c       10.9024
_cell_angle_alpha    100.26
_cell_angle_beta     90
_cell_angle_gamma    119.799

_space_group_name_H-M_alt    "P 1"
_space_group_IT_number       1

loop_
  _space_group_symop_operation_xyz
  'x, y, z'

loop_
  _atom_site_type_symbol
  _atom_site_label
  _atom_site_symmetry_multiplicity
  _atom_site_fract_x
  _atom_site_fract_y
  _atom_site_fract_z
  _atom_site_occupancy
  Na  Na1       1.0  0.20700  0.13000  0.09700  1.0000
  Na  Na2       1.0  0.67600  0.14100  0.11800  1.0000
  Na  Na3       1.0  0.67400  0.60400  0.11900  1.0000
  Na  Na4       1.0  0.07020  0.39600  0.38100  1.0000
  Na  Na5       1.0  0.53500  0.85900  0.38200  1.0000
  Na  Na6       1.0  0.07620  0.87000  0.40300  1.0000
  Na  Na7       1.0  0.92400  0.13000  0.59700  1.0000
  Na  Na8       1.0  0.46500  0.14100  0.61800  1.0000
  Na  Na9       1.0  0.93000  0.60400  0.61900  1.0000
  Na  Na10      1.0  0.32600  0.39600  0.88100  1.0000
  Na  Na11      1.0  0.32400  0.85900  0.88200  1.0000
  Na  Na12      1.0  0.79300  0.87000  0.90300  1.0000
  O   O1        1.0  0.00093  0.28800  0.00053  1.0000
  O   O2        1.0  0.47600  0.75000  0.03390  1.0000
  O   O3        1.0  0.35100  0.49200  0.24400  1.0000
  O   O4        1.0  0.34600  0.00000  0.25000  1.0000
  O   O5        1.0  0.85800  0.50800  0.25600  1.0000
  O   O6        1.0  0.72600  0.25000  0.46600  1.0000
  O   O7        1.0  0.71300  0.71200  0.49900  1.0000
  O   O8        1.0  0.28700  0.28800  0.50100  1.0000
  O   O9        1.0  0.27400  0.75000  0.53400  1.0000
  O   O10       1.0  0.14200  0.49200  0.74400  1.0000
  O   O11       1.0  0.65400  0.00000  0.75000  1.0000
  O   O12       1.0  0.64900  0.50800  0.75600  1.0000
  O   O13       1.0  0.52400  0.25000  0.96600  1.0000
  O   O14       1.0  0.99900  0.71200  0.99900  1.0000
  Zr  Zr1       1.0  0.19400  0.63400  0.13200  1.0000
  Zr  Zr2       1.0  0.56000  0.36600  0.36800  1.0000
  Zr  Zr3       1.0  0.44000  0.63400  0.63200  1.0000
  Zr  Zr4       1.0  0.80600  0.36600  0.86800  1.0000
