data_image0
_chemical_formula_structural       Na8O11Zn4
_chemical_formula_sum              "Na8 O11 Zn4"
_cell_length_a       10.8406
_cell_length_b       5.4514
_cell_length_c       5.68191
_cell_angle_alpha    101.27
_cell_angle_beta     100.438
_cell_angle_gamma    118.854

_space_group_name_H-M_alt    "P 1"
_space_group_IT_number       1

loop_
  _space_group_symop_operation_xyz
  'x, y, z'

loop_
  _atom_site_type_symbol
  _atom_site_label
  _atom_site_symmetry_multiplicity
  _atom_site_fract_x
  _atom_site_fract_y
  _atom_site_fract_z
  _atom_site_occupancy
  Na  Na1       1.0  0.25000  0.49100  0.00584  1.0000
  Na  Na2       1.0  0.67800  0.68500  0.44400  1.0000
  Na  Na3       1.0  0.99800  0.99900  0.48900  1.0000
  Na  Na4       1.0  0.17000  0.64400  0.49300  1.0000
  Na  Na5       1.0  0.83100  0.35000  0.49600  1.0000
  Na  Na6       1.0  0.31600  0.30200  0.53900  1.0000
  Na  Na7       1.0  0.50700  0.05970  0.54000  1.0000
  Na  Na8       1.0  0.75400  0.51100  0.98700  1.0000
  O   O1        1.0  0.78300  0.95700  0.18500  1.0000
  O   O2        1.0  0.97400  0.56800  0.19700  1.0000
  O   O3        1.0  0.10600  0.18800  0.21300  1.0000
  O   O4        1.0  0.59500  0.19300  0.22300  1.0000
  O   O5        1.0  0.30200  0.94900  0.23900  1.0000
  O   O6        1.0  0.70800  0.05930  0.74500  1.0000
  O   O7        1.0  0.89100  0.80400  0.76200  1.0000
  O   O8        1.0  0.40100  0.76800  0.76700  1.0000
  O   O9        1.0  0.03450  0.43700  0.78300  1.0000
  O   O10       1.0  0.21800  0.04150  0.80900  1.0000
  O   O11       1.0  0.51600  0.43800  0.88900  1.0000
  Zn  Zn1       1.0  0.40600  0.11300  0.01040  1.0000
  Zn  Zn2       1.0  0.59500  0.86600  0.96800  1.0000
  Zn  Zn3       1.0  0.91700  0.16900  0.97900  1.0000
  Zn  Zn4       1.0  0.08320  0.82600  0.00000  1.0000
