data_image0
_chemical_formula_structural       O16V6
_chemical_formula_sum              "O16 V6"
_cell_length_a       6.06959
_cell_length_b       3.65713
_cell_length_c       11.9558
_cell_angle_alpha    90
_cell_angle_beta     107.856
_cell_angle_gamma    90

_space_group_name_H-M_alt    "P 1"
_space_group_IT_number       1

loop_
  _space_group_symop_operation_xyz
  'x, y, z'

loop_
  _atom_site_type_symbol
  _atom_site_label
  _atom_site_symmetry_multiplicity
  _atom_site_fract_x
  _atom_site_fract_y
  _atom_site_fract_z
  _atom_site_occupancy
  O   O1        1.0  0.70600  0.75000  0.05670  1.0000
  O   O2        1.0  0.14100  0.75000  0.06870  1.0000
  O   O3        1.0  0.99700  0.25000  0.17800  1.0000
  O   O4        1.0  0.47300  0.25000  0.17900  1.0000
  O   O5        1.0  0.78300  0.75000  0.29400  1.0000
  O   O6        1.0  0.22600  0.75000  0.32200  1.0000
  O   O7        1.0  0.58700  0.25000  0.43800  1.0000
  O   O8        1.0  0.07450  0.25000  0.45500  1.0000
  O   O9        1.0  0.92600  0.75000  0.54500  1.0000
  O   O10       1.0  0.41300  0.75000  0.56200  1.0000
  O   O11       1.0  0.77400  0.25000  0.67800  1.0000
  O   O12       1.0  0.21700  0.25000  0.70600  1.0000
  O   O13       1.0  0.52700  0.75000  0.82100  1.0000
  O   O14       1.0  0.00292  0.75000  0.82200  1.0000
  O   O15       1.0  0.85900  0.25000  0.93100  1.0000
  O   O16       1.0  0.29400  0.25000  0.94300  1.0000
  V   V1        1.0  0.22500  0.25000  0.08030  1.0000
  V   V2        1.0  0.93600  0.75000  0.20600  1.0000
  V   V3        1.0  0.16700  0.75000  0.46300  1.0000
  V   V4        1.0  0.83300  0.25000  0.53700  1.0000
  V   V5        1.0  0.06350  0.25000  0.79400  1.0000
  V   V6        1.0  0.77500  0.75000  0.92000  1.0000
