data_image0
_chemical_formula_structural       Na3O13V6
_chemical_formula_sum              "Na3 O13 V6"
_cell_length_a       4.06727
_cell_length_b       6.43028
_cell_length_c       9.99507
_cell_angle_alpha    100.371
_cell_angle_beta     90
_cell_angle_gamma    108.437

_space_group_name_H-M_alt    "P 1"
_space_group_IT_number       1

loop_
  _space_group_symop_operation_xyz
  'x, y, z'

loop_
  _atom_site_type_symbol
  _atom_site_label
  _atom_site_symmetry_multiplicity
  _atom_site_fract_x
  _atom_site_fract_y
  _atom_site_fract_z
  _atom_site_occupancy
  Na  Na1       1.0  0.00000  0.00000  0.00000  1.0000
  Na  Na2       1.0  0.04860  0.09720  0.29600  1.0000
  Na  Na3       1.0  0.95100  0.90300  0.70400  1.0000
  O   O1        1.0  0.50000  0.00000  0.00000  1.0000
  O   O2        1.0  0.18400  0.36800  0.00021  1.0000
  O   O3        1.0  0.67300  0.34600  0.20200  1.0000
  O   O4        1.0  0.38900  0.77800  0.20300  1.0000
  O   O5        1.0  0.88300  0.76600  0.38600  1.0000
  O   O6        1.0  0.24400  0.48800  0.40700  1.0000
  O   O7        1.0  0.56900  0.13900  0.41900  1.0000
  O   O8        1.0  0.43100  0.86100  0.58100  1.0000
  O   O9        1.0  0.75600  0.51200  0.59300  1.0000
  O   O10       1.0  0.11700  0.23400  0.61400  1.0000
  O   O11       1.0  0.61100  0.22200  0.79700  1.0000
  O   O12       1.0  0.32700  0.65400  0.79800  1.0000
  O   O13       1.0  0.81600  0.63200  0.00000  1.0000
  V   V1        1.0  0.34100  0.68200  0.00335  1.0000
  V   V2        1.0  0.72600  0.45100  0.37400  1.0000
  V   V3        1.0  0.40400  0.80700  0.38000  1.0000
  V   V4        1.0  0.59600  0.19300  0.62000  1.0000
  V   V5        1.0  0.27400  0.54900  0.62600  1.0000
  V   V6        1.0  0.65900  0.31800  0.99700  1.0000
