data_image0
_chemical_formula_structural       B2Fe2Lu
_chemical_formula_sum              "B2 Fe2 Lu1"
_cell_length_a       3.48448
_cell_length_b       3.48448
_cell_length_c       5.25461
_cell_angle_alpha    109.364
_cell_angle_beta     109.364
_cell_angle_gamma    90

_space_group_name_H-M_alt    "P 1"
_space_group_IT_number       1

loop_
  _space_group_symop_operation_xyz
  'x, y, z'

loop_
  _atom_site_type_symbol
  _atom_site_label
  _atom_site_symmetry_multiplicity
  _atom_site_fract_x
  _atom_site_fract_y
  _atom_site_fract_z
  _atom_site_occupancy
  B   B1        1.0  0.62400  0.62400  0.24800  1.0000
  B   B2        1.0  0.37600  0.37600  0.75200  1.0000
  Fe  Fe1       1.0  0.75000  0.25000  0.50000  1.0000
  Fe  Fe2       1.0  0.25000  0.75000  0.50000  1.0000
  Lu  Lu1       1.0  0.00000  0.00000  0.00000  1.0000
