data_image0
_chemical_formula_structural       Ba8Ce3O24Sb4
_chemical_formula_sum              "Ba8 Ce3 O24 Sb4"
_cell_length_a       8.65477
_cell_length_b       8.65477
_cell_length_c       10.5951
_cell_angle_alpha    114.106
_cell_angle_beta     114.106
_cell_angle_gamma    90

_space_group_name_H-M_alt    "P 1"
_space_group_IT_number       1

loop_
  _space_group_symop_operation_xyz
  'x, y, z'

loop_
  _atom_site_type_symbol
  _atom_site_label
  _atom_site_symmetry_multiplicity
  _atom_site_fract_x
  _atom_site_fract_y
  _atom_site_fract_z
  _atom_site_occupancy
  Ba  Ba1       1.0  0.88500  0.34400  0.22900  1.0000
  Ba  Ba2       1.0  0.34400  0.34400  0.22900  1.0000
  Ba  Ba3       1.0  0.34400  0.88500  0.22900  1.0000
  Ba  Ba4       1.0  0.88500  0.88500  0.22900  1.0000
  Ba  Ba5       1.0  0.11500  0.11500  0.77100  1.0000
  Ba  Ba6       1.0  0.65600  0.11500  0.77100  1.0000
  Ba  Ba7       1.0  0.11500  0.65600  0.77100  1.0000
  Ba  Ba8       1.0  0.65600  0.65600  0.77100  1.0000
  Ce  Ce1       1.0  0.50000  0.50000  0.00000  1.0000
  Ce  Ce2       1.0  0.75000  0.25000  0.50000  1.0000
  Ce  Ce3       1.0  0.25000  0.75000  0.50000  1.0000
  O   O1        1.0  0.27100  0.00000  0.00000  1.0000
  O   O2        1.0  0.72900  0.00000  0.00000  1.0000
  O   O3        1.0  0.50000  0.23100  0.00000  1.0000
  O   O4        1.0  0.00000  0.27100  0.00000  1.0000
  O   O5        1.0  0.76900  0.50000  0.00000  1.0000
  O   O6        1.0  0.23100  0.50000  0.00000  1.0000
  O   O7        1.0  0.00000  0.72900  0.00000  1.0000
  O   O8        1.0  0.50000  0.76900  0.00000  1.0000
  O   O9        1.0  0.61500  0.11500  0.23100  1.0000
  O   O10       1.0  0.11500  0.61500  0.23100  1.0000
  O   O11       1.0  0.13400  0.13400  0.26900  1.0000
  O   O12       1.0  0.63600  0.63600  0.27200  1.0000
  O   O13       1.0  0.24500  0.01480  0.49000  1.0000
  O   O14       1.0  0.01480  0.24500  0.49000  1.0000
  O   O15       1.0  0.47500  0.24500  0.49000  1.0000
  O   O16       1.0  0.24500  0.47500  0.49000  1.0000
  O   O17       1.0  0.75500  0.52500  0.51000  1.0000
  O   O18       1.0  0.98500  0.75500  0.51000  1.0000
  O   O19       1.0  0.52500  0.75500  0.51000  1.0000
  O   O20       1.0  0.75500  0.98500  0.51000  1.0000
  O   O21       1.0  0.36400  0.36400  0.72800  1.0000
  O   O22       1.0  0.86600  0.86600  0.73100  1.0000
  O   O23       1.0  0.88500  0.38500  0.76900  1.0000
  O   O24       1.0  0.38500  0.88500  0.76900  1.0000
  Sb  Sb1       1.0  0.50000  0.00000  0.00000  1.0000
  Sb  Sb2       1.0  0.00000  0.50000  0.00000  1.0000
  Sb  Sb3       1.0  0.74900  0.74900  0.49900  1.0000
  Sb  Sb4       1.0  0.25100  0.25100  0.50100  1.0000
