data_image0
_chemical_formula_structural       Na8O16V6
_chemical_formula_sum              "Na8 O16 V6"
_cell_length_a       6.75895
_cell_length_b       4.21505
_cell_length_c       12.3721
_cell_angle_alpha    90
_cell_angle_beta     108.461
_cell_angle_gamma    90

_space_group_name_H-M_alt    "P 1"
_space_group_IT_number       1

loop_
  _space_group_symop_operation_xyz
  'x, y, z'

loop_
  _atom_site_type_symbol
  _atom_site_label
  _atom_site_symmetry_multiplicity
  _atom_site_fract_x
  _atom_site_fract_y
  _atom_site_fract_z
  _atom_site_occupancy
  Na  Na1       1.0  0.63200  0.25000  0.04230  1.0000
  Na  Na2       1.0  0.75200  0.25000  0.28800  1.0000
  Na  Na3       1.0  0.30500  0.25000  0.33400  1.0000
  Na  Na4       1.0  0.58500  0.75000  0.40100  1.0000
  Na  Na5       1.0  0.41500  0.25000  0.59900  1.0000
  Na  Na6       1.0  0.69500  0.75000  0.66600  1.0000
  Na  Na7       1.0  0.24800  0.75000  0.71200  1.0000
  Na  Na8       1.0  0.36800  0.75000  0.95800  1.0000
  O   O1        1.0  0.11700  0.75000  0.06420  1.0000
  O   O2        1.0  0.73300  0.75000  0.06610  1.0000
  O   O3        1.0  0.41700  0.25000  0.16700  1.0000
  O   O4        1.0  0.99600  0.25000  0.17400  1.0000
  O   O5        1.0  0.84800  0.75000  0.30900  1.0000
  O   O6        1.0  0.22200  0.75000  0.31000  1.0000
  O   O7        1.0  0.07080  0.25000  0.45300  1.0000
  O   O8        1.0  0.64900  0.25000  0.45900  1.0000
  O   O9        1.0  0.35100  0.75000  0.54100  1.0000
  O   O10       1.0  0.92900  0.75000  0.54700  1.0000
  O   O11       1.0  0.77800  0.25000  0.69000  1.0000
  O   O12       1.0  0.15200  0.25000  0.69100  1.0000
  O   O13       1.0  0.00353  0.75000  0.82600  1.0000
  O   O14       1.0  0.58300  0.75000  0.83300  1.0000
  O   O15       1.0  0.26700  0.25000  0.93400  1.0000
  O   O16       1.0  0.88300  0.25000  0.93600  1.0000
  V   V1        1.0  0.17000  0.25000  0.07290  1.0000
  V   V2        1.0  0.97900  0.75000  0.19000  1.0000
  V   V3        1.0  0.09440  0.75000  0.44200  1.0000
  V   V4        1.0  0.90600  0.25000  0.55800  1.0000
  V   V5        1.0  0.02100  0.25000  0.81000  1.0000
  V   V6        1.0  0.83000  0.75000  0.92700  1.0000
