data_image0
_chemical_formula_structural       Ga4Na8O11
_chemical_formula_sum              "Ga4 Na8 O11"
_cell_length_a       10.7604
_cell_length_b       5.43291
_cell_length_c       5.69548
_cell_angle_alpha    101.01
_cell_angle_beta     100.594
_cell_angle_gamma    119.268

_space_group_name_H-M_alt    "P 1"
_space_group_IT_number       1

loop_
  _space_group_symop_operation_xyz
  'x, y, z'

loop_
  _atom_site_type_symbol
  _atom_site_label
  _atom_site_symmetry_multiplicity
  _atom_site_fract_x
  _atom_site_fract_y
  _atom_site_fract_z
  _atom_site_occupancy
  Ga  Ga1       1.0  0.60000  0.88200  0.97300  1.0000
  Ga  Ga2       1.0  0.91900  0.16300  0.98300  1.0000
  Ga  Ga3       1.0  0.40100  0.09750  0.99700  1.0000
  Ga  Ga4       1.0  0.08340  0.83300  0.99900  1.0000
  Na  Na1       1.0  0.25300  0.49100  0.00526  1.0000
  Na  Na2       1.0  0.68500  0.68300  0.43700  1.0000
  Na  Na3       1.0  0.16700  0.64400  0.48700  1.0000
  Na  Na4       1.0  0.00172  0.99700  0.49100  1.0000
  Na  Na5       1.0  0.83200  0.34300  0.49900  1.0000
  Na  Na6       1.0  0.50500  0.04260  0.52100  1.0000
  Na  Na7       1.0  0.31600  0.31200  0.54300  1.0000
  Na  Na8       1.0  0.75100  0.50500  0.98400  1.0000
  O   O1        1.0  0.79400  0.96000  0.18800  1.0000
  O   O2        1.0  0.97200  0.56900  0.19000  1.0000
  O   O3        1.0  0.10600  0.19800  0.21000  1.0000
  O   O4        1.0  0.59900  0.18400  0.21600  1.0000
  O   O5        1.0  0.29900  0.96200  0.23100  1.0000
  O   O6        1.0  0.70600  0.04180  0.75100  1.0000
  O   O7        1.0  0.39700  0.78500  0.76900  1.0000
  O   O8        1.0  0.89600  0.79600  0.77100  1.0000
  O   O9        1.0  0.03250  0.42800  0.79300  1.0000
  O   O10       1.0  0.21000  0.03690  0.79600  1.0000
  O   O11       1.0  0.51200  0.46500  0.93000  1.0000
