data_image0
_chemical_formula_structural       Ac3Pr
_chemical_formula_sum              "Ac3 Pr1"
_cell_length_a       6.81558
_cell_length_b       6.81558
_cell_length_c       6.81558
_cell_angle_alpha    132.273
_cell_angle_beta     132.273
_cell_angle_gamma    69.7988

_space_group_name_H-M_alt    "P 1"
_space_group_IT_number       1

loop_
  _space_group_symop_operation_xyz
  'x, y, z'

loop_
  _atom_site_type_symbol
  _atom_site_label
  _atom_site_symmetry_multiplicity
  _atom_site_fract_x
  _atom_site_fract_y
  _atom_site_fract_z
  _atom_site_occupancy
  Ac  Ac1       1.0  0.75000  0.25000  0.50000  1.0000
  Ac  Ac2       1.0  0.25000  0.75000  0.50000  1.0000
  Ac  Ac3       1.0  0.50000  0.50000  0.00000  1.0000
  Pr  Pr1       1.0  0.00000  0.00000  0.00000  1.0000
