data_image0
_chemical_formula_structural       Ge10O24
_chemical_formula_sum              "Ge10 O24"
_cell_length_a       4.90931
_cell_length_b       9.03437
_cell_length_c       9.59924
_cell_angle_alpha    73.1429
_cell_angle_beta     80.0351
_cell_angle_gamma    79.0587

_space_group_name_H-M_alt    "P 1"
_space_group_IT_number       1

loop_
  _space_group_symop_operation_xyz
  'x, y, z'

loop_
  _atom_site_type_symbol
  _atom_site_label
  _atom_site_symmetry_multiplicity
  _atom_site_fract_x
  _atom_site_fract_y
  _atom_site_fract_z
  _atom_site_occupancy
  Ge  Ge1       1.0  0.80900  0.76200  0.05970  1.0000
  Ge  Ge2       1.0  0.90400  0.41200  0.15600  1.0000
  Ge  Ge3       1.0  0.29800  0.10400  0.27400  1.0000
  Ge  Ge4       1.0  0.85100  0.90100  0.32400  1.0000
  Ge  Ge5       1.0  0.61300  0.59200  0.36200  1.0000
  Ge  Ge6       1.0  0.38700  0.40800  0.63800  1.0000
  Ge  Ge7       1.0  0.14900  0.09860  0.67600  1.0000
  Ge  Ge8       1.0  0.70200  0.89600  0.72600  1.0000
  Ge  Ge9       1.0  0.09550  0.58800  0.84400  1.0000
  Ge  Ge10      1.0  0.19100  0.23800  0.94000  1.0000
  O   O1        1.0  0.23700  0.41900  0.01060  1.0000
  O   O2        1.0  0.85200  0.26300  0.06530  1.0000
  O   O3        1.0  0.36300  0.09620  0.08940  1.0000
  O   O4        1.0  0.89300  0.90900  0.13600  1.0000
  O   O5        1.0  0.47600  0.73300  0.19300  1.0000
  O   O6        1.0  0.95900  0.58600  0.22100  1.0000
  O   O7        1.0  0.55300  0.44400  0.26600  1.0000
  O   O8        1.0  0.07630  0.27000  0.30600  1.0000
  O   O9        1.0  0.61600  0.07260  0.34600  1.0000
  O   O10       1.0  0.15700  0.93000  0.37600  1.0000
  O   O11       1.0  0.72200  0.73300  0.43900  1.0000
  O   O12       1.0  0.27100  0.58000  0.48500  1.0000
  O   O13       1.0  0.72800  0.42000  0.51500  1.0000
  O   O14       1.0  0.27800  0.26700  0.56000  1.0000
  O   O15       1.0  0.84300  0.06960  0.62400  1.0000
  O   O16       1.0  0.38400  0.92700  0.65400  1.0000
  O   O17       1.0  0.92400  0.73000  0.69400  1.0000
  O   O18       1.0  0.44700  0.55600  0.73400  1.0000
  O   O19       1.0  0.04080  0.41400  0.77900  1.0000
  O   O20       1.0  0.52400  0.26800  0.80700  1.0000
  O   O21       1.0  0.10800  0.09140  0.86400  1.0000
  O   O22       1.0  0.63700  0.90400  0.91100  1.0000
  O   O23       1.0  0.14800  0.73700  0.93500  1.0000
  O   O24       1.0  0.76300  0.58000  0.99000  1.0000
