data_image0
_chemical_formula_structural       Fe4Na8O11
_chemical_formula_sum              "Fe4 Na8 O11"
_cell_length_a       10.7459
_cell_length_b       5.39225
_cell_length_c       5.66649
_cell_angle_alpha    100.806
_cell_angle_beta     100.033
_cell_angle_gamma    119.312

_space_group_name_H-M_alt    "P 1"
_space_group_IT_number       1

loop_
  _space_group_symop_operation_xyz
  'x, y, z'

loop_
  _atom_site_type_symbol
  _atom_site_label
  _atom_site_symmetry_multiplicity
  _atom_site_fract_x
  _atom_site_fract_y
  _atom_site_fract_z
  _atom_site_occupancy
  Fe  Fe1       1.0  0.08120  0.83300  0.00711  1.0000
  Fe  Fe2       1.0  0.59900  0.87300  0.96300  1.0000
  Fe  Fe3       1.0  0.92400  0.17600  0.99400  1.0000
  Fe  Fe4       1.0  0.40300  0.10700  0.99500  1.0000
  Na  Na1       1.0  0.25200  0.48800  0.00576  1.0000
  Na  Na2       1.0  0.68800  0.69100  0.44800  1.0000
  Na  Na3       1.0  0.16500  0.63700  0.49600  1.0000
  Na  Na4       1.0  0.00068  0.00086  0.49600  1.0000
  Na  Na5       1.0  0.83200  0.34600  0.49800  1.0000
  Na  Na6       1.0  0.50200  0.05080  0.52500  1.0000
  Na  Na7       1.0  0.31600  0.30900  0.53800  1.0000
  Na  Na8       1.0  0.75000  0.50700  0.98600  1.0000
  O   O1        1.0  0.79300  0.96600  0.18200  1.0000
  O   O2        1.0  0.96800  0.55600  0.19900  1.0000
  O   O3        1.0  0.59000  0.18700  0.20600  1.0000
  O   O4        1.0  0.11000  0.20000  0.22200  1.0000
  O   O5        1.0  0.30200  0.95600  0.22300  1.0000
  O   O6        1.0  0.70000  0.04680  0.74000  1.0000
  O   O7        1.0  0.39300  0.77500  0.77100  1.0000
  O   O8        1.0  0.89900  0.81200  0.78400  1.0000
  O   O9        1.0  0.02700  0.41200  0.79900  1.0000
  O   O10       1.0  0.22000  0.03990  0.80700  1.0000
  O   O11       1.0  0.51300  0.44100  0.88700  1.0000
