data_image0
_chemical_formula_structural       CrCuS2
_chemical_formula_sum              "Cr1 Cu1 S2"
_cell_length_a       3.51351
_cell_length_b       3.51351
_cell_length_c       6.44941
_cell_angle_alpha    90
_cell_angle_beta     105.807
_cell_angle_gamma    120

_space_group_name_H-M_alt    "P 1"
_space_group_IT_number       1

loop_
  _space_group_symop_operation_xyz
  'x, y, z'

loop_
  _atom_site_type_symbol
  _atom_site_label
  _atom_site_symmetry_multiplicity
  _atom_site_fract_x
  _atom_site_fract_y
  _atom_site_fract_z
  _atom_site_occupancy
  Cr  Cr1       1.0  0.99700  0.99800  0.99500  1.0000
  Cu  Cu1       1.0  0.29100  0.14500  0.43600  1.0000
  S   S1        1.0  0.48700  0.74400  0.23100  1.0000
  S   S2        1.0  0.53100  0.26500  0.79600  1.0000
