data_image0
_chemical_formula_structural       Ge4Na8O11
_chemical_formula_sum              "Ge4 Na8 O11"
_cell_length_a       10.6912
_cell_length_b       5.31006
_cell_length_c       5.69787
_cell_angle_alpha    101.226
_cell_angle_beta     100.102
_cell_angle_gamma    117.793

_space_group_name_H-M_alt    "P 1"
_space_group_IT_number       1

loop_
  _space_group_symop_operation_xyz
  'x, y, z'

loop_
  _atom_site_type_symbol
  _atom_site_label
  _atom_site_symmetry_multiplicity
  _atom_site_fract_x
  _atom_site_fract_y
  _atom_site_fract_z
  _atom_site_occupancy
  Ge  Ge1       1.0  0.39700  0.14000  0.03170  1.0000
  Ge  Ge2       1.0  0.60800  0.87800  0.96000  1.0000
  Ge  Ge3       1.0  0.92600  0.17300  0.99700  1.0000
  Ge  Ge4       1.0  0.07640  0.81500  0.00000  1.0000
  Na  Na1       1.0  0.25500  0.49000  0.00416  1.0000
  Na  Na2       1.0  0.66800  0.66400  0.46900  1.0000
  Na  Na3       1.0  0.99600  0.98800  0.49400  1.0000
  Na  Na4       1.0  0.16800  0.64600  0.49700  1.0000
  Na  Na5       1.0  0.83400  0.34100  0.50100  1.0000
  Na  Na6       1.0  0.50100  0.05410  0.52700  1.0000
  Na  Na7       1.0  0.31300  0.31500  0.53400  1.0000
  Na  Na8       1.0  0.74700  0.50800  0.99200  1.0000
  O   O1        1.0  0.79900  0.96200  0.18100  1.0000
  O   O2        1.0  0.97100  0.56700  0.19500  1.0000
  O   O3        1.0  0.09810  0.18800  0.20600  1.0000
  O   O4        1.0  0.26900  0.91000  0.21600  1.0000
  O   O5        1.0  0.60500  0.12900  0.22400  1.0000
  O   O6        1.0  0.54500  0.50400  0.77100  1.0000
  O   O7        1.0  0.72500  0.08580  0.78000  1.0000
  O   O8        1.0  0.90400  0.80500  0.79100  1.0000
  O   O9        1.0  0.02770  0.41600  0.79900  1.0000
  O   O10       1.0  0.40500  0.82700  0.80200  1.0000
  O   O11       1.0  0.19700  0.01790  0.80400  1.0000
