data_image0
_chemical_formula_structural       Bi6Nd2O24Ti6
_chemical_formula_sum              "Bi6 Nd2 O24 Ti6"
_cell_length_a       5.40942
_cell_length_b       5.40275
_cell_length_c       16.6547
_cell_angle_alpha    80.5884
_cell_angle_beta     90
_cell_angle_gamma    90

_space_group_name_H-M_alt    "P 1"
_space_group_IT_number       1

loop_
  _space_group_symop_operation_xyz
  'x, y, z'

loop_
  _atom_site_type_symbol
  _atom_site_label
  _atom_site_symmetry_multiplicity
  _atom_site_fract_x
  _atom_site_fract_y
  _atom_site_fract_z
  _atom_site_occupancy
  Bi  Bi1       1.0  0.49400  0.45800  0.13300  1.0000
  Bi  Bi2       1.0  0.00602  0.95800  0.13300  1.0000
  Bi  Bi3       1.0  0.51600  0.33900  0.42500  1.0000
  Bi  Bi4       1.0  0.98400  0.83900  0.42500  1.0000
  Bi  Bi5       1.0  0.01930  0.25400  0.58100  1.0000
  Bi  Bi6       1.0  0.48100  0.75400  0.58100  1.0000
  Nd  Nd1       1.0  0.00280  0.11100  0.86800  1.0000
  Nd  Nd2       1.0  0.49700  0.61100  0.86800  1.0000
  O   O1        1.0  0.69400  0.38600  0.00759  1.0000
  O   O2        1.0  0.80600  0.88600  0.00759  1.0000
  O   O3        1.0  0.43500  0.04400  0.11200  1.0000
  O   O4        1.0  0.06540  0.54400  0.11200  1.0000
  O   O5        1.0  0.77200  0.19500  0.22100  1.0000
  O   O6        1.0  0.72800  0.69500  0.22100  1.0000
  O   O7        1.0  0.29200  0.24600  0.24500  1.0000
  O   O8        1.0  0.20800  0.74600  0.24500  1.0000
  O   O9        1.0  0.95100  0.37800  0.36500  1.0000
  O   O10       1.0  0.54900  0.87800  0.36500  1.0000
  O   O11       1.0  0.25200  0.05570  0.49900  1.0000
  O   O12       1.0  0.24800  0.55600  0.49900  1.0000
  O   O13       1.0  0.75200  0.05230  0.50300  1.0000
  O   O14       1.0  0.74800  0.55200  0.50300  1.0000
  O   O15       1.0  0.43900  0.25700  0.63400  1.0000
  O   O16       1.0  0.06080  0.75700  0.63400  1.0000
  O   O17       1.0  0.72100  0.48100  0.74900  1.0000
  O   O18       1.0  0.77900  0.98100  0.74900  1.0000
  O   O19       1.0  0.23000  0.41800  0.77800  1.0000
  O   O20       1.0  0.27000  0.91800  0.77800  1.0000
  O   O21       1.0  0.56900  0.15400  0.87900  1.0000
  O   O22       1.0  0.93100  0.65400  0.87900  1.0000
  O   O23       1.0  0.21100  0.30900  0.97300  1.0000
  O   O24       1.0  0.28900  0.80900  0.97300  1.0000
  Ti  Ti1       1.0  0.99800  0.43800  0.25800  1.0000
  Ti  Ti2       1.0  0.50200  0.93800  0.25800  1.0000
  Ti  Ti3       1.0  0.50000  0.19800  0.74200  1.0000
  Ti  Ti4       1.0  0.00000  0.69800  0.74200  1.0000
  Ti  Ti5       1.0  0.50400  0.06670  0.99400  1.0000
  Ti  Ti6       1.0  0.99600  0.56700  0.99400  1.0000
