data_image0
_chemical_formula_structural       CaPtSi3
_chemical_formula_sum              "Ca1 Pt1 Si3"
_cell_length_a       4.25392
_cell_length_b       4.25392
_cell_length_c       5.77629
_cell_angle_alpha    111.606
_cell_angle_beta     111.606
_cell_angle_gamma    90

_space_group_name_H-M_alt    "P 1"
_space_group_IT_number       1

loop_
  _space_group_symop_operation_xyz
  'x, y, z'

loop_
  _atom_site_type_symbol
  _atom_site_label
  _atom_site_symmetry_multiplicity
  _atom_site_fract_x
  _atom_site_fract_y
  _atom_site_fract_z
  _atom_site_occupancy
  Ca  Ca1       1.0  0.00000  0.00000  0.99900  1.0000
  Pt  Pt1       1.0  0.64000  0.64000  0.28000  1.0000
  Si  Si1       1.0  0.75800  0.25800  0.51700  1.0000
  Si  Si2       1.0  0.25800  0.75800  0.51700  1.0000
  Si  Si3       1.0  0.39800  0.39800  0.79500  1.0000
