data_image0
_chemical_formula_structural       O11Zn4
_chemical_formula_sum              "O11 Zn4"
_cell_length_a       10.7499
_cell_length_b       5.63231
_cell_length_c       3.46184
_cell_angle_alpha    101.229
_cell_angle_beta     93.6661
_cell_angle_gamma    122.363

_space_group_name_H-M_alt    "P 1"
_space_group_IT_number       1

loop_
  _space_group_symop_operation_xyz
  'x, y, z'

loop_
  _atom_site_type_symbol
  _atom_site_label
  _atom_site_symmetry_multiplicity
  _atom_site_fract_x
  _atom_site_fract_y
  _atom_site_fract_z
  _atom_site_occupancy
  O   O1        1.0  0.95000  0.96200  0.09950  1.0000
  O   O2        1.0  0.25100  0.85100  0.17200  1.0000
  O   O3        1.0  0.61800  0.22900  0.20100  1.0000
  O   O4        1.0  0.91900  0.44800  0.25000  1.0000
  O   O5        1.0  0.74500  0.43800  0.41700  1.0000
  O   O6        1.0  0.68100  0.87400  0.55900  1.0000
  O   O7        1.0  0.99500  0.45700  0.57800  1.0000
  O   O8        1.0  0.26100  0.40300  0.61700  1.0000
  O   O9        1.0  0.40300  0.66000  0.69300  1.0000
  O   O10       1.0  0.25500  0.23200  0.84300  1.0000
  O   O11       1.0  0.55200  0.31000  0.90600  1.0000
  Zn  Zn1       1.0  0.60100  0.72600  0.00020  1.0000
  Zn  Zn2       1.0  0.07300  0.82900  0.07870  1.0000
  Zn  Zn3       1.0  0.89200  0.02590  0.61500  1.0000
  Zn  Zn4       1.0  0.34200  0.95600  0.71700  1.0000
