data_image0
_chemical_formula_structural       EuIrSi3
_chemical_formula_sum              "Eu1 Ir1 Si3"
_cell_length_a       4.24356
_cell_length_b       4.24356
_cell_length_c       5.79018
_cell_angle_alpha    111.497
_cell_angle_beta     111.497
_cell_angle_gamma    90

_space_group_name_H-M_alt    "P 1"
_space_group_IT_number       1

loop_
  _space_group_symop_operation_xyz
  'x, y, z'

loop_
  _atom_site_type_symbol
  _atom_site_label
  _atom_site_symmetry_multiplicity
  _atom_site_fract_x
  _atom_site_fract_y
  _atom_site_fract_z
  _atom_site_occupancy
  Eu  Eu1       1.0  0.00390  0.00390  0.00779  1.0000
  Ir  Ir1       1.0  0.65300  0.65300  0.30700  1.0000
  Si  Si1       1.0  0.76400  0.26400  0.52800  1.0000
  Si  Si2       1.0  0.26400  0.76400  0.52800  1.0000
  Si  Si3       1.0  0.41300  0.41300  0.82600  1.0000
