data_image0
_chemical_formula_structural       BrO3Tl
_chemical_formula_sum              "Br1 O3 Tl1"
_cell_length_a       4.41298
_cell_length_b       4.41298
_cell_length_c       4.41298
_cell_angle_alpha    87.4607
_cell_angle_beta     87.4607
_cell_angle_gamma    87.4608

_space_group_name_H-M_alt    "P 1"
_space_group_IT_number       1

loop_
  _space_group_symop_operation_xyz
  'x, y, z'

loop_
  _atom_site_type_symbol
  _atom_site_label
  _atom_site_symmetry_multiplicity
  _atom_site_fract_x
  _atom_site_fract_y
  _atom_site_fract_z
  _atom_site_occupancy
  Br  Br1       1.0  0.50200  0.50200  0.50200  1.0000
  O   O1        1.0  0.55900  0.55900  0.12200  1.0000
  O   O2        1.0  0.55900  0.12200  0.55900  1.0000
  O   O3        1.0  0.12200  0.55900  0.55900  1.0000
  Tl  Tl1       1.0  0.01150  0.01150  0.01150  1.0000
