data_image0
_chemical_formula_structural       Ge28Na8O60
_chemical_formula_sum              "Ge28 Na8 O60"
_cell_length_a       7.51228
_cell_length_b       17.2255
_cell_length_c       9.98494
_cell_angle_alpha    90
_cell_angle_beta     90
_cell_angle_gamma    90

_space_group_name_H-M_alt    "P 1"
_space_group_IT_number       1

loop_
  _space_group_symop_operation_xyz
  'x, y, z'

loop_
  _atom_site_type_symbol
  _atom_site_label
  _atom_site_symmetry_multiplicity
  _atom_site_fract_x
  _atom_site_fract_y
  _atom_site_fract_z
  _atom_site_occupancy
  Ge  Ge1       1.0  0.71300  0.34300  0.02800  1.0000
  Ge  Ge2       1.0  0.78700  0.84300  0.02800  1.0000
  Ge  Ge3       1.0  0.28400  0.34100  0.03200  1.0000
  Ge  Ge4       1.0  0.21600  0.84100  0.03200  1.0000
  Ge  Ge5       1.0  0.21300  0.05760  0.25000  1.0000
  Ge  Ge6       1.0  0.28700  0.55800  0.25000  1.0000
  Ge  Ge7       1.0  0.00000  0.41000  0.25000  1.0000
  Ge  Ge8       1.0  0.50000  0.91000  0.25000  1.0000
  Ge  Ge9       1.0  0.78700  0.05760  0.25000  1.0000
  Ge  Ge10      1.0  0.71300  0.55800  0.25000  1.0000
  Ge  Ge11      1.0  0.71600  0.34100  0.46800  1.0000
  Ge  Ge12      1.0  0.78400  0.84100  0.46800  1.0000
  Ge  Ge13      1.0  0.28700  0.34300  0.47200  1.0000
  Ge  Ge14      1.0  0.21300  0.84300  0.47200  1.0000
  Ge  Ge15      1.0  0.78700  0.15700  0.52800  1.0000
  Ge  Ge16      1.0  0.71300  0.65700  0.52800  1.0000
  Ge  Ge17      1.0  0.21600  0.15900  0.53200  1.0000
  Ge  Ge18      1.0  0.28400  0.65900  0.53200  1.0000
  Ge  Ge19      1.0  0.28700  0.44200  0.75000  1.0000
  Ge  Ge20      1.0  0.21300  0.94200  0.75000  1.0000
  Ge  Ge21      1.0  0.50000  0.09000  0.75000  1.0000
  Ge  Ge22      1.0  0.00000  0.59000  0.75000  1.0000
  Ge  Ge23      1.0  0.71300  0.44200  0.75000  1.0000
  Ge  Ge24      1.0  0.78700  0.94200  0.75000  1.0000
  Ge  Ge25      1.0  0.78400  0.15900  0.96800  1.0000
  Ge  Ge26      1.0  0.71600  0.65900  0.96800  1.0000
  Ge  Ge27      1.0  0.21300  0.15700  0.97200  1.0000
  Ge  Ge28      1.0  0.28700  0.65700  0.97200  1.0000
  Na  Na1       1.0  0.50000  0.00000  0.00000  1.0000
  Na  Na2       1.0  0.00000  0.50000  0.00000  1.0000
  Na  Na3       1.0  0.00000  0.22900  0.25000  1.0000
  Na  Na4       1.0  0.50000  0.72900  0.25000  1.0000
  Na  Na5       1.0  0.50000  0.00000  0.50000  1.0000
  Na  Na6       1.0  0.00000  0.50000  0.50000  1.0000
  Na  Na7       1.0  0.50000  0.27100  0.75000  1.0000
  Na  Na8       1.0  0.00000  0.77100  0.75000  1.0000
  O   O1        1.0  0.79300  0.24800  0.06060  1.0000
  O   O2        1.0  0.70700  0.74800  0.06060  1.0000
  O   O3        1.0  0.71600  0.08920  0.08920  1.0000
  O   O4        1.0  0.78400  0.58900  0.08920  1.0000
  O   O5        1.0  0.49900  0.35700  0.09370  1.0000
  O   O6        1.0  0.00111  0.85700  0.09370  1.0000
  O   O7        1.0  0.85000  0.41200  0.09790  1.0000
  O   O8        1.0  0.65000  0.91200  0.09790  1.0000
  O   O9        1.0  0.20200  0.14500  0.15100  1.0000
  O   O10       1.0  0.29800  0.64500  0.15100  1.0000
  O   O11       1.0  0.14000  0.33200  0.16600  1.0000
  O   O12       1.0  0.36000  0.83200  0.16600  1.0000
  O   O13       1.0  0.14900  0.48900  0.17800  1.0000
  O   O14       1.0  0.35100  0.98900  0.17800  1.0000
  O   O15       1.0  0.00000  0.01660  0.25000  1.0000
  O   O16       1.0  0.50000  0.51700  0.25000  1.0000
  O   O17       1.0  0.85100  0.48900  0.32200  1.0000
  O   O18       1.0  0.64900  0.98900  0.32200  1.0000
  O   O19       1.0  0.86000  0.33200  0.33400  1.0000
  O   O20       1.0  0.64000  0.83200  0.33400  1.0000
  O   O21       1.0  0.79800  0.14500  0.34900  1.0000
  O   O22       1.0  0.70200  0.64500  0.34900  1.0000
  O   O23       1.0  0.15000  0.41200  0.40200  1.0000
  O   O24       1.0  0.35000  0.91200  0.40200  1.0000
  O   O25       1.0  0.50100  0.35700  0.40600  1.0000
  O   O26       1.0  0.99900  0.85700  0.40600  1.0000
  O   O27       1.0  0.28400  0.08920  0.41100  1.0000
  O   O28       1.0  0.21600  0.58900  0.41100  1.0000
  O   O29       1.0  0.20700  0.24800  0.43900  1.0000
  O   O30       1.0  0.29300  0.74800  0.43900  1.0000
  O   O31       1.0  0.70700  0.25200  0.56100  1.0000
  O   O32       1.0  0.79300  0.75200  0.56100  1.0000
  O   O33       1.0  0.78400  0.41100  0.58900  1.0000
  O   O34       1.0  0.71600  0.91100  0.58900  1.0000
  O   O35       1.0  0.00111  0.14300  0.59400  1.0000
  O   O36       1.0  0.49900  0.64300  0.59400  1.0000
  O   O37       1.0  0.65000  0.08830  0.59800  1.0000
  O   O38       1.0  0.85000  0.58800  0.59800  1.0000
  O   O39       1.0  0.29800  0.35500  0.65100  1.0000
  O   O40       1.0  0.20200  0.85500  0.65100  1.0000
  O   O41       1.0  0.36000  0.16800  0.66600  1.0000
  O   O42       1.0  0.14000  0.66800  0.66600  1.0000
  O   O43       1.0  0.35100  0.01060  0.67800  1.0000
  O   O44       1.0  0.14900  0.51100  0.67800  1.0000
  O   O45       1.0  0.50000  0.48300  0.75000  1.0000
  O   O46       1.0  0.00000  0.98300  0.75000  1.0000
  O   O47       1.0  0.64900  0.01060  0.82200  1.0000
  O   O48       1.0  0.85100  0.51100  0.82200  1.0000
  O   O49       1.0  0.64000  0.16800  0.83400  1.0000
  O   O50       1.0  0.86000  0.66800  0.83400  1.0000
  O   O51       1.0  0.70200  0.35500  0.84900  1.0000
  O   O52       1.0  0.79800  0.85500  0.84900  1.0000
  O   O53       1.0  0.35000  0.08830  0.90200  1.0000
  O   O54       1.0  0.15000  0.58800  0.90200  1.0000
  O   O55       1.0  0.99900  0.14300  0.90600  1.0000
  O   O56       1.0  0.50100  0.64300  0.90600  1.0000
  O   O57       1.0  0.21600  0.41100  0.91100  1.0000
  O   O58       1.0  0.28400  0.91100  0.91100  1.0000
  O   O59       1.0  0.29300  0.25200  0.93900  1.0000
  O   O60       1.0  0.20700  0.75200  0.93900  1.0000
