data_image0
_chemical_formula_structural       Na8O11Si4
_chemical_formula_sum              "Na8 O11 Si4"
_cell_length_a       11.1494
_cell_length_b       5.15614
_cell_length_c       5.54886
_cell_angle_alpha    102.114
_cell_angle_beta     98.8694
_cell_angle_gamma    117.919

_space_group_name_H-M_alt    "P 1"
_space_group_IT_number       1

loop_
  _space_group_symop_operation_xyz
  'x, y, z'

loop_
  _atom_site_type_symbol
  _atom_site_label
  _atom_site_symmetry_multiplicity
  _atom_site_fract_x
  _atom_site_fract_y
  _atom_site_fract_z
  _atom_site_occupancy
  Na  Na1       1.0  0.27300  0.51000  0.04140  1.0000
  Na  Na2       1.0  0.61000  0.63200  0.37800  1.0000
  Na  Na3       1.0  0.15800  0.64400  0.50400  1.0000
  Na  Na4       1.0  0.00185  0.99000  0.50500  1.0000
  Na  Na5       1.0  0.82700  0.33100  0.50900  1.0000
  Na  Na6       1.0  0.50400  0.06590  0.54300  1.0000
  Na  Na7       1.0  0.33500  0.35300  0.57600  1.0000
  Na  Na8       1.0  0.76000  0.51000  0.99800  1.0000
  O   O1        1.0  0.82400  0.00499  0.14000  1.0000
  O   O2        1.0  0.98100  0.57400  0.19000  1.0000
  O   O3        1.0  0.61500  0.06860  0.19100  1.0000
  O   O4        1.0  0.24400  0.90000  0.20400  1.0000
  O   O5        1.0  0.09930  0.19500  0.21500  1.0000
  O   O6        1.0  0.69600  0.06370  0.73400  1.0000
  O   O7        1.0  0.36000  0.82000  0.79400  1.0000
  O   O8        1.0  0.02290  0.40300  0.80900  1.0000
  O   O9        1.0  0.56500  0.53300  0.81300  1.0000
  O   O10       1.0  0.92900  0.82200  0.82100  1.0000
  O   O11       1.0  0.18500  0.01570  0.82500  1.0000
  Si  Si1       1.0  0.07330  0.81200  0.00860  1.0000
  Si  Si2       1.0  0.34900  0.07890  0.00944  1.0000
  Si  Si3       1.0  0.96300  0.19600  0.01920  1.0000
  Si  Si4       1.0  0.65600  0.90600  0.95800  1.0000
