data_image0
_chemical_formula_structural       Na8O11V4
_chemical_formula_sum              "Na8 O11 V4"
_cell_length_a       10.9074
_cell_length_b       5.46264
_cell_length_c       5.64259
_cell_angle_alpha    100.157
_cell_angle_beta     100.406
_cell_angle_gamma    120.059

_space_group_name_H-M_alt    "P 1"
_space_group_IT_number       1

loop_
  _space_group_symop_operation_xyz
  'x, y, z'

loop_
  _atom_site_type_symbol
  _atom_site_label
  _atom_site_symmetry_multiplicity
  _atom_site_fract_x
  _atom_site_fract_y
  _atom_site_fract_z
  _atom_site_occupancy
  Na  Na1       1.0  0.25100  0.48800  0.00262  1.0000
  Na  Na2       1.0  0.69100  0.68800  0.44600  1.0000
  Na  Na3       1.0  0.16300  0.64100  0.49000  1.0000
  Na  Na4       1.0  0.00164  0.99900  0.49300  1.0000
  Na  Na5       1.0  0.83400  0.34600  0.49700  1.0000
  Na  Na6       1.0  0.50400  0.05230  0.52500  1.0000
  Na  Na7       1.0  0.31200  0.30600  0.54700  1.0000
  Na  Na8       1.0  0.74900  0.50800  0.99100  1.0000
  O   O1        1.0  0.81100  0.98200  0.19000  1.0000
  O   O2        1.0  0.97700  0.59300  0.19000  1.0000
  O   O3        1.0  0.10400  0.20000  0.20400  1.0000
  O   O4        1.0  0.60200  0.17900  0.21800  1.0000
  O   O5        1.0  0.28900  0.95400  0.22800  1.0000
  O   O6        1.0  0.71500  0.05460  0.75600  1.0000
  O   O7        1.0  0.39200  0.77900  0.77000  1.0000
  O   O8        1.0  0.89700  0.79600  0.78000  1.0000
  O   O9        1.0  0.02660  0.40500  0.79600  1.0000
  O   O10       1.0  0.19300  0.01650  0.79800  1.0000
  O   O11       1.0  0.51300  0.45200  0.89800  1.0000
  V   V1        1.0  0.07900  0.83400  0.00270  1.0000
  V   V2        1.0  0.60300  0.88000  0.97200  1.0000
  V   V3        1.0  0.92400  0.16400  0.98300  1.0000
  V   V4        1.0  0.40000  0.09550  0.99500  1.0000
