data_image0
_chemical_formula_structural       Na8O11Zr4
_chemical_formula_sum              "Na8 O11 Zr4"
_cell_length_a       11.3296
_cell_length_b       5.64877
_cell_length_c       5.82797
_cell_angle_alpha    99.4306
_cell_angle_beta     100.227
_cell_angle_gamma    119.857

_space_group_name_H-M_alt    "P 1"
_space_group_IT_number       1

loop_
  _space_group_symop_operation_xyz
  'x, y, z'

loop_
  _atom_site_type_symbol
  _atom_site_label
  _atom_site_symmetry_multiplicity
  _atom_site_fract_x
  _atom_site_fract_y
  _atom_site_fract_z
  _atom_site_occupancy
  Na  Na1       1.0  0.25200  0.50100  0.00689  1.0000
  Na  Na2       1.0  0.67000  0.66100  0.48800  1.0000
  Na  Na3       1.0  0.99900  0.99800  0.49700  1.0000
  Na  Na4       1.0  0.82900  0.33700  0.49800  1.0000
  Na  Na5       1.0  0.17000  0.65400  0.50000  1.0000
  Na  Na6       1.0  0.50100  0.01190  0.50300  1.0000
  Na  Na7       1.0  0.32500  0.33500  0.50900  1.0000
  Na  Na8       1.0  0.75000  0.50100  0.99900  1.0000
  O   O1        1.0  0.78900  0.94400  0.20900  1.0000
  O   O2        1.0  0.97200  0.57400  0.21000  1.0000
  O   O3        1.0  0.60200  0.19400  0.21500  1.0000
  O   O4        1.0  0.28900  0.95100  0.21600  1.0000
  O   O5        1.0  0.10200  0.20300  0.21600  1.0000
  O   O6        1.0  0.40000  0.79200  0.78000  1.0000
  O   O7        1.0  0.71700  0.05980  0.78000  1.0000
  O   O8        1.0  0.89800  0.79500  0.78100  1.0000
  O   O9        1.0  0.21500  0.05870  0.78800  1.0000
  O   O10       1.0  0.03220  0.43000  0.78800  1.0000
  O   O11       1.0  0.52700  0.42500  0.79500  1.0000
  Zr  Zr1       1.0  0.58700  0.83800  0.99000  1.0000
  Zr  Zr2       1.0  0.41300  0.15600  0.99700  1.0000
  Zr  Zr3       1.0  0.91700  0.16800  0.99700  1.0000
  Zr  Zr4       1.0  0.08310  0.83200  1.00000  1.0000
