data_image0
_chemical_formula_structural       B4Na8O11
_chemical_formula_sum              "B4 Na8 O11"
_cell_length_a       10.9954
_cell_length_b       5.56009
_cell_length_c       5.71323
_cell_angle_alpha    97.2108
_cell_angle_beta     107.59
_cell_angle_gamma    120.768

_space_group_name_H-M_alt    "P 1"
_space_group_IT_number       1

loop_
  _space_group_symop_operation_xyz
  'x, y, z'

loop_
  _atom_site_type_symbol
  _atom_site_label
  _atom_site_symmetry_multiplicity
  _atom_site_fract_x
  _atom_site_fract_y
  _atom_site_fract_z
  _atom_site_occupancy
  B   B1        1.0  0.07870  0.46700  0.02450  1.0000
  B   B2        1.0  0.04900  0.82200  0.87600  1.0000
  B   B3        1.0  0.31800  0.99100  0.94800  1.0000
  B   B4        1.0  0.64300  0.77800  0.95100  1.0000
  Na  Na1       1.0  0.40100  0.58400  0.04580  1.0000
  Na  Na2       1.0  0.69100  0.37300  0.08190  1.0000
  Na  Na3       1.0  0.97500  0.02570  0.42000  1.0000
  Na  Na4       1.0  0.29400  0.27800  0.44600  1.0000
  Na  Na5       1.0  0.08010  0.60700  0.48600  1.0000
  Na  Na6       1.0  0.67900  0.63900  0.54500  1.0000
  Na  Na7       1.0  0.78100  0.21100  0.58100  1.0000
  Na  Na8       1.0  0.46500  0.99400  0.59400  1.0000
  O   O1        1.0  0.06880  0.73400  0.10300  1.0000
  O   O2        1.0  0.42300  0.17400  0.21300  1.0000
  O   O3        1.0  0.71900  0.84500  0.21900  1.0000
  O   O4        1.0  0.13800  0.39500  0.22600  1.0000
  O   O5        1.0  0.55100  0.13200  0.30100  1.0000
  O   O6        1.0  0.91600  0.71300  0.67100  1.0000
  O   O7        1.0  0.03050  0.35700  0.76900  1.0000
  O   O8        1.0  0.52900  0.47600  0.79400  1.0000
  O   O9        1.0  0.32700  0.80800  0.80100  1.0000
  O   O10       1.0  0.67600  0.99300  0.83400  1.0000
  O   O11       1.0  0.19600  0.03300  0.86300  1.0000
