data_image0
_chemical_formula_structural       H2Hf2Pd
_chemical_formula_sum              "H2 Hf2 Pd1"
_cell_length_a       3.20903
_cell_length_b       3.20903
_cell_length_c       6.46536
_cell_angle_alpha    104.369
_cell_angle_beta     104.369
_cell_angle_gamma    90

_space_group_name_H-M_alt    "P 1"
_space_group_IT_number       1

loop_
  _space_group_symop_operation_xyz
  'x, y, z'

loop_
  _atom_site_type_symbol
  _atom_site_label
  _atom_site_symmetry_multiplicity
  _atom_site_fract_x
  _atom_site_fract_y
  _atom_site_fract_z
  _atom_site_occupancy
  H   H1        1.0  0.75000  0.25000  0.50000  1.0000
  H   H2        1.0  0.25000  0.75000  0.50000  1.0000
  Hf  Hf1       1.0  0.64200  0.64200  0.28400  1.0000
  Hf  Hf2       1.0  0.35800  0.35800  0.71600  1.0000
  Pd  Pd1       1.0  0.00000  0.00000  0.00000  1.0000
