data_image0
_chemical_formula_structural       Na2O13V6
_chemical_formula_sum              "Na2 O13 V6"
_cell_length_a       3.7761
_cell_length_b       6.33533
_cell_length_c       10.3239
_cell_angle_alpha    99.4471
_cell_angle_beta     90
_cell_angle_gamma    107.339

_space_group_name_H-M_alt    "P 1"
_space_group_IT_number       1

loop_
  _space_group_symop_operation_xyz
  'x, y, z'

loop_
  _atom_site_type_symbol
  _atom_site_label
  _atom_site_symmetry_multiplicity
  _atom_site_fract_x
  _atom_site_fract_y
  _atom_site_fract_z
  _atom_site_occupancy
  Na  Na1       1.0  0.03780  0.07570  0.17500  1.0000
  Na  Na2       1.0  0.96200  0.92400  0.82500  1.0000
  O   O1        1.0  0.50000  0.00000  0.00000  1.0000
  O   O2        1.0  0.18200  0.36300  0.00342  1.0000
  O   O3        1.0  0.38800  0.77600  0.19500  1.0000
  O   O4        1.0  0.66900  0.33800  0.20000  1.0000
  O   O5        1.0  0.88300  0.76600  0.37800  1.0000
  O   O6        1.0  0.24300  0.48700  0.40800  1.0000
  O   O7        1.0  0.56700  0.13500  0.41700  1.0000
  O   O8        1.0  0.43300  0.86500  0.58300  1.0000
  O   O9        1.0  0.75700  0.51300  0.59200  1.0000
  O   O10       1.0  0.11700  0.23400  0.62200  1.0000
  O   O11       1.0  0.33100  0.66200  0.80000  1.0000
  O   O12       1.0  0.61200  0.22400  0.80500  1.0000
  O   O13       1.0  0.81800  0.63700  0.99700  1.0000
  V   V1        1.0  0.35000  0.70000  0.02670  1.0000
  V   V2        1.0  0.71400  0.42900  0.36400  1.0000
  V   V3        1.0  0.40800  0.81600  0.39000  1.0000
  V   V4        1.0  0.59200  0.18400  0.61000  1.0000
  V   V5        1.0  0.28600  0.57100  0.63600  1.0000
  V   V6        1.0  0.65000  0.30000  0.97300  1.0000
