data_image0
_chemical_formula_structural       As2CaCd2
_chemical_formula_sum              "As2 Ca1 Cd2"
_cell_length_a       4.4254
_cell_length_b       4.42569
_cell_length_c       7.18491
_cell_angle_alpha    90
_cell_angle_beta     89.9969
_cell_angle_gamma    120.002

_space_group_name_H-M_alt    "P 1"
_space_group_IT_number       1

loop_
  _space_group_symop_operation_xyz
  'x, y, z'

loop_
  _atom_site_type_symbol
  _atom_site_label
  _atom_site_symmetry_multiplicity
  _atom_site_fract_x
  _atom_site_fract_y
  _atom_site_fract_z
  _atom_site_occupancy
  As  As1       1.0  0.33300  0.66700  0.23300  1.0000
  As  As2       1.0  0.66700  0.33300  0.76700  1.0000
  Ca  Ca1       1.0  0.00000  0.00000  0.00000  1.0000
  Cd  Cd1       1.0  0.66700  0.33300  0.36600  1.0000
  Cd  Cd2       1.0  0.33300  0.66700  0.63400  1.0000
