data_image0
_chemical_formula_structural       B14Na6O24
_chemical_formula_sum              "B14 Na6 O24"
_cell_length_a       6.60498
_cell_length_b       8.16096
_cell_length_c       8.6769
_cell_angle_alpha    96.8132
_cell_angle_beta     100.8
_cell_angle_gamma    99.561

_space_group_name_H-M_alt    "P 1"
_space_group_IT_number       1

loop_
  _space_group_symop_operation_xyz
  'x, y, z'

loop_
  _atom_site_type_symbol
  _atom_site_label
  _atom_site_symmetry_multiplicity
  _atom_site_fract_x
  _atom_site_fract_y
  _atom_site_fract_z
  _atom_site_occupancy
  B   B1        1.0  0.76900  0.86100  0.03590  1.0000
  B   B2        1.0  0.08870  0.03260  0.19700  1.0000
  B   B3        1.0  0.58800  0.71800  0.22900  1.0000
  B   B4        1.0  0.30300  0.49300  0.26500  1.0000
  B   B5        1.0  0.65600  0.44600  0.29900  1.0000
  B   B6        1.0  0.98500  0.29700  0.31300  1.0000
  B   B7        1.0  0.21800  0.15300  0.48400  1.0000
  B   B8        1.0  0.78200  0.84700  0.51600  1.0000
  B   B9        1.0  0.01540  0.70300  0.68700  1.0000
  B   B10       1.0  0.34400  0.55400  0.70100  1.0000
  B   B11       1.0  0.69700  0.50700  0.73500  1.0000
  B   B12       1.0  0.41200  0.28200  0.77100  1.0000
  B   B13       1.0  0.91100  0.96700  0.80300  1.0000
  B   B14       1.0  0.23100  0.13900  0.96400  1.0000
  Na  Na1       1.0  0.21500  0.74500  0.00385  1.0000
  Na  Na2       1.0  0.55100  0.07890  0.29000  1.0000
  Na  Na3       1.0  0.07050  0.72200  0.33500  1.0000
  Na  Na4       1.0  0.92900  0.27800  0.66500  1.0000
  Na  Na5       1.0  0.44900  0.92100  0.71000  1.0000
  Na  Na6       1.0  0.78500  0.25500  0.99600  1.0000
  O   O1        1.0  0.58800  0.79700  0.08480  1.0000
  O   O2        1.0  0.25600  0.07820  0.10500  1.0000
  O   O3        1.0  0.96700  0.86100  0.12700  1.0000
  O   O4        1.0  0.94100  0.14400  0.20000  1.0000
  O   O5        1.0  0.36300  0.64800  0.22300  1.0000
  O   O6        1.0  0.71100  0.58300  0.22900  1.0000
  O   O7        1.0  0.09260  0.44100  0.25000  1.0000
  O   O8        1.0  0.45100  0.40200  0.32300  1.0000
  O   O9        1.0  0.77900  0.33200  0.33800  1.0000
  O   O10       1.0  0.20800  0.02480  0.36000  1.0000
  O   O11       1.0  0.66100  0.85000  0.37100  1.0000
  O   O12       1.0  0.10500  0.27800  0.46600  1.0000
  O   O13       1.0  0.89500  0.72200  0.53400  1.0000
  O   O14       1.0  0.33900  0.15000  0.62900  1.0000
  O   O15       1.0  0.79200  0.97500  0.64000  1.0000
  O   O16       1.0  0.22100  0.66800  0.66200  1.0000
  O   O17       1.0  0.54900  0.59800  0.67700  1.0000
  O   O18       1.0  0.90700  0.55900  0.75000  1.0000
  O   O19       1.0  0.28900  0.41700  0.77100  1.0000
  O   O20       1.0  0.63700  0.35200  0.77700  1.0000
  O   O21       1.0  0.05940  0.85600  0.80000  1.0000
  O   O22       1.0  0.03290  0.13900  0.87300  1.0000
  O   O23       1.0  0.74400  0.92200  0.89500  1.0000
  O   O24       1.0  0.41200  0.20300  0.91500  1.0000
