data_image0
_chemical_formula_structural       Cd2P2Sr
_chemical_formula_sum              "Cd2 P2 Sr1"
_cell_length_a       4.35698
_cell_length_b       4.3571
_cell_length_c       7.29086
_cell_angle_alpha    90
_cell_angle_beta     89.9992
_cell_angle_gamma    120.001

_space_group_name_H-M_alt    "P 1"
_space_group_IT_number       1

loop_
  _space_group_symop_operation_xyz
  'x, y, z'

loop_
  _atom_site_type_symbol
  _atom_site_label
  _atom_site_symmetry_multiplicity
  _atom_site_fract_x
  _atom_site_fract_y
  _atom_site_fract_z
  _atom_site_occupancy
  Cd  Cd1       1.0  0.66700  0.33300  0.36600  1.0000
  Cd  Cd2       1.0  0.33300  0.66700  0.63400  1.0000
  P   P1        1.0  0.33300  0.66700  0.25200  1.0000
  P   P2        1.0  0.66700  0.33300  0.74800  1.0000
  Sr  Sr1       1.0  0.00000  0.00000  0.00000  1.0000
