data_image0
_chemical_formula_structural       Na8O11Y4
_chemical_formula_sum              "Na8 O11 Y4"
_cell_length_a       11.7836
_cell_length_b       5.89045
_cell_length_c       5.83077
_cell_angle_alpha    100.363
_cell_angle_beta     99.7891
_cell_angle_gamma    118.991

_space_group_name_H-M_alt    "P 1"
_space_group_IT_number       1

loop_
  _space_group_symop_operation_xyz
  'x, y, z'

loop_
  _atom_site_type_symbol
  _atom_site_label
  _atom_site_symmetry_multiplicity
  _atom_site_fract_x
  _atom_site_fract_y
  _atom_site_fract_z
  _atom_site_occupancy
  Na  Na1       1.0  0.74700  0.50000  0.00224  1.0000
  Na  Na2       1.0  0.66600  0.65400  0.49600  1.0000
  Na  Na3       1.0  0.82500  0.33100  0.49700  1.0000
  Na  Na4       1.0  0.18500  0.71400  0.50100  1.0000
  Na  Na5       1.0  0.35300  0.36700  0.50500  1.0000
  Na  Na6       1.0  0.50400  0.00612  0.50600  1.0000
  Na  Na7       1.0  0.98500  0.97100  0.51100  1.0000
  Na  Na8       1.0  0.25600  0.50400  0.96300  1.0000
  O   O1        1.0  0.46100  0.57700  0.22400  1.0000
  O   O2        1.0  0.79000  0.93300  0.22800  1.0000
  O   O3        1.0  0.28400  0.94500  0.22900  1.0000
  O   O4        1.0  0.97600  0.57300  0.23200  1.0000
  O   O5        1.0  0.60700  0.22100  0.23300  1.0000
  O   O6        1.0  0.38800  0.78300  0.76200  1.0000
  O   O7        1.0  0.70700  0.06280  0.77100  1.0000
  O   O8        1.0  0.03460  0.39600  0.77200  1.0000
  O   O9        1.0  0.53400  0.42700  0.78200  1.0000
  O   O10       1.0  0.20700  0.06930  0.78500  1.0000
  O   O11       1.0  0.89700  0.78500  0.80100  1.0000
  Y   Y1        1.0  0.41500  0.16900  0.00256  1.0000
  Y   Y2        1.0  0.58100  0.83600  0.00391  1.0000
  Y   Y3        1.0  0.07860  0.78100  0.97400  1.0000
  Y   Y4        1.0  0.89500  0.14900  0.98000  1.0000
