data_image0
_chemical_formula_structural       Cs6S27Ti6
_chemical_formula_sum              "Cs6 S27 Ti6"
_cell_length_a       10.4007
_cell_length_b       10.4007
_cell_length_c       10.4007
_cell_angle_alpha    96.4524
_cell_angle_beta     96.4524
_cell_angle_gamma    83.5476

_space_group_name_H-M_alt    "P 1"
_space_group_IT_number       1

loop_
  _space_group_symop_operation_xyz
  'x, y, z'

loop_
  _atom_site_type_symbol
  _atom_site_label
  _atom_site_symmetry_multiplicity
  _atom_site_fract_x
  _atom_site_fract_y
  _atom_site_fract_z
  _atom_site_occupancy
  Cs  Cs1       1.0  0.21700  0.56000  0.17200  1.0000
  Cs  Cs2       1.0  0.76400  0.76400  0.23600  1.0000
  Cs  Cs3       1.0  0.82800  0.21700  0.44000  1.0000
  Cs  Cs4       1.0  0.34100  0.34100  0.65900  1.0000
  Cs  Cs5       1.0  0.56000  0.82800  0.78300  1.0000
  Cs  Cs6       1.0  0.00175  0.00175  0.99800  1.0000
  S   S1        1.0  0.42700  0.29100  0.01630  1.0000
  S   S2        1.0  0.84500  0.40100  0.09530  1.0000
  S   S3        1.0  0.69100  0.08740  0.11900  1.0000
  S   S4        1.0  0.40100  0.90500  0.15500  1.0000
  S   S5        1.0  0.66900  0.44300  0.17600  1.0000
  S   S6        1.0  0.21600  0.17800  0.19600  1.0000
  S   S7        1.0  0.08740  0.88100  0.30900  1.0000
  S   S8        1.0  0.44300  0.82400  0.33100  1.0000
  S   S9        1.0  0.49100  0.29300  0.35400  1.0000
  S   S10       1.0  0.16700  0.21800  0.38500  1.0000
  S   S11       1.0  0.49500  0.10300  0.39900  1.0000
  S   S12       1.0  0.10300  0.60100  0.50500  1.0000
  S   S13       1.0  0.29300  0.64600  0.50900  1.0000
  S   S14       1.0  0.82400  0.66900  0.55700  1.0000
  S   S15       1.0  0.29100  0.98400  0.57300  1.0000
  S   S16       1.0  0.90500  0.84500  0.59900  1.0000
  S   S17       1.0  0.11300  0.04600  0.64200  1.0000
  S   S18       1.0  0.64600  0.49100  0.70700  1.0000
  S   S19       1.0  0.98400  0.42700  0.70900  1.0000
  S   S20       1.0  0.61500  0.16700  0.78200  1.0000
  S   S21       1.0  0.17800  0.80400  0.78400  1.0000
  S   S22       1.0  0.80400  0.21600  0.82200  1.0000
  S   S23       1.0  0.21800  0.61500  0.83300  1.0000
  S   S24       1.0  0.04600  0.35800  0.88700  1.0000
  S   S25       1.0  0.60100  0.49500  0.89700  1.0000
  S   S26       1.0  0.88100  0.69100  0.91300  1.0000
  S   S27       1.0  0.35800  0.11300  0.95400  1.0000
  Ti  Ti1       1.0  0.47300  0.13200  0.17200  1.0000
  Ti  Ti2       1.0  0.27100  0.00427  0.33200  1.0000
  Ti  Ti3       1.0  0.13200  0.82800  0.52700  1.0000
  Ti  Ti4       1.0  0.00427  0.66800  0.72900  1.0000
  Ti  Ti5       1.0  0.82800  0.47300  0.86800  1.0000
  Ti  Ti6       1.0  0.66800  0.27100  0.99600  1.0000
