data_image0
_chemical_formula_structural       Ge2O7
_chemical_formula_sum              "Ge2 O7"
_cell_length_a       2.87212
_cell_length_b       6.09572
_cell_length_c       5.29501
_cell_angle_alpha    90
_cell_angle_beta     92.2132
_cell_angle_gamma    90

_space_group_name_H-M_alt    "P 1"
_space_group_IT_number       1

loop_
  _space_group_symop_operation_xyz
  'x, y, z'

loop_
  _atom_site_type_symbol
  _atom_site_label
  _atom_site_symmetry_multiplicity
  _atom_site_fract_x
  _atom_site_fract_y
  _atom_site_fract_z
  _atom_site_occupancy
  Ge  Ge1       1.0  0.11800  0.25000  0.30600  1.0000
  Ge  Ge2       1.0  0.32300  0.75000  0.67900  1.0000
  O   O1        1.0  0.61200  0.06200  0.22400  1.0000
  O   O2        1.0  0.61200  0.43800  0.22400  1.0000
  O   O3        1.0  0.56400  0.75000  0.36200  1.0000
  O   O4        1.0  0.14900  0.07500  0.63700  1.0000
  O   O5        1.0  0.14900  0.42500  0.63700  1.0000
  O   O6        1.0  0.30600  0.25000  0.79900  1.0000
  O   O7        1.0  0.83200  0.75000  0.87400  1.0000
