data_image0
_chemical_formula_structural       Ge28O60
_chemical_formula_sum              "Ge28 O60"
_cell_length_a       7.39462
_cell_length_b       16.7667
_cell_length_c       9.65333
_cell_angle_alpha    90
_cell_angle_beta     90
_cell_angle_gamma    90

_space_group_name_H-M_alt    "P 1"
_space_group_IT_number       1

loop_
  _space_group_symop_operation_xyz
  'x, y, z'

loop_
  _atom_site_type_symbol
  _atom_site_label
  _atom_site_symmetry_multiplicity
  _atom_site_fract_x
  _atom_site_fract_y
  _atom_site_fract_z
  _atom_site_occupancy
  Ge  Ge1       1.0  0.71400  0.34300  0.02690  1.0000
  Ge  Ge2       1.0  0.78600  0.84300  0.02690  1.0000
  Ge  Ge3       1.0  0.28700  0.34100  0.03150  1.0000
  Ge  Ge4       1.0  0.21300  0.84100  0.03150  1.0000
  Ge  Ge5       1.0  0.78600  0.06050  0.24900  1.0000
  Ge  Ge6       1.0  0.71400  0.56000  0.24900  1.0000
  Ge  Ge7       1.0  0.00000  0.41400  0.25000  1.0000
  Ge  Ge8       1.0  0.50000  0.91400  0.25000  1.0000
  Ge  Ge9       1.0  0.21400  0.06050  0.25100  1.0000
  Ge  Ge10      1.0  0.28600  0.56000  0.25100  1.0000
  Ge  Ge11      1.0  0.71300  0.34100  0.46800  1.0000
  Ge  Ge12      1.0  0.78700  0.84100  0.46800  1.0000
  Ge  Ge13      1.0  0.28600  0.34300  0.47300  1.0000
  Ge  Ge14      1.0  0.21400  0.84300  0.47300  1.0000
  Ge  Ge15      1.0  0.78600  0.15700  0.52700  1.0000
  Ge  Ge16      1.0  0.71400  0.65700  0.52700  1.0000
  Ge  Ge17      1.0  0.21300  0.15900  0.53200  1.0000
  Ge  Ge18      1.0  0.28700  0.65900  0.53200  1.0000
  Ge  Ge19      1.0  0.71400  0.44000  0.74900  1.0000
  Ge  Ge20      1.0  0.78600  0.94000  0.74900  1.0000
  Ge  Ge21      1.0  0.50000  0.08650  0.75000  1.0000
  Ge  Ge22      1.0  0.00000  0.58600  0.75000  1.0000
  Ge  Ge23      1.0  0.28600  0.44000  0.75100  1.0000
  Ge  Ge24      1.0  0.21400  0.94000  0.75100  1.0000
  Ge  Ge25      1.0  0.78700  0.15900  0.96800  1.0000
  Ge  Ge26      1.0  0.71300  0.65900  0.96800  1.0000
  Ge  Ge27      1.0  0.21400  0.15700  0.97300  1.0000
  Ge  Ge28      1.0  0.28600  0.65700  0.97300  1.0000
  O   O1        1.0  0.79900  0.24800  0.06580  1.0000
  O   O2        1.0  0.70100  0.74800  0.06580  1.0000
  O   O3        1.0  0.70900  0.08610  0.08380  1.0000
  O   O4        1.0  0.79100  0.58600  0.08380  1.0000
  O   O5        1.0  0.84900  0.41900  0.09460  1.0000
  O   O6        1.0  0.65100  0.91900  0.09460  1.0000
  O   O7        1.0  0.50100  0.36000  0.10000  1.0000
  O   O8        1.0  0.99900  0.86000  0.10000  1.0000
  O   O9        1.0  0.20400  0.15000  0.15500  1.0000
  O   O10       1.0  0.29600  0.65000  0.15500  1.0000
  O   O11       1.0  0.14200  0.49300  0.16600  1.0000
  O   O12       1.0  0.35800  0.99300  0.16600  1.0000
  O   O13       1.0  0.14300  0.33300  0.17400  1.0000
  O   O14       1.0  0.35700  0.83300  0.17400  1.0000
  O   O15       1.0  0.00000  0.01420  0.25000  1.0000
  O   O16       1.0  0.50000  0.51400  0.25000  1.0000
  O   O17       1.0  0.85700  0.33300  0.32600  1.0000
  O   O18       1.0  0.64300  0.83300  0.32600  1.0000
  O   O19       1.0  0.85800  0.49300  0.33400  1.0000
  O   O20       1.0  0.64200  0.99300  0.33400  1.0000
  O   O21       1.0  0.79600  0.15000  0.34500  1.0000
  O   O22       1.0  0.70400  0.65000  0.34500  1.0000
  O   O23       1.0  0.49900  0.36000  0.40000  1.0000
  O   O24       1.0  0.00097  0.86000  0.40000  1.0000
  O   O25       1.0  0.15100  0.41900  0.40500  1.0000
  O   O26       1.0  0.34900  0.91900  0.40500  1.0000
  O   O27       1.0  0.29100  0.08610  0.41600  1.0000
  O   O28       1.0  0.20900  0.58600  0.41600  1.0000
  O   O29       1.0  0.20100  0.24800  0.43400  1.0000
  O   O30       1.0  0.29900  0.74800  0.43400  1.0000
  O   O31       1.0  0.70100  0.25200  0.56600  1.0000
  O   O32       1.0  0.79900  0.75200  0.56600  1.0000
  O   O33       1.0  0.79100  0.41400  0.58400  1.0000
  O   O34       1.0  0.70900  0.91400  0.58400  1.0000
  O   O35       1.0  0.65100  0.08060  0.59500  1.0000
  O   O36       1.0  0.84900  0.58100  0.59500  1.0000
  O   O37       1.0  0.99900  0.14000  0.60000  1.0000
  O   O38       1.0  0.50100  0.64000  0.60000  1.0000
  O   O39       1.0  0.29600  0.35000  0.65500  1.0000
  O   O40       1.0  0.20400  0.85000  0.65500  1.0000
  O   O41       1.0  0.35800  0.00686  0.66600  1.0000
  O   O42       1.0  0.14200  0.50700  0.66600  1.0000
  O   O43       1.0  0.35700  0.16700  0.67400  1.0000
  O   O44       1.0  0.14300  0.66700  0.67400  1.0000
  O   O45       1.0  0.50000  0.48600  0.75000  1.0000
  O   O46       1.0  0.00000  0.98600  0.75000  1.0000
  O   O47       1.0  0.64300  0.16700  0.82600  1.0000
  O   O48       1.0  0.85700  0.66700  0.82600  1.0000
  O   O49       1.0  0.64200  0.00686  0.83400  1.0000
  O   O50       1.0  0.85800  0.50700  0.83400  1.0000
  O   O51       1.0  0.70400  0.35000  0.84500  1.0000
  O   O52       1.0  0.79600  0.85000  0.84500  1.0000
  O   O53       1.0  0.00097  0.14000  0.90000  1.0000
  O   O54       1.0  0.49900  0.64000  0.90000  1.0000
  O   O55       1.0  0.34900  0.08060  0.90500  1.0000
  O   O56       1.0  0.15100  0.58100  0.90500  1.0000
  O   O57       1.0  0.20900  0.41400  0.91600  1.0000
  O   O58       1.0  0.29100  0.91400  0.91600  1.0000
  O   O59       1.0  0.29900  0.25200  0.93400  1.0000
  O   O60       1.0  0.20100  0.75200  0.93400  1.0000
