data_image0
_chemical_formula_structural       Au4Tm
_chemical_formula_sum              "Au4 Tm1"
_cell_length_a       4.17687
_cell_length_b       5.17481
_cell_length_c       5.17481
_cell_angle_alpha    99.3738
_cell_angle_beta     66.198
_cell_angle_gamma    113.802

_space_group_name_H-M_alt    "P 1"
_space_group_IT_number       1

loop_
  _space_group_symop_operation_xyz
  'x, y, z'

loop_
  _atom_site_type_symbol
  _atom_site_label
  _atom_site_symmetry_multiplicity
  _atom_site_fract_x
  _atom_site_fract_y
  _atom_site_fract_z
  _atom_site_occupancy
  Au  Au1       1.0  0.60000  0.40000  0.20000  1.0000
  Au  Au2       1.0  0.20000  0.80000  0.40000  1.0000
  Au  Au3       1.0  0.80000  0.20000  0.60000  1.0000
  Au  Au4       1.0  0.40000  0.60000  0.80000  1.0000
  Tm  Tm1       1.0  0.00000  0.00000  0.00000  1.0000
