data_image0
_chemical_formula_structural       Co8O23Sr8
_chemical_formula_sum              "Co8 O23 Sr8"
_cell_length_a       7.644
_cell_length_b       8.57482
_cell_length_c       8.57482
_cell_angle_alpha    101.459
_cell_angle_beta     63.5303
_cell_angle_gamma    116.47

_space_group_name_H-M_alt    "P 1"
_space_group_IT_number       1

loop_
  _space_group_symop_operation_xyz
  'x, y, z'

loop_
  _atom_site_type_symbol
  _atom_site_label
  _atom_site_symmetry_multiplicity
  _atom_site_fract_x
  _atom_site_fract_y
  _atom_site_fract_z
  _atom_site_occupancy
  Co  Co1       1.0  0.23900  0.00000  0.00000  1.0000
  Co  Co2       1.0  0.76100  0.00000  0.00000  1.0000
  Co  Co3       1.0  0.00000  0.50000  0.00000  1.0000
  Co  Co4       1.0  0.50000  0.50000  0.00000  1.0000
  Co  Co5       1.0  0.00000  0.00000  0.50000  1.0000
  Co  Co6       1.0  0.50000  0.00000  0.50000  1.0000
  Co  Co7       1.0  0.25000  0.50000  0.50000  1.0000
  Co  Co8       1.0  0.75000  0.50000  0.50000  1.0000
  O   O1        1.0  0.50000  0.00000  0.00000  1.0000
  O   O2        1.0  0.33500  0.23500  0.00000  1.0000
  O   O3        1.0  0.90000  0.23500  0.00000  1.0000
  O   O4        1.0  0.73300  0.46700  0.00000  1.0000
  O   O5        1.0  0.26700  0.53300  0.00000  1.0000
  O   O6        1.0  0.09980  0.76500  0.00000  1.0000
  O   O7        1.0  0.66500  0.76500  0.00000  1.0000
  O   O8        1.0  0.09980  0.00000  0.23500  1.0000
  O   O9        1.0  0.66500  0.00000  0.23500  1.0000
  O   O10       1.0  0.37900  0.50000  0.24100  1.0000
  O   O11       1.0  0.87900  0.50000  0.24100  1.0000
  O   O12       1.0  0.26700  0.00000  0.46700  1.0000
  O   O13       1.0  0.00000  0.50000  0.50000  1.0000
  O   O14       1.0  0.50000  0.50000  0.50000  1.0000
  O   O15       1.0  0.12100  0.24100  0.50000  1.0000
  O   O16       1.0  0.62100  0.24100  0.50000  1.0000
  O   O17       1.0  0.37900  0.75900  0.50000  1.0000
  O   O18       1.0  0.87900  0.75900  0.50000  1.0000
  O   O19       1.0  0.73300  0.00000  0.53300  1.0000
  O   O20       1.0  0.12100  0.50000  0.75900  1.0000
  O   O21       1.0  0.62100  0.50000  0.75900  1.0000
  O   O22       1.0  0.33500  0.00000  0.76500  1.0000
  O   O23       1.0  0.90000  0.00000  0.76500  1.0000
  Sr  Sr1       1.0  0.25500  0.75500  0.24500  1.0000
  Sr  Sr2       1.0  0.50000  0.24500  0.24500  1.0000
  Sr  Sr3       1.0  0.00000  0.26000  0.26000  1.0000
  Sr  Sr4       1.0  0.74000  0.74000  0.26000  1.0000
  Sr  Sr5       1.0  0.26000  0.26000  0.74000  1.0000
  Sr  Sr6       1.0  0.00000  0.74000  0.74000  1.0000
  Sr  Sr7       1.0  0.74500  0.24500  0.75500  1.0000
  Sr  Sr8       1.0  0.50000  0.75500  0.75500  1.0000
