data_image0
_chemical_formula_structural       O14Zr4
_chemical_formula_sum              "O14 Zr4"
_cell_length_a       5.66047
_cell_length_b       5.21595
_cell_length_c       10.2719
_cell_angle_alpha    98.568
_cell_angle_beta     90
_cell_angle_gamma    122.862

_space_group_name_H-M_alt    "P 1"
_space_group_IT_number       1

loop_
  _space_group_symop_operation_xyz
  'x, y, z'

loop_
  _atom_site_type_symbol
  _atom_site_label
  _atom_site_symmetry_multiplicity
  _atom_site_fract_x
  _atom_site_fract_y
  _atom_site_fract_z
  _atom_site_occupancy
  O   O1        1.0  0.89900  0.25300  0.00800  1.0000
  O   O2        1.0  0.46200  0.37400  0.02800  1.0000
  O   O3        1.0  0.92500  0.34000  0.23800  1.0000
  O   O4        1.0  0.32200  0.00000  0.25000  1.0000
  O   O5        1.0  0.58500  0.66000  0.26200  1.0000
  O   O6        1.0  0.08810  0.62600  0.47200  1.0000
  O   O7        1.0  0.64700  0.74700  0.49200  1.0000
  O   O8        1.0  0.35300  0.25300  0.50800  1.0000
  O   O9        1.0  0.91200  0.37400  0.52800  1.0000
  O   O10       1.0  0.41500  0.34000  0.73800  1.0000
  O   O11       1.0  0.67800  0.00000  0.75000  1.0000
  O   O12       1.0  0.07510  0.66000  0.76200  1.0000
  O   O13       1.0  0.53800  0.62600  0.97200  1.0000
  O   O14       1.0  0.10100  0.74700  0.99200  1.0000
  Zr  Zr1       1.0  0.25800  0.61400  0.14400  1.0000
  Zr  Zr2       1.0  0.64400  0.38600  0.35600  1.0000
  Zr  Zr3       1.0  0.35600  0.61400  0.64400  1.0000
  Zr  Zr4       1.0  0.74200  0.38600  0.85600  1.0000
