data_image0
_chemical_formula_structural       Na8O11Sc4
_chemical_formula_sum              "Na8 O11 Sc4"
_cell_length_a       11.2089
_cell_length_b       5.61952
_cell_length_c       5.69518
_cell_angle_alpha    99.4701
_cell_angle_beta     98.9068
_cell_angle_gamma    119.932

_space_group_name_H-M_alt    "P 1"
_space_group_IT_number       1

loop_
  _space_group_symop_operation_xyz
  'x, y, z'

loop_
  _atom_site_type_symbol
  _atom_site_label
  _atom_site_symmetry_multiplicity
  _atom_site_fract_x
  _atom_site_fract_y
  _atom_site_fract_z
  _atom_site_occupancy
  Na  Na1       1.0  0.74900  0.50300  0.00288  1.0000
  Na  Na2       1.0  0.82700  0.33200  0.49000  1.0000
  Na  Na3       1.0  0.66400  0.65600  0.49000  1.0000
  Na  Na4       1.0  0.50200  0.00371  0.50400  1.0000
  Na  Na5       1.0  0.17900  0.69500  0.50500  1.0000
  Na  Na6       1.0  0.99200  0.98400  0.50800  1.0000
  Na  Na7       1.0  0.34700  0.35300  0.51100  1.0000
  Na  Na8       1.0  0.25200  0.49800  0.97900  1.0000
  O   O1        1.0  0.78600  0.93700  0.21100  1.0000
  O   O2        1.0  0.46200  0.56900  0.21300  1.0000
  O   O3        1.0  0.97400  0.56100  0.21500  1.0000
  O   O4        1.0  0.60200  0.20900  0.21900  1.0000
  O   O5        1.0  0.28000  0.93900  0.21900  1.0000
  O   O6        1.0  0.03060  0.40500  0.76700  1.0000
  O   O7        1.0  0.70600  0.05870  0.77100  1.0000
  O   O8        1.0  0.39400  0.79300  0.77900  1.0000
  O   O9        1.0  0.21200  0.06500  0.78900  1.0000
  O   O10       1.0  0.53300  0.43200  0.79600  1.0000
  O   O11       1.0  0.91800  0.82900  0.83500  1.0000
  Sc  Sc1       1.0  0.57900  0.83600  0.00026  1.0000
  Sc  Sc2       1.0  0.41500  0.16500  0.00467  1.0000
  Sc  Sc3       1.0  0.89100  0.15600  0.97200  1.0000
  Sc  Sc4       1.0  0.08310  0.77900  0.97600  1.0000
