data_image0
_chemical_formula_structural       Ge10Na8O24
_chemical_formula_sum              "Ge10 Na8 O24"
_cell_length_a       5.58303
_cell_length_b       9.47989
_cell_length_c       10.1274
_cell_angle_alpha    71.8375
_cell_angle_beta     74.7102
_cell_angle_gamma    77.5855

_space_group_name_H-M_alt    "P 1"
_space_group_IT_number       1

loop_
  _space_group_symop_operation_xyz
  'x, y, z'

loop_
  _atom_site_type_symbol
  _atom_site_label
  _atom_site_symmetry_multiplicity
  _atom_site_fract_x
  _atom_site_fract_y
  _atom_site_fract_z
  _atom_site_occupancy
  Ge  Ge1       1.0  0.81500  0.73900  0.06740  1.0000
  Ge  Ge2       1.0  0.88900  0.40500  0.14900  1.0000
  Ge  Ge3       1.0  0.22000  0.09240  0.25700  1.0000
  Ge  Ge4       1.0  0.76600  0.89900  0.30600  1.0000
  Ge  Ge5       1.0  0.59900  0.57200  0.35600  1.0000
  Ge  Ge6       1.0  0.40100  0.42800  0.64400  1.0000
  Ge  Ge7       1.0  0.23400  0.10100  0.69400  1.0000
  Ge  Ge8       1.0  0.78000  0.90800  0.74300  1.0000
  Ge  Ge9       1.0  0.11100  0.59500  0.85100  1.0000
  Ge  Ge10      1.0  0.18500  0.26100  0.93300  1.0000
  Na  Na1       1.0  0.27800  0.89500  0.02710  1.0000
  Na  Na2       1.0  0.35600  0.56800  0.11100  1.0000
  Na  Na3       1.0  0.14100  0.40700  0.40200  1.0000
  Na  Na4       1.0  0.70400  0.19400  0.45900  1.0000
  Na  Na5       1.0  0.29600  0.80600  0.54100  1.0000
  Na  Na6       1.0  0.85900  0.59300  0.59800  1.0000
  Na  Na7       1.0  0.64400  0.43200  0.88900  1.0000
  Na  Na8       1.0  0.72200  0.10500  0.97300  1.0000
  O   O1        1.0  0.21900  0.42300  0.00731  1.0000
  O   O2        1.0  0.86600  0.26800  0.05660  1.0000
  O   O3        1.0  0.32600  0.10600  0.07650  1.0000
  O   O4        1.0  0.88200  0.89200  0.13000  1.0000
  O   O5        1.0  0.50600  0.72500  0.19600  1.0000
  O   O6        1.0  0.94000  0.56700  0.22000  1.0000
  O   O7        1.0  0.58200  0.41400  0.27500  1.0000
  O   O8        1.0  0.05880  0.26200  0.28900  1.0000
  O   O9        1.0  0.48500  0.03270  0.34000  1.0000
  O   O10       1.0  0.00407  0.95900  0.35800  1.0000
  O   O11       1.0  0.68900  0.72900  0.42000  1.0000
  O   O12       1.0  0.28500  0.57000  0.48200  1.0000
  O   O13       1.0  0.71500  0.43000  0.51800  1.0000
  O   O14       1.0  0.31100  0.27100  0.58000  1.0000
  O   O15       1.0  0.99600  0.04080  0.64200  1.0000
  O   O16       1.0  0.51500  0.96700  0.66000  1.0000
  O   O17       1.0  0.94100  0.73800  0.71100  1.0000
  O   O18       1.0  0.41800  0.58600  0.72500  1.0000
  O   O19       1.0  0.06030  0.43300  0.78000  1.0000
  O   O20       1.0  0.49400  0.27500  0.80400  1.0000
  O   O21       1.0  0.11800  0.10800  0.87000  1.0000
  O   O22       1.0  0.67400  0.89400  0.92300  1.0000
  O   O23       1.0  0.13400  0.73200  0.94300  1.0000
  O   O24       1.0  0.78100  0.57700  0.99300  1.0000
