data_image0
_chemical_formula_structural       Lu3O
_chemical_formula_sum              "Lu3 O1"
_cell_length_a       6.37032
_cell_length_b       6.37032
_cell_length_c       6.37032
_cell_angle_alpha    143.64
_cell_angle_beta     143.64
_cell_angle_gamma    52.3657

_space_group_name_H-M_alt    "P 1"
_space_group_IT_number       1

loop_
  _space_group_symop_operation_xyz
  'x, y, z'

loop_
  _atom_site_type_symbol
  _atom_site_label
  _atom_site_symmetry_multiplicity
  _atom_site_fract_x
  _atom_site_fract_y
  _atom_site_fract_z
  _atom_site_occupancy
  Lu  Lu1       1.0  0.75000  0.25000  0.50000  1.0000
  Lu  Lu2       1.0  0.25000  0.75000  0.50000  1.0000
  Lu  Lu3       1.0  0.50000  0.50000  0.00000  1.0000
  O   O1        1.0  0.00000  0.00000  0.00000  1.0000
