data_image0
_chemical_formula_structural       CF2Ho2
_chemical_formula_sum              "C1 F2 Ho2"
_cell_length_a       3.61679
_cell_length_b       3.61679
_cell_length_c       6.25793
_cell_angle_alpha    90.0921
_cell_angle_beta     90.0921
_cell_angle_gamma    60.071

_space_group_name_H-M_alt    "P 1"
_space_group_IT_number       1

loop_
  _space_group_symop_operation_xyz
  'x, y, z'

loop_
  _atom_site_type_symbol
  _atom_site_label
  _atom_site_symmetry_multiplicity
  _atom_site_fract_x
  _atom_site_fract_y
  _atom_site_fract_z
  _atom_site_occupancy
  C   C1        1.0  0.00000  0.00000  0.00000  1.0000
  F   F1        1.0  0.33300  0.33300  0.38600  1.0000
  F   F2        1.0  0.66700  0.66700  0.61400  1.0000
  Ho  Ho1       1.0  0.66700  0.66700  0.21300  1.0000
  Ho  Ho2       1.0  0.33300  0.33300  0.78700  1.0000
