data_image0
_chemical_formula_structural       As2CsRh2
_chemical_formula_sum              "As2 Cs1 Rh2"
_cell_length_a       4.04406
_cell_length_b       4.04406
_cell_length_c       7.90938
_cell_angle_alpha    104.812
_cell_angle_beta     104.812
_cell_angle_gamma    90

_space_group_name_H-M_alt    "P 1"
_space_group_IT_number       1

loop_
  _space_group_symop_operation_xyz
  'x, y, z'

loop_
  _atom_site_type_symbol
  _atom_site_label
  _atom_site_symmetry_multiplicity
  _atom_site_fract_x
  _atom_site_fract_y
  _atom_site_fract_z
  _atom_site_occupancy
  As  As1       1.0  0.65700  0.65700  0.31300  1.0000
  As  As2       1.0  0.34300  0.34300  0.68700  1.0000
  Cs  Cs1       1.0  0.00000  0.00000  0.00000  1.0000
  Rh  Rh1       1.0  0.75000  0.25000  0.50000  1.0000
  Rh  Rh2       1.0  0.25000  0.75000  0.50000  1.0000
