data_image0
_chemical_formula_structural       O11Sc4
_chemical_formula_sum              "O11 Sc4"
_cell_length_a       9.9353
_cell_length_b       5.84626
_cell_length_c       4.00038
_cell_angle_alpha    106.775
_cell_angle_beta     105.707
_cell_angle_gamma    118.303

_space_group_name_H-M_alt    "P 1"
_space_group_IT_number       1

loop_
  _space_group_symop_operation_xyz
  'x, y, z'

loop_
  _atom_site_type_symbol
  _atom_site_label
  _atom_site_symmetry_multiplicity
  _atom_site_fract_x
  _atom_site_fract_y
  _atom_site_fract_z
  _atom_site_occupancy
  O   O1        1.0  0.04010  0.47600  0.11000  1.0000
  O   O2        1.0  0.84200  0.07890  0.30400  1.0000
  O   O3        1.0  0.66600  0.33100  0.33600  1.0000
  O   O4        1.0  0.45500  0.69400  0.38700  1.0000
  O   O5        1.0  0.09410  0.13300  0.55200  1.0000
  O   O6        1.0  0.83100  0.58000  0.56200  1.0000
  O   O7        1.0  0.63600  0.97000  0.62300  1.0000
  O   O8        1.0  0.36600  0.31600  0.64400  1.0000
  O   O9        1.0  0.12000  0.04400  0.83800  1.0000
  O   O10       1.0  0.55900  0.49100  0.85300  1.0000
  O   O11       1.0  0.33100  0.86100  0.91800  1.0000
  Sc  Sc1       1.0  0.54100  0.85200  0.00754  1.0000
  Sc  Sc2       1.0  0.42000  0.27600  0.16400  1.0000
  Sc  Sc3       1.0  0.06560  0.57000  0.66300  1.0000
  Sc  Sc4       1.0  0.89000  0.03830  0.82100  1.0000
