data_image0
_chemical_formula_structural       Na2O39V18
_chemical_formula_sum              "Na2 O39 V18"
_cell_length_a       3.75433
_cell_length_b       11.0263
_cell_length_c       17.154
_cell_angle_alpha    103.496
_cell_angle_beta     90
_cell_angle_gamma    99.802

_space_group_name_H-M_alt    "P 1"
_space_group_IT_number       1

loop_
  _space_group_symop_operation_xyz
  'x, y, z'

loop_
  _atom_site_type_symbol
  _atom_site_label
  _atom_site_symmetry_multiplicity
  _atom_site_fract_x
  _atom_site_fract_y
  _atom_site_fract_z
  _atom_site_occupancy
  Na  Na1       1.0  0.73200  0.46300  0.30200  1.0000
  Na  Na2       1.0  0.26800  0.53700  0.69800  1.0000
  O   O1        1.0  0.50000  0.00000  0.00000  1.0000
  O   O2        1.0  0.22100  0.44200  0.03100  1.0000
  O   O3        1.0  0.62600  0.25200  0.05230  1.0000
  O   O4        1.0  0.34300  0.68600  0.09510  1.0000
  O   O5        1.0  0.06170  0.12300  0.12200  1.0000
  O   O6        1.0  0.75700  0.51400  0.12700  1.0000
  O   O7        1.0  0.47200  0.94400  0.14100  1.0000
  O   O8        1.0  0.19800  0.39600  0.19300  1.0000
  O   O9        1.0  0.91100  0.82200  0.20500  1.0000
  O   O10       1.0  0.60700  0.21400  0.21100  1.0000
  O   O11       1.0  0.32400  0.64800  0.23500  1.0000
  O   O12       1.0  0.04140  0.08270  0.28100  1.0000
  O   O13       1.0  0.44600  0.89100  0.30000  1.0000
  O   O14       1.0  0.16600  0.33200  0.32900  1.0000
  O   O15       1.0  0.88400  0.76900  0.35900  1.0000
  O   O16       1.0  0.29000  0.57900  0.37700  1.0000
  O   O17       1.0  0.00507  0.01010  0.42800  1.0000
  O   O18       1.0  0.73100  0.46100  0.45100  1.0000
  O   O19       1.0  0.42100  0.84200  0.45800  1.0000
  O   O20       1.0  0.13800  0.27500  0.47400  1.0000
  O   O21       1.0  0.86200  0.72500  0.52600  1.0000
  O   O22       1.0  0.57900  0.15800  0.54200  1.0000
  O   O23       1.0  0.26900  0.53900  0.54900  1.0000
  O   O24       1.0  0.99500  0.99000  0.57200  1.0000
  O   O25       1.0  0.71000  0.42100  0.62300  1.0000
  O   O26       1.0  0.11600  0.23100  0.64100  1.0000
  O   O27       1.0  0.83400  0.66800  0.67100  1.0000
  O   O28       1.0  0.55400  0.10900  0.70000  1.0000
  O   O29       1.0  0.95900  0.91700  0.71900  1.0000
  O   O30       1.0  0.67600  0.35200  0.76500  1.0000
  O   O31       1.0  0.39300  0.78600  0.78900  1.0000
  O   O32       1.0  0.08920  0.17800  0.79500  1.0000
  O   O33       1.0  0.80200  0.60400  0.80700  1.0000
  O   O34       1.0  0.52800  0.05610  0.85900  1.0000
  O   O35       1.0  0.24300  0.48600  0.87300  1.0000
  O   O36       1.0  0.93800  0.87700  0.87800  1.0000
  O   O37       1.0  0.65700  0.31400  0.90500  1.0000
  O   O38       1.0  0.37400  0.74800  0.94800  1.0000
  O   O39       1.0  0.77900  0.55800  0.96900  1.0000
  V   V1        1.0  0.69300  0.38700  0.02060  1.0000
  V   V2        1.0  0.55100  0.10200  0.09870  1.0000
  V   V3        1.0  0.26000  0.52000  0.15000  1.0000
  V   V4        1.0  0.40800  0.81700  0.17900  1.0000
  V   V5        1.0  0.11400  0.22800  0.23500  1.0000
  V   V6        1.0  0.97200  0.94400  0.31100  1.0000
  V   V7        1.0  0.36000  0.72000  0.35100  1.0000
  V   V8        1.0  0.20700  0.41400  0.44400  1.0000
  V   V9        1.0  0.93200  0.86500  0.47800  1.0000
  V   V10       1.0  0.06770  0.13500  0.52200  1.0000
  V   V11       1.0  0.79300  0.58600  0.55600  1.0000
  V   V12       1.0  0.64000  0.28000  0.64900  1.0000
  V   V13       1.0  0.02790  0.05580  0.68900  1.0000
  V   V14       1.0  0.88600  0.77200  0.76500  1.0000
  V   V15       1.0  0.59200  0.18300  0.82100  1.0000
  V   V16       1.0  0.74000  0.48000  0.85000  1.0000
  V   V17       1.0  0.44900  0.89800  0.90100  1.0000
  V   V18       1.0  0.30700  0.61300  0.97900  1.0000
