data_image0
_chemical_formula_structural       B3Ba3F30P3
_chemical_formula_sum              "B3 Ba3 F30 P3"
_cell_length_a       10.0389
_cell_length_b       10.0389
_cell_length_c       6.06913
_cell_angle_alpha    90
_cell_angle_beta     90
_cell_angle_gamma    120.018

_space_group_name_H-M_alt    "P 1"
_space_group_IT_number       1

loop_
  _space_group_symop_operation_xyz
  'x, y, z'

loop_
  _atom_site_type_symbol
  _atom_site_label
  _atom_site_symmetry_multiplicity
  _atom_site_fract_x
  _atom_site_fract_y
  _atom_site_fract_z
  _atom_site_occupancy
  B   B1        1.0  0.24500  0.00000  0.00000  1.0000
  B   B2        1.0  0.00000  0.24500  0.00000  1.0000
  B   B3        1.0  0.75500  0.75500  0.00000  1.0000
  Ba  Ba1       1.0  0.66700  0.33300  0.00000  1.0000
  Ba  Ba2       1.0  0.33300  0.66700  0.00000  1.0000
  Ba  Ba3       1.0  0.00000  0.00000  0.50000  1.0000
  F   F1        1.0  0.39100  0.13200  0.00000  1.0000
  F   F2        1.0  0.86800  0.25900  0.00000  1.0000
  F   F3        1.0  0.13200  0.39100  0.00000  1.0000
  F   F4        1.0  0.74100  0.60900  0.00000  1.0000
  F   F5        1.0  0.60900  0.74100  0.00000  1.0000
  F   F6        1.0  0.25900  0.86800  0.00000  1.0000
  F   F7        1.0  0.83300  0.83300  0.18900  1.0000
  F   F8        1.0  0.16700  0.00000  0.18900  1.0000
  F   F9        1.0  0.00000  0.16700  0.18900  1.0000
  F   F10       1.0  0.50200  0.37000  0.31000  1.0000
  F   F11       1.0  0.37000  0.50200  0.31000  1.0000
  F   F12       1.0  0.63000  0.13300  0.31000  1.0000
  F   F13       1.0  0.13300  0.63000  0.31000  1.0000
  F   F14       1.0  0.86700  0.49800  0.31000  1.0000
  F   F15       1.0  0.49800  0.86700  0.31000  1.0000
  F   F16       1.0  0.40200  0.00000  0.50000  1.0000
  F   F17       1.0  0.72400  0.00000  0.50000  1.0000
  F   F18       1.0  0.27600  0.27600  0.50000  1.0000
  F   F19       1.0  0.00000  0.40200  0.50000  1.0000
  F   F20       1.0  0.59800  0.59800  0.50000  1.0000
  F   F21       1.0  1.00000  0.72400  0.50000  1.0000
  F   F22       1.0  0.86700  0.49800  0.69000  1.0000
  F   F23       1.0  0.49800  0.86700  0.69000  1.0000
  F   F24       1.0  0.63000  0.13300  0.69000  1.0000
  F   F25       1.0  0.13300  0.63000  0.69000  1.0000
  F   F26       1.0  0.50200  0.37000  0.69000  1.0000
  F   F27       1.0  0.37000  0.50200  0.69000  1.0000
  F   F28       1.0  0.16700  0.00000  0.81100  1.0000
  F   F29       1.0  0.00000  0.16700  0.81100  1.0000
  F   F30       1.0  0.83300  0.83300  0.81100  1.0000
  P   P1        1.0  0.56200  0.00000  0.50000  1.0000
  P   P2        1.0  0.43800  0.43800  0.50000  1.0000
  P   P3        1.0  0.00000  0.56200  0.50000  1.0000
