data_image0
_chemical_formula_structural       Ni20P13Y6
_chemical_formula_sum              "Ni20 P13 Y6"
_cell_length_a       12.6444
_cell_length_b       12.6444
_cell_length_c       3.74799
_cell_angle_alpha    90
_cell_angle_beta     90
_cell_angle_gamma    119.998

_space_group_name_H-M_alt    "P 1"
_space_group_IT_number       1

loop_
  _space_group_symop_operation_xyz
  'x, y, z'

loop_
  _atom_site_type_symbol
  _atom_site_label
  _atom_site_symmetry_multiplicity
  _atom_site_fract_x
  _atom_site_fract_y
  _atom_site_fract_z
  _atom_site_occupancy
  Ni  Ni1       1.0  0.58400  0.02160  0.00000  1.0000
  Ni  Ni2       1.0  0.19600  0.09030  0.00000  1.0000
  Ni  Ni3       1.0  0.91000  0.10500  0.00000  1.0000
  Ni  Ni4       1.0  0.07780  0.32000  0.00000  1.0000
  Ni  Ni5       1.0  0.43800  0.41600  0.00000  1.0000
  Ni  Ni6       1.0  0.97800  0.56200  0.00000  1.0000
  Ni  Ni7       1.0  0.33300  0.66700  0.00000  1.0000
  Ni  Ni8       1.0  0.68000  0.75700  0.00000  1.0000
  Ni  Ni9       1.0  0.89500  0.80400  0.00000  1.0000
  Ni  Ni10      1.0  0.24300  0.92200  0.00000  1.0000
  Ni  Ni11      1.0  0.75400  0.07160  0.50000  1.0000
  Ni  Ni12      1.0  0.08120  0.15300  0.50000  1.0000
  Ni  Ni13      1.0  0.31800  0.24600  0.50000  1.0000
  Ni  Ni14      1.0  0.66700  0.33300  0.50000  1.0000
  Ni  Ni15      1.0  0.02230  0.43600  0.50000  1.0000
  Ni  Ni16      1.0  0.56400  0.58700  0.50000  1.0000
  Ni  Ni17      1.0  0.92800  0.68200  0.50000  1.0000
  Ni  Ni18      1.0  0.07230  0.91900  0.50000  1.0000
  Ni  Ni19      1.0  0.84700  0.92800  0.50000  1.0000
  Ni  Ni20      1.0  0.41300  0.97800  0.50000  1.0000
  P   P1        1.0  0.00000  0.00000  0.00000  1.0000
  P   P2        1.0  0.23400  0.28200  0.00000  1.0000
  P   P3        1.0  0.13800  0.52400  0.00000  1.0000
  P   P4        1.0  0.47600  0.61400  0.00000  1.0000
  P   P5        1.0  0.04790  0.76600  0.00000  1.0000
  P   P6        1.0  0.38600  0.86200  0.00000  1.0000
  P   P7        1.0  0.71800  0.95200  0.00000  1.0000
  P   P8        1.0  0.27800  0.04560  0.50000  1.0000
  P   P9        1.0  0.61400  0.13700  0.50000  1.0000
  P   P10       1.0  0.95400  0.23300  0.50000  1.0000
  P   P11       1.0  0.52300  0.38600  0.50000  1.0000
  P   P12       1.0  0.86300  0.47700  0.50000  1.0000
  P   P13       1.0  0.76700  0.72200  0.50000  1.0000
  Y   Y1        1.0  0.47000  0.18800  0.00000  1.0000
  Y   Y2        1.0  0.81200  0.28300  0.00000  1.0000
  Y   Y3        1.0  0.71700  0.53000  0.00000  1.0000
  Y   Y4        1.0  0.28100  0.46900  0.50000  1.0000
  Y   Y5        1.0  0.18800  0.71900  0.50000  1.0000
  Y   Y6        1.0  0.53100  0.81200  0.50000  1.0000
