data_image0
_chemical_formula_structural       Ge8Na24O28
_chemical_formula_sum              "Ge8 Na24 O28"
_cell_length_a       9.07411
_cell_length_b       6.08154
_cell_length_c       14.8775
_cell_angle_alpha    90
_cell_angle_beta     97.3943
_cell_angle_gamma    90

_space_group_name_H-M_alt    "P 1"
_space_group_IT_number       1

loop_
  _space_group_symop_operation_xyz
  'x, y, z'

loop_
  _atom_site_type_symbol
  _atom_site_label
  _atom_site_symmetry_multiplicity
  _atom_site_fract_x
  _atom_site_fract_y
  _atom_site_fract_z
  _atom_site_occupancy
  Ge  Ge1       1.0  0.67200  0.34200  0.09750  1.0000
  Ge  Ge2       1.0  0.01950  0.19400  0.17200  1.0000
  Ge  Ge3       1.0  0.48000  0.69400  0.32800  1.0000
  Ge  Ge4       1.0  0.82800  0.84200  0.40200  1.0000
  Ge  Ge5       1.0  0.17200  0.15800  0.59800  1.0000
  Ge  Ge6       1.0  0.52000  0.30600  0.67200  1.0000
  Ge  Ge7       1.0  0.98000  0.80600  0.82800  1.0000
  Ge  Ge8       1.0  0.32800  0.65800  0.90200  1.0000
  Na  Na1       1.0  0.79200  0.86500  0.01130  1.0000
  Na  Na2       1.0  0.07700  0.69800  0.03660  1.0000
  Na  Na3       1.0  0.35700  0.49000  0.10100  1.0000
  Na  Na4       1.0  0.49300  0.88500  0.10900  1.0000
  Na  Na5       1.0  0.81400  0.72100  0.20600  1.0000
  Na  Na6       1.0  0.13300  0.65600  0.24000  1.0000
  Na  Na7       1.0  0.36700  0.15600  0.26000  1.0000
  Na  Na8       1.0  0.68600  0.22100  0.29400  1.0000
  Na  Na9       1.0  0.00695  0.38500  0.39100  1.0000
  Na  Na10      1.0  0.14300  0.99000  0.39900  1.0000
  Na  Na11      1.0  0.42300  0.19800  0.46300  1.0000
  Na  Na12      1.0  0.70800  0.36500  0.48900  1.0000
  Na  Na13      1.0  0.29200  0.63500  0.51100  1.0000
  Na  Na14      1.0  0.57700  0.80200  0.53700  1.0000
  Na  Na15      1.0  0.85700  0.01030  0.60100  1.0000
  Na  Na16      1.0  0.99300  0.61500  0.60900  1.0000
  Na  Na17      1.0  0.31400  0.77900  0.70600  1.0000
  Na  Na18      1.0  0.63300  0.84400  0.74000  1.0000
  Na  Na19      1.0  0.86700  0.34400  0.76000  1.0000
  Na  Na20      1.0  0.18600  0.27900  0.79400  1.0000
  Na  Na21      1.0  0.50700  0.11500  0.89100  1.0000
  Na  Na22      1.0  0.64300  0.51000  0.89900  1.0000
  Na  Na23      1.0  0.92300  0.30200  0.96300  1.0000
  Na  Na24      1.0  0.20800  0.13500  0.98900  1.0000
  O   O1        1.0  0.30000  0.80000  0.00115  1.0000
  O   O2        1.0  0.65100  0.62400  0.07520  1.0000
  O   O3        1.0  0.10200  0.35100  0.09010  1.0000
  O   O4        1.0  0.98500  0.92200  0.13500  1.0000
  O   O5        1.0  0.52900  0.23200  0.15400  1.0000
  O   O6        1.0  0.83900  0.32500  0.18500  1.0000
  O   O7        1.0  0.37200  0.73900  0.22400  1.0000
  O   O8        1.0  0.12800  0.23900  0.27600  1.0000
  O   O9        1.0  0.66100  0.82500  0.31500  1.0000
  O   O10       1.0  0.97100  0.73200  0.34600  1.0000
  O   O11       1.0  0.51500  0.42100  0.36500  1.0000
  O   O12       1.0  0.39800  0.85100  0.41000  1.0000
  O   O13       1.0  0.84900  0.12400  0.42500  1.0000
  O   O14       1.0  0.20000  0.30000  0.49900  1.0000
  O   O15       1.0  0.80000  0.70000  0.50100  1.0000
  O   O16       1.0  0.15100  0.87600  0.57500  1.0000
  O   O17       1.0  0.60200  0.14900  0.59000  1.0000
  O   O18       1.0  0.48500  0.57800  0.63500  1.0000
  O   O19       1.0  0.02910  0.26800  0.65400  1.0000
  O   O20       1.0  0.33900  0.17500  0.68500  1.0000
  O   O21       1.0  0.87200  0.76100  0.72400  1.0000
  O   O22       1.0  0.62800  0.26100  0.77600  1.0000
  O   O23       1.0  0.16100  0.67500  0.81500  1.0000
  O   O24       1.0  0.47100  0.76800  0.84600  1.0000
  O   O25       1.0  0.01510  0.07850  0.86500  1.0000
  O   O26       1.0  0.89800  0.64900  0.91000  1.0000
  O   O27       1.0  0.34900  0.37600  0.92500  1.0000
  O   O28       1.0  0.70000  0.20000  0.99900  1.0000
