data_image0
_chemical_formula_structural       Al12C18Hf9
_chemical_formula_sum              "Al12 C18 Hf9"
_cell_length_a       3.31886
_cell_length_b       3.31882
_cell_length_c       48.9513
_cell_angle_alpha    90
_cell_angle_beta     89.9999
_cell_angle_gamma    120

_space_group_name_H-M_alt    "P 1"
_space_group_IT_number       1

loop_
  _space_group_symop_operation_xyz
  'x, y, z'

loop_
  _atom_site_type_symbol
  _atom_site_label
  _atom_site_symmetry_multiplicity
  _atom_site_fract_x
  _atom_site_fract_y
  _atom_site_fract_z
  _atom_site_occupancy
  Al  Al1       1.0  0.66700  0.33300  0.10100  1.0000
  Al  Al2       1.0  0.00000  0.00000  0.14800  1.0000
  Al  Al3       1.0  0.66700  0.33300  0.18600  1.0000
  Al  Al4       1.0  0.00000  0.00000  0.23200  1.0000
  Al  Al5       1.0  0.33300  0.66700  0.43500  1.0000
  Al  Al6       1.0  0.66700  0.33300  0.48100  1.0000
  Al  Al7       1.0  0.33300  0.66700  0.51900  1.0000
  Al  Al8       1.0  0.66700  0.33300  0.56500  1.0000
  Al  Al9       1.0  0.00000  0.00000  0.76800  1.0000
  Al  Al10      1.0  0.33300  0.66700  0.81400  1.0000
  Al  Al11      1.0  0.00000  0.00000  0.85200  1.0000
  Al  Al12      1.0  0.33300  0.66700  0.89900  1.0000
  C   C1        1.0  0.66700  0.33300  0.02740  1.0000
  C   C2        1.0  0.00000  0.00000  0.08260  1.0000
  C   C3        1.0  0.66700  0.33300  0.14100  1.0000
  C   C4        1.0  0.00000  0.00000  0.19200  1.0000
  C   C5        1.0  0.66700  0.33300  0.25100  1.0000
  C   C6        1.0  0.00000  0.00000  0.30600  1.0000
  C   C7        1.0  0.33300  0.66700  0.36100  1.0000
  C   C8        1.0  0.66700  0.33300  0.41600  1.0000
  C   C9        1.0  0.33300  0.66700  0.47400  1.0000
  C   C10       1.0  0.66700  0.33300  0.52600  1.0000
  C   C11       1.0  0.33300  0.66700  0.58400  1.0000
  C   C12       1.0  0.66700  0.33300  0.63900  1.0000
  C   C13       1.0  0.00000  0.00000  0.69400  1.0000
  C   C14       1.0  0.33300  0.66700  0.74900  1.0000
  C   C15       1.0  0.00000  0.00000  0.80800  1.0000
  C   C16       1.0  0.33300  0.66700  0.85900  1.0000
  C   C17       1.0  0.00000  0.00000  0.91700  1.0000
  C   C18       1.0  0.33300  0.66700  0.97300  1.0000
  Hf  Hf1       1.0  0.00000  0.00000  0.00000  1.0000
  Hf  Hf2       1.0  0.33300  0.66700  0.05440  1.0000
  Hf  Hf3       1.0  0.33300  0.66700  0.27900  1.0000
  Hf  Hf4       1.0  0.66700  0.33300  0.33300  1.0000
  Hf  Hf5       1.0  0.00000  0.00000  0.38800  1.0000
  Hf  Hf6       1.0  0.00000  0.00000  0.61200  1.0000
  Hf  Hf7       1.0  0.33300  0.66700  0.66700  1.0000
  Hf  Hf8       1.0  0.66700  0.33300  0.72100  1.0000
  Hf  Hf9       1.0  0.66700  0.33300  0.94600  1.0000
