data_image0
_chemical_formula_structural       Mo6O24Rb8Zr
_chemical_formula_sum              "Mo6 O24 Rb8 Zr1"
_cell_length_a       7.88819
_cell_length_b       9.88341
_cell_length_c       10.5853
_cell_angle_alpha    62.1701
_cell_angle_beta     98.1616
_cell_angle_gamma    107.704

_space_group_name_H-M_alt    "P 1"
_space_group_IT_number       1

loop_
  _space_group_symop_operation_xyz
  'x, y, z'

loop_
  _atom_site_type_symbol
  _atom_site_label
  _atom_site_symmetry_multiplicity
  _atom_site_fract_x
  _atom_site_fract_y
  _atom_site_fract_z
  _atom_site_occupancy
  Mo  Mo1       1.0  0.20900  0.39400  0.00000  1.0000
  Mo  Mo2       1.0  0.79100  0.60600  0.00000  1.0000
  Mo  Mo3       1.0  0.70400  0.74000  0.31800  1.0000
  Mo  Mo4       1.0  0.29600  0.94200  0.31800  1.0000
  Mo  Mo5       1.0  0.70400  0.05800  0.68200  1.0000
  Mo  Mo6       1.0  0.29600  0.26000  0.68200  1.0000
  O   O1        1.0  0.02940  0.22100  0.00000  1.0000
  O   O2        1.0  0.41000  0.35100  0.00000  1.0000
  O   O3        1.0  0.59000  0.64900  0.00000  1.0000
  O   O4        1.0  0.97100  0.77900  0.00000  1.0000
  O   O5        1.0  0.80100  0.91800  0.15200  1.0000
  O   O6        1.0  0.19900  0.93000  0.15200  1.0000
  O   O7        1.0  0.19700  0.42200  0.15200  1.0000
  O   O8        1.0  0.80300  0.42600  0.15200  1.0000
  O   O9        1.0  0.53100  0.01920  0.30400  1.0000
  O   O10       1.0  0.46900  0.67600  0.30400  1.0000
  O   O11       1.0  0.20900  0.07190  0.34300  1.0000
  O   O12       1.0  0.79100  0.58600  0.34300  1.0000
  O   O13       1.0  0.22800  0.75600  0.46900  1.0000
  O   O14       1.0  0.77200  0.77500  0.46900  1.0000
  O   O15       1.0  0.22800  0.22500  0.53100  1.0000
  O   O16       1.0  0.77200  0.24400  0.53100  1.0000
  O   O17       1.0  0.20900  0.41400  0.65700  1.0000
  O   O18       1.0  0.79100  0.92800  0.65700  1.0000
  O   O19       1.0  0.53100  0.32400  0.69600  1.0000
  O   O20       1.0  0.46900  0.98100  0.69600  1.0000
  O   O21       1.0  0.19700  0.57400  0.84800  1.0000
  O   O22       1.0  0.80300  0.57800  0.84800  1.0000
  O   O23       1.0  0.80100  0.06970  0.84800  1.0000
  O   O24       1.0  0.19900  0.08220  0.84800  1.0000
  Rb  Rb1       1.0  0.65000  0.20400  0.00000  1.0000
  Rb  Rb2       1.0  0.35000  0.79600  0.00000  1.0000
  Rb  Rb3       1.0  0.50000  0.33700  0.32600  1.0000
  Rb  Rb4       1.0  0.89600  0.13700  0.34800  1.0000
  Rb  Rb5       1.0  0.10400  0.51500  0.34800  1.0000
  Rb  Rb6       1.0  0.89600  0.48500  0.65200  1.0000
  Rb  Rb7       1.0  0.10400  0.86300  0.65200  1.0000
  Rb  Rb8       1.0  0.50000  0.66300  0.67400  1.0000
  Zr  Zr1       1.0  0.00000  0.00000  0.00000  1.0000
