data_image0
_chemical_formula_structural       S6Zr2
_chemical_formula_sum              "S6 Zr2"
_cell_length_a       5.17523
_cell_length_b       3.64888
_cell_length_c       9.15442
_cell_angle_alpha    90
_cell_angle_beta     97.0827
_cell_angle_gamma    90

_space_group_name_H-M_alt    "P 1"
_space_group_IT_number       1

loop_
  _space_group_symop_operation_xyz
  'x, y, z'

loop_
  _atom_site_type_symbol
  _atom_site_label
  _atom_site_symmetry_multiplicity
  _atom_site_fract_x
  _atom_site_fract_y
  _atom_site_fract_z
  _atom_site_occupancy
  S   S1        1.0  0.87700  0.25000  0.17200  1.0000
  S   S2        1.0  0.47600  0.25000  0.17400  1.0000
  S   S3        1.0  0.23800  0.75000  0.44500  1.0000
  S   S4        1.0  0.76200  0.25000  0.55500  1.0000
  S   S5        1.0  0.52400  0.75000  0.82600  1.0000
  S   S6        1.0  0.12300  0.75000  0.82800  1.0000
  Zr  Zr1       1.0  0.71700  0.75000  0.34700  1.0000
  Zr  Zr2       1.0  0.28300  0.25000  0.65300  1.0000
