data_image0
_chemical_formula_structural       O11Y4
_chemical_formula_sum              "O11 Y4"
_cell_length_a       11.4812
_cell_length_b       6.05084
_cell_length_c       4.28876
_cell_angle_alpha    89.8176
_cell_angle_beta     130.626
_cell_angle_gamma    119.54

_space_group_name_H-M_alt    "P 1"
_space_group_IT_number       1

loop_
  _space_group_symop_operation_xyz
  'x, y, z'

loop_
  _atom_site_type_symbol
  _atom_site_label
  _atom_site_symmetry_multiplicity
  _atom_site_fract_x
  _atom_site_fract_y
  _atom_site_fract_z
  _atom_site_occupancy
  O   O1        1.0  0.13100  0.43500  0.04280  1.0000
  O   O2        1.0  0.42200  0.60200  0.05840  1.0000
  O   O3        1.0  0.90200  0.47900  0.12800  1.0000
  O   O4        1.0  0.78200  0.86600  0.23700  1.0000
  O   O5        1.0  0.71200  0.21900  0.36700  1.0000
  O   O6        1.0  0.37900  0.06050  0.46900  1.0000
  O   O7        1.0  0.15200  0.98900  0.58300  1.0000
  O   O8        1.0  0.81600  0.80300  0.61200  1.0000
  O   O9        1.0  0.51600  0.39600  0.70600  1.0000
  O   O10       1.0  0.73500  0.17700  0.73200  1.0000
  O   O11       1.0  0.33700  0.75300  0.90500  1.0000
  Y   Y1        1.0  0.48800  0.27200  0.15900  1.0000
  Y   Y2        1.0  0.04690  0.23700  0.38500  1.0000
  Y   Y3        1.0  0.47300  0.77000  0.65000  1.0000
  Y   Y4        1.0  0.03270  0.72000  0.85300  1.0000
