data_image0
_chemical_formula_structural       Ge8La24
_chemical_formula_sum              "Ge8 La24"
_cell_length_a       12.6401
_cell_length_b       12.6401
_cell_length_c       6.25574
_cell_angle_alpha    90
_cell_angle_beta     90
_cell_angle_gamma    90

_space_group_name_H-M_alt    "P 1"
_space_group_IT_number       1

loop_
  _space_group_symop_operation_xyz
  'x, y, z'

loop_
  _atom_site_type_symbol
  _atom_site_label
  _atom_site_symmetry_multiplicity
  _atom_site_fract_x
  _atom_site_fract_y
  _atom_site_fract_z
  _atom_site_occupancy
  Ge  Ge1       1.0  0.04620  0.29900  0.47600  1.0000
  Ge  Ge2       1.0  0.45400  0.20100  0.47600  1.0000
  Ge  Ge3       1.0  0.70100  0.54600  0.97600  1.0000
  Ge  Ge4       1.0  0.79900  0.95400  0.97600  1.0000
  Ge  Ge5       1.0  0.95400  0.70100  0.52400  1.0000
  Ge  Ge6       1.0  0.54600  0.79900  0.52400  1.0000
  Ge  Ge7       1.0  0.29900  0.45400  0.02370  1.0000
  Ge  Ge8       1.0  0.20100  0.04620  0.02370  1.0000
  La  La1       1.0  0.52700  0.42300  0.25300  1.0000
  La  La2       1.0  0.97300  0.07670  0.25300  1.0000
  La  La3       1.0  0.57700  0.02700  0.75300  1.0000
  La  La4       1.0  0.92300  0.47300  0.75300  1.0000
  La  La5       1.0  0.47300  0.57700  0.74700  1.0000
  La  La6       1.0  0.02700  0.92300  0.74700  1.0000
  La  La7       1.0  0.42300  0.97300  0.24700  1.0000
  La  La8       1.0  0.07670  0.52700  0.24700  1.0000
  La  La9       1.0  0.63400  0.33100  0.73200  1.0000
  La  La10      1.0  0.86600  0.16900  0.73200  1.0000
  La  La11      1.0  0.66900  0.13400  0.23200  1.0000
  La  La12      1.0  0.83100  0.36600  0.23200  1.0000
  La  La13      1.0  0.36600  0.66900  0.26800  1.0000
  La  La14      1.0  0.13400  0.83100  0.26800  1.0000
  La  La15      1.0  0.33100  0.86600  0.76800  1.0000
  La  La16      1.0  0.16900  0.63400  0.76800  1.0000
  La  La17      1.0  0.28400  0.38700  0.51500  1.0000
  La  La18      1.0  0.21600  0.11300  0.51500  1.0000
  La  La19      1.0  0.61300  0.78400  0.01530  1.0000
  La  La20      1.0  0.88700  0.71600  0.01530  1.0000
  La  La21      1.0  0.71600  0.61300  0.48500  1.0000
  La  La22      1.0  0.78400  0.88700  0.48500  1.0000
  La  La23      1.0  0.38700  0.21600  0.98500  1.0000
  La  La24      1.0  0.11300  0.28400  0.98500  1.0000
