data_image0
_chemical_formula_structural       F6Np2
_chemical_formula_sum              "F6 Np2"
_cell_length_a       4.0752
_cell_length_b       4.05278
_cell_length_c       7.15988
_cell_angle_alpha    90
_cell_angle_beta     90
_cell_angle_gamma    119.818

_space_group_name_H-M_alt    "P 1"
_space_group_IT_number       1

loop_
  _space_group_symop_operation_xyz
  'x, y, z'

loop_
  _atom_site_type_symbol
  _atom_site_label
  _atom_site_symmetry_multiplicity
  _atom_site_fract_x
  _atom_site_fract_y
  _atom_site_fract_z
  _atom_site_occupancy
  F   F1        1.0  0.66700  0.33300  0.08050  1.0000
  F   F2        1.0  0.00019  0.00009  0.25000  1.0000
  F   F3        1.0  0.66700  0.33300  0.41900  1.0000
  F   F4        1.0  0.33300  0.66700  0.58100  1.0000
  F   F5        1.0  0.00000  0.00000  0.75000  1.0000
  F   F6        1.0  0.33300  0.66700  0.91900  1.0000
  Np  Np1       1.0  0.33500  0.66700  0.25000  1.0000
  Np  Np2       1.0  0.66500  0.33300  0.75000  1.0000
