data_image0
_chemical_formula_structural       HgK2O2
_chemical_formula_sum              "Hg1 K2 O2"
_cell_length_a       3.89219
_cell_length_b       3.89219
_cell_length_c       7.53983
_cell_angle_alpha    104.958
_cell_angle_beta     104.958
_cell_angle_gamma    90

_space_group_name_H-M_alt    "P 1"
_space_group_IT_number       1

loop_
  _space_group_symop_operation_xyz
  'x, y, z'

loop_
  _atom_site_type_symbol
  _atom_site_label
  _atom_site_symmetry_multiplicity
  _atom_site_fract_x
  _atom_site_fract_y
  _atom_site_fract_z
  _atom_site_occupancy
  Hg  Hg1       1.0  0.00000  0.00000  0.00000  1.0000
  K   K1        1.0  0.66900  0.66900  0.33900  1.0000
  K   K2        1.0  0.33100  0.33100  0.66100  1.0000
  O   O1        1.0  0.14300  0.14300  0.28500  1.0000
  O   O2        1.0  0.85700  0.85700  0.71500  1.0000
