data_image0
_chemical_formula_structural       C6FeH24I2O6
_chemical_formula_sum              "C6 Fe1 H24 I2 O6"
_cell_length_a       8.17317
_cell_length_b       8.17876
_cell_length_c       6.75376
_cell_angle_alpha    89.9824
_cell_angle_beta     90.0196
_cell_angle_gamma    119.875

_space_group_name_H-M_alt    "P 1"
_space_group_IT_number       1

loop_
  _space_group_symop_operation_xyz
  'x, y, z'

loop_
  _atom_site_type_symbol
  _atom_site_label
  _atom_site_symmetry_multiplicity
  _atom_site_fract_x
  _atom_site_fract_y
  _atom_site_fract_z
  _atom_site_occupancy
  C   C1        1.0  0.35900  0.20500  0.27900  1.0000
  C   C2        1.0  0.79700  0.15300  0.28100  1.0000
  C   C3        1.0  0.84500  0.64000  0.28200  1.0000
  C   C4        1.0  0.15500  0.36000  0.71800  1.0000
  C   C5        1.0  0.20300  0.84700  0.71900  1.0000
  C   C6        1.0  0.64100  0.79500  0.72100  1.0000
  Fe  Fe1       1.0  0.00000  0.00000  0.00000  1.0000
  H   H1        1.0  0.73300  0.55900  0.17300  1.0000
  H   H2        1.0  0.44300  0.17300  0.17500  1.0000
  H   H3        1.0  0.82700  0.26700  0.17600  1.0000
  H   H4        1.0  0.65300  0.88900  0.17600  1.0000
  H   H5        1.0  0.23500  0.34800  0.18100  1.0000
  H   H6        1.0  0.11100  0.76600  0.18300  1.0000
  H   H7        1.0  0.45200  0.34100  0.35100  1.0000
  H   H8        1.0  0.88800  0.54800  0.35300  1.0000
  H   H9        1.0  0.66200  0.11000  0.35500  1.0000
  H   H10       1.0  0.29500  0.09370  0.39100  1.0000
  H   H11       1.0  0.90900  0.20200  0.39200  1.0000
  H   H12       1.0  0.79200  0.69900  0.39400  1.0000
  H   H13       1.0  0.20800  0.30100  0.60600  1.0000
  H   H14       1.0  0.09070  0.79800  0.60800  1.0000
  H   H15       1.0  0.70500  0.90600  0.60900  1.0000
  H   H16       1.0  0.33800  0.89000  0.64500  1.0000
  H   H17       1.0  0.11200  0.45200  0.64700  1.0000
  H   H18       1.0  0.54800  0.65900  0.64900  1.0000
  H   H19       1.0  0.88900  0.23400  0.81700  1.0000
  H   H20       1.0  0.76500  0.65200  0.81900  1.0000
  H   H21       1.0  0.34700  0.11100  0.82400  1.0000
  H   H22       1.0  0.17300  0.73300  0.82400  1.0000
  H   H23       1.0  0.55700  0.82700  0.82500  1.0000
  H   H24       1.0  0.26700  0.44100  0.82700  1.0000
  I   I1        1.0  0.33300  0.66800  0.23700  1.0000
  I   I2        1.0  0.66700  0.33200  0.76300  1.0000
  O   O1        1.0  0.21200  0.21600  0.17400  1.0000
  O   O2        1.0  0.78600  0.99400  0.17800  1.0000
  O   O3        1.0  0.00480  0.79300  0.18500  1.0000
  O   O4        1.0  0.99500  0.20700  0.81500  1.0000
  O   O5        1.0  0.21400  0.00596  0.82200  1.0000
  O   O6        1.0  0.78800  0.78400  0.82600  1.0000
