data_image0
_chemical_formula_structural       CeGe3Rh
_chemical_formula_sum              "Ce1 Ge3 Rh1"
_cell_length_a       4.4525
_cell_length_b       4.4525
_cell_length_c       5.97505
_cell_angle_alpha    111.875
_cell_angle_beta     111.875
_cell_angle_gamma    90

_space_group_name_H-M_alt    "P 1"
_space_group_IT_number       1

loop_
  _space_group_symop_operation_xyz
  'x, y, z'

loop_
  _atom_site_type_symbol
  _atom_site_label
  _atom_site_symmetry_multiplicity
  _atom_site_fract_x
  _atom_site_fract_y
  _atom_site_fract_z
  _atom_site_occupancy
  Ce  Ce1       1.0  0.42000  0.42000  0.84100  1.0000
  Ge  Ge1       1.0  0.00021  0.00021  0.00043  1.0000
  Ge  Ge2       1.0  0.65800  0.15800  0.31600  1.0000
  Ge  Ge3       1.0  0.15800  0.65800  0.31600  1.0000
  Rh  Rh1       1.0  0.76200  0.76200  0.52400  1.0000
