data_image0
_chemical_formula_structural       BaPtSi3
_chemical_formula_sum              "Ba1 Pt1 Si3"
_cell_length_a       4.4432
_cell_length_b       4.4432
_cell_length_c       5.95114
_cell_angle_alpha    111.92
_cell_angle_beta     111.92
_cell_angle_gamma    90

_space_group_name_H-M_alt    "P 1"
_space_group_IT_number       1

loop_
  _space_group_symop_operation_xyz
  'x, y, z'

loop_
  _atom_site_type_symbol
  _atom_site_label
  _atom_site_symmetry_multiplicity
  _atom_site_fract_x
  _atom_site_fract_y
  _atom_site_fract_z
  _atom_site_occupancy
  Ba  Ba1       1.0  0.60100  0.60100  0.20300  1.0000
  Pt  Pt1       1.0  0.24900  0.24900  0.49900  1.0000
  Si  Si1       1.0  0.99400  0.99400  0.98800  1.0000
  Si  Si2       1.0  0.85700  0.35700  0.71400  1.0000
  Si  Si3       1.0  0.35700  0.85700  0.71400  1.0000
