data_image0
_chemical_formula_structural       BrO3Rb
_chemical_formula_sum              "Br1 O3 Rb1"
_cell_length_a       4.43023
_cell_length_b       4.43023
_cell_length_c       4.43023
_cell_angle_alpha    87.6168
_cell_angle_beta     87.6168
_cell_angle_gamma    87.6168

_space_group_name_H-M_alt    "P 1"
_space_group_IT_number       1

loop_
  _space_group_symop_operation_xyz
  'x, y, z'

loop_
  _atom_site_type_symbol
  _atom_site_label
  _atom_site_symmetry_multiplicity
  _atom_site_fract_x
  _atom_site_fract_y
  _atom_site_fract_z
  _atom_site_occupancy
  Br  Br1       1.0  0.47400  0.47400  0.47400  1.0000
  O   O1        1.0  0.53200  0.53200  0.09760  1.0000
  O   O2        1.0  0.53200  0.09760  0.53200  1.0000
  O   O3        1.0  0.09760  0.53200  0.53200  1.0000
  Rb  Rb1       1.0  0.00094  0.00094  0.00094  1.0000
