data_image0
_chemical_formula_structural       Al8Na39O32
_chemical_formula_sum              "Al8 Na39 O32"
_cell_length_a       10.2801
_cell_length_b       9.9947
_cell_length_c       10.4893
_cell_angle_alpha    90.0994
_cell_angle_beta     89.4193
_cell_angle_gamma    90.1694

_space_group_name_H-M_alt    "P 1"
_space_group_IT_number       1

loop_
  _space_group_symop_operation_xyz
  'x, y, z'

loop_
  _atom_site_type_symbol
  _atom_site_label
  _atom_site_symmetry_multiplicity
  _atom_site_fract_x
  _atom_site_fract_y
  _atom_site_fract_z
  _atom_site_occupancy
  Al  Al1       1.0  0.14500  0.11500  0.13400  1.0000
  Al  Al2       1.0  0.35300  0.61600  0.13700  1.0000
  Al  Al3       1.0  0.85200  0.61100  0.36700  1.0000
  Al  Al4       1.0  0.64200  0.11300  0.36800  1.0000
  Al  Al5       1.0  0.14700  0.39000  0.63500  1.0000
  Al  Al6       1.0  0.36000  0.87900  0.64100  1.0000
  Al  Al7       1.0  0.85500  0.88700  0.86400  1.0000
  Al  Al8       1.0  0.64800  0.38700  0.86700  1.0000
  Na  Na1       1.0  0.88400  0.64200  0.09550  1.0000
  Na  Na2       1.0  0.61500  0.14000  0.09650  1.0000
  Na  Na3       1.0  0.10600  0.82600  0.11200  1.0000
  Na  Na4       1.0  0.40000  0.33000  0.11500  1.0000
  Na  Na5       1.0  0.84500  0.35600  0.11800  1.0000
  Na  Na6       1.0  0.65200  0.85700  0.11900  1.0000
  Na  Na7       1.0  0.87500  0.07580  0.13600  1.0000
  Na  Na8       1.0  0.62300  0.57800  0.14300  1.0000
  Na  Na9       1.0  0.12300  0.40100  0.16600  1.0000
  Na  Na10      1.0  0.37600  0.90300  0.17000  1.0000
  Na  Na11      1.0  0.87800  0.90200  0.33400  1.0000
  Na  Na12      1.0  0.62300  0.39900  0.33600  1.0000
  Na  Na13      1.0  0.12200  0.58100  0.36100  1.0000
  Na  Na14      1.0  0.36100  0.08250  0.36200  1.0000
  Na  Na15      1.0  0.92800  0.29600  0.36900  1.0000
  Na  Na16      1.0  0.14800  0.87100  0.38300  1.0000
  Na  Na17      1.0  0.33900  0.35400  0.38400  1.0000
  Na  Na18      1.0  0.60300  0.82500  0.38700  1.0000
  Na  Na19      1.0  0.38000  0.64500  0.40800  1.0000
  Na  Na20      1.0  0.88000  0.85800  0.59300  1.0000
  Na  Na21      1.0  0.61700  0.35800  0.59600  1.0000
  Na  Na22      1.0  0.84700  0.14800  0.61400  1.0000
  Na  Na23      1.0  0.39500  0.16600  0.61500  1.0000
  Na  Na24      1.0  0.10700  0.67800  0.61600  1.0000
  Na  Na25      1.0  0.65300  0.64300  0.62100  1.0000
  Na  Na26      1.0  0.11800  0.09830  0.63000  1.0000
  Na  Na27      1.0  0.87600  0.42900  0.63400  1.0000
  Na  Na28      1.0  0.62600  0.92200  0.64300  1.0000
  Na  Na29      1.0  0.38000  0.59300  0.66900  1.0000
  Na  Na30      1.0  0.62300  0.10100  0.83500  1.0000
  Na  Na31      1.0  0.87900  0.60000  0.83500  1.0000
  Na  Na32      1.0  0.12500  0.93000  0.85200  1.0000
  Na  Na33      1.0  0.37800  0.42200  0.86300  1.0000
  Na  Na34      1.0  0.90000  0.17600  0.88000  1.0000
  Na  Na35      1.0  0.34600  0.14400  0.88100  1.0000
  Na  Na36      1.0  0.15300  0.64500  0.88500  1.0000
  Na  Na37      1.0  0.60400  0.67500  0.88700  1.0000
  Na  Na38      1.0  0.11800  0.35800  0.90400  1.0000
  Na  Na39      1.0  0.38200  0.85800  0.91100  1.0000
  O   O1        1.0  0.23900  0.01070  0.02650  1.0000
  O   O2        1.0  0.26000  0.51400  0.02880  1.0000
  O   O3        1.0  0.02930  0.22300  0.05400  1.0000
  O   O4        1.0  0.47100  0.72400  0.05800  1.0000
  O   O5        1.0  0.24800  0.21900  0.22800  1.0000
  O   O6        1.0  0.05270  0.00282  0.23400  1.0000
  O   O7        1.0  0.25400  0.72000  0.23900  1.0000
  O   O8        1.0  0.44200  0.50600  0.24400  1.0000
  O   O9        1.0  0.94400  0.50100  0.26100  1.0000
  O   O10       1.0  0.55100  0.00396  0.26200  1.0000
  O   O11       1.0  0.75700  0.71600  0.26300  1.0000
  O   O12       1.0  0.74300  0.21300  0.26300  1.0000
  O   O13       1.0  0.96700  0.72100  0.44700  1.0000
  O   O14       1.0  0.52700  0.22200  0.44700  1.0000
  O   O15       1.0  0.73700  0.01080  0.47300  1.0000
  O   O16       1.0  0.75400  0.51400  0.47400  1.0000
  O   O17       1.0  0.23900  0.49400  0.52800  1.0000
  O   O18       1.0  0.27000  0.97400  0.53100  1.0000
  O   O19       1.0  0.02760  0.28700  0.55800  1.0000
  O   O20       1.0  0.47600  0.77100  0.56100  1.0000
  O   O21       1.0  0.24600  0.28500  0.73400  1.0000
  O   O22       1.0  0.05660  0.49800  0.74300  1.0000
  O   O23       1.0  0.26100  0.77700  0.74400  1.0000
  O   O24       1.0  0.44700  0.99200  0.74600  1.0000
  O   O25       1.0  0.94400  0.99600  0.75400  1.0000
  O   O26       1.0  0.55700  0.49500  0.76300  1.0000
  O   O27       1.0  0.74600  0.28600  0.76300  1.0000
  O   O28       1.0  0.75700  0.78200  0.76400  1.0000
  O   O29       1.0  0.97000  0.78100  0.94500  1.0000
  O   O30       1.0  0.53100  0.27800  0.94700  1.0000
  O   O31       1.0  0.75900  0.98900  0.97100  1.0000
  O   O32       1.0  0.74100  0.49000  0.97500  1.0000
