data_image0
_chemical_formula_structural       Cl6Dy2
_chemical_formula_sum              "Cl6 Dy2"
_cell_length_a       3.79232
_cell_length_b       6.39187
_cell_length_c       8.51906
_cell_angle_alpha    90
_cell_angle_beta     90
_cell_angle_gamma    72.7434

_space_group_name_H-M_alt    "P 1"
_space_group_IT_number       1

loop_
  _space_group_symop_operation_xyz
  'x, y, z'

loop_
  _atom_site_type_symbol
  _atom_site_label
  _atom_site_symmetry_multiplicity
  _atom_site_fract_x
  _atom_site_fract_y
  _atom_site_fract_z
  _atom_site_occupancy
  Cl  Cl1       1.0  0.15100  0.69800  0.06790  1.0000
  Cl  Cl2       1.0  0.41000  0.18100  0.25000  1.0000
  Cl  Cl3       1.0  0.15100  0.69800  0.43200  1.0000
  Cl  Cl4       1.0  0.84900  0.30200  0.56800  1.0000
  Cl  Cl5       1.0  0.59000  0.81900  0.75000  1.0000
  Cl  Cl6       1.0  0.84900  0.30200  0.93200  1.0000
  Dy  Dy1       1.0  0.75800  0.48400  0.25000  1.0000
  Dy  Dy2       1.0  0.24200  0.51600  0.75000  1.0000
