data_image0
_chemical_formula_structural       P2Pd2Sr
_chemical_formula_sum              "P2 Pd2 Sr1"
_cell_length_a       4.2725
_cell_length_b       4.2725
_cell_length_c       5.75924
_cell_angle_alpha    111.773
_cell_angle_beta     111.773
_cell_angle_gamma    90

_space_group_name_H-M_alt    "P 1"
_space_group_IT_number       1

loop_
  _space_group_symop_operation_xyz
  'x, y, z'

loop_
  _atom_site_type_symbol
  _atom_site_label
  _atom_site_symmetry_multiplicity
  _atom_site_fract_x
  _atom_site_fract_y
  _atom_site_fract_z
  _atom_site_occupancy
  P   P1        1.0  0.61400  0.61400  0.22800  1.0000
  P   P2        1.0  0.38600  0.38600  0.77200  1.0000
  Pd  Pd1       1.0  0.75000  0.25000  0.50000  1.0000
  Pd  Pd2       1.0  0.25000  0.75000  0.50000  1.0000
  Sr  Sr1       1.0  0.00000  0.00000  0.00000  1.0000
