data_image0
_chemical_formula_structural       I32Si8
_chemical_formula_sum              "I32 Si8"
_cell_length_a       12.6477
_cell_length_b       12.6477
_cell_length_c       12.6477
_cell_angle_alpha    90
_cell_angle_beta     90
_cell_angle_gamma    90

_space_group_name_H-M_alt    "P 1"
_space_group_IT_number       1

loop_
  _space_group_symop_operation_xyz
  'x, y, z'

loop_
  _atom_site_type_symbol
  _atom_site_label
  _atom_site_symmetry_multiplicity
  _atom_site_fract_x
  _atom_site_fract_y
  _atom_site_fract_z
  _atom_site_occupancy
  I   I1        1.0  0.24400  0.03060  0.01040  1.0000
  I   I2        1.0  0.25600  0.53100  0.01040  1.0000
  I   I3        1.0  0.01040  0.24400  0.03060  1.0000
  I   I4        1.0  0.49000  0.74400  0.03060  1.0000
  I   I5        1.0  0.03060  0.01040  0.24400  1.0000
  I   I6        1.0  0.46900  0.51000  0.24400  1.0000
  I   I7        1.0  0.24500  0.24500  0.24500  1.0000
  I   I8        1.0  0.25500  0.74500  0.24500  1.0000
  I   I9        1.0  0.74500  0.24500  0.25500  1.0000
  I   I10       1.0  0.75500  0.74500  0.25500  1.0000
  I   I11       1.0  0.53100  0.01040  0.25600  1.0000
  I   I12       1.0  0.96900  0.51000  0.25600  1.0000
  I   I13       1.0  0.51000  0.24400  0.46900  1.0000
  I   I14       1.0  0.99000  0.74400  0.46900  1.0000
  I   I15       1.0  0.74400  0.03060  0.49000  1.0000
  I   I16       1.0  0.75600  0.53100  0.49000  1.0000
  I   I17       1.0  0.24400  0.46900  0.51000  1.0000
  I   I18       1.0  0.25600  0.96900  0.51000  1.0000
  I   I19       1.0  0.01040  0.25600  0.53100  1.0000
  I   I20       1.0  0.49000  0.75600  0.53100  1.0000
  I   I21       1.0  0.03060  0.49000  0.74400  1.0000
  I   I22       1.0  0.46900  0.99000  0.74400  1.0000
  I   I23       1.0  0.24500  0.25500  0.74500  1.0000
  I   I24       1.0  0.25500  0.75500  0.74500  1.0000
  I   I25       1.0  0.74500  0.25500  0.75500  1.0000
  I   I26       1.0  0.75500  0.75500  0.75500  1.0000
  I   I27       1.0  0.53100  0.49000  0.75600  1.0000
  I   I28       1.0  0.96900  0.99000  0.75600  1.0000
  I   I29       1.0  0.51000  0.25600  0.96900  1.0000
  I   I30       1.0  0.99000  0.75600  0.96900  1.0000
  I   I31       1.0  0.74400  0.46900  0.99000  1.0000
  I   I32       1.0  0.75600  0.96900  0.99000  1.0000
  Si  Si1       1.0  0.13300  0.13300  0.13300  1.0000
  Si  Si2       1.0  0.36700  0.63300  0.13300  1.0000
  Si  Si3       1.0  0.63300  0.13300  0.36700  1.0000
  Si  Si4       1.0  0.86700  0.63300  0.36700  1.0000
  Si  Si5       1.0  0.13300  0.36700  0.63300  1.0000
  Si  Si6       1.0  0.36700  0.86700  0.63300  1.0000
  Si  Si7       1.0  0.63300  0.36700  0.86700  1.0000
  Si  Si8       1.0  0.86700  0.86700  0.86700  1.0000
