data_image0
_chemical_formula_structural       Ni2P6
_chemical_formula_sum              "Ni2 P6"
_cell_length_a       6.35959
_cell_length_b       6.35959
_cell_length_c       3.73959
_cell_angle_alpha    90
_cell_angle_beta     90
_cell_angle_gamma    120

_space_group_name_H-M_alt    "P 1"
_space_group_IT_number       1

loop_
  _space_group_symop_operation_xyz
  'x, y, z'

loop_
  _atom_site_type_symbol
  _atom_site_label
  _atom_site_symmetry_multiplicity
  _atom_site_fract_x
  _atom_site_fract_y
  _atom_site_fract_z
  _atom_site_occupancy
  Ni  Ni1       1.0  0.66700  0.33300  0.25000  1.0000
  Ni  Ni2       1.0  0.33300  0.66700  0.75000  1.0000
  P   P1        1.0  0.42500  0.21200  0.75000  1.0000
  P   P2        1.0  0.78800  0.57500  0.75000  1.0000
  P   P3        1.0  0.21200  0.78800  0.25000  1.0000
  P   P4        1.0  0.57500  0.78800  0.25000  1.0000
  P   P5        1.0  0.21200  0.42500  0.25000  1.0000
  P   P6        1.0  0.78800  0.21200  0.75000  1.0000
