data_image0
_chemical_formula_structural       Be2F24Li12Zr2
_chemical_formula_sum              "Be2 F24 Li12 Zr2"
_cell_length_a       6.42683
_cell_length_b       6.42683
_cell_length_c       10.0602
_cell_angle_alpha    108.628
_cell_angle_beta     108.628
_cell_angle_gamma    90

_space_group_name_H-M_alt    "P 1"
_space_group_IT_number       1

loop_
  _space_group_symop_operation_xyz
  'x, y, z'

loop_
  _atom_site_type_symbol
  _atom_site_label
  _atom_site_symmetry_multiplicity
  _atom_site_fract_x
  _atom_site_fract_y
  _atom_site_fract_z
  _atom_site_occupancy
  Be  Be1       1.0  0.12500  0.37500  0.25000  1.0000
  Be  Be2       1.0  0.87500  0.62500  0.75000  1.0000
  F   F1        1.0  0.30400  0.79100  0.08100  1.0000
  F   F2        1.0  0.77700  0.79100  0.08100  1.0000
  F   F3        1.0  0.07370  0.12800  0.14700  1.0000
  F   F4        1.0  0.07370  0.51900  0.14700  1.0000
  F   F5        1.0  0.57400  0.11600  0.14800  1.0000
  F   F6        1.0  0.57400  0.53200  0.14800  1.0000
  F   F7        1.0  0.38400  0.92600  0.35200  1.0000
  F   F8        1.0  0.96800  0.92600  0.35200  1.0000
  F   F9        1.0  0.37200  0.42600  0.35300  1.0000
  F   F10       1.0  0.98100  0.42600  0.35300  1.0000
  F   F11       1.0  0.71000  0.19600  0.41900  1.0000
  F   F12       1.0  0.71000  0.72300  0.41900  1.0000
  F   F13       1.0  0.29000  0.27700  0.58100  1.0000
  F   F14       1.0  0.29000  0.80400  0.58100  1.0000
  F   F15       1.0  0.01900  0.57400  0.64700  1.0000
  F   F16       1.0  0.62800  0.57400  0.64700  1.0000
  F   F17       1.0  0.03160  0.07400  0.64800  1.0000
  F   F18       1.0  0.61600  0.07400  0.64800  1.0000
  F   F19       1.0  0.42600  0.46800  0.85200  1.0000
  F   F20       1.0  0.42600  0.88400  0.85200  1.0000
  F   F21       1.0  0.92600  0.48100  0.85300  1.0000
  F   F22       1.0  0.92600  0.87200  0.85300  1.0000
  F   F23       1.0  0.22300  0.21000  0.91900  1.0000
  F   F24       1.0  0.69600  0.21000  0.91900  1.0000
  Li  Li1       1.0  0.23400  0.00000  0.00000  1.0000
  Li  Li2       1.0  0.76600  0.00000  0.00000  1.0000
  Li  Li3       1.0  0.23400  0.50000  0.00000  1.0000
  Li  Li4       1.0  0.76600  0.50000  0.00000  1.0000
  Li  Li5       1.0  0.10200  0.85200  0.20300  1.0000
  Li  Li6       1.0  0.64800  0.39800  0.29700  1.0000
  Li  Li7       1.0  0.00000  0.26600  0.50000  1.0000
  Li  Li8       1.0  0.00000  0.73400  0.50000  1.0000
  Li  Li9       1.0  0.50000  0.26600  0.50000  1.0000
  Li  Li10      1.0  0.50000  0.73400  0.50000  1.0000
  Li  Li11      1.0  0.35200  0.60200  0.70300  1.0000
  Li  Li12      1.0  0.89800  0.14800  0.79700  1.0000
  Zr  Zr1       1.0  0.62500  0.87500  0.25000  1.0000
  Zr  Zr2       1.0  0.37500  0.12500  0.75000  1.0000
