data_image0
_chemical_formula_structural       Cr4K8N2O24U
_chemical_formula_sum              "Cr4 K8 N2 O24 U1"
_cell_length_a       6.89995
_cell_length_b       9.63704
_cell_length_c       9.62884
_cell_angle_alpha    105.659
_cell_angle_beta     98.3524
_cell_angle_gamma    93.5792

_space_group_name_H-M_alt    "P 1"
_space_group_IT_number       1

loop_
  _space_group_symop_operation_xyz
  'x, y, z'

loop_
  _atom_site_type_symbol
  _atom_site_label
  _atom_site_symmetry_multiplicity
  _atom_site_fract_x
  _atom_site_fract_y
  _atom_site_fract_z
  _atom_site_occupancy
  Cr  Cr1       1.0  0.14600  0.39200  0.16100  1.0000
  Cr  Cr2       1.0  0.87600  0.12400  0.36500  1.0000
  Cr  Cr3       1.0  0.12400  0.87600  0.63500  1.0000
  Cr  Cr4       1.0  0.85400  0.60800  0.83900  1.0000
  K   K1        1.0  0.59900  0.30900  0.05160  1.0000
  K   K2        1.0  0.00398  0.73700  0.24600  1.0000
  K   K3        1.0  0.38200  0.09470  0.35300  1.0000
  K   K4        1.0  0.73900  0.48700  0.45400  1.0000
  K   K5        1.0  0.26100  0.51300  0.54600  1.0000
  K   K6        1.0  0.61800  0.90500  0.64700  1.0000
  K   K7        1.0  0.99600  0.26300  0.75400  1.0000
  K   K8        1.0  0.40100  0.69100  0.94800  1.0000
  N   N1        1.0  0.49700  0.70500  0.29200  1.0000
  N   N2        1.0  0.50300  0.29500  0.70800  1.0000
  O   O1        1.0  0.00530  0.24400  0.03680  1.0000
  O   O2        1.0  0.26700  0.01540  0.04240  1.0000
  O   O3        1.0  0.22100  0.49900  0.06970  1.0000
  O   O4        1.0  0.61900  0.63600  0.22100  1.0000
  O   O5        1.0  0.99300  0.01200  0.24000  1.0000
  O   O6        1.0  0.40900  0.79900  0.24500  1.0000
  O   O7        1.0  0.33700  0.34300  0.25300  1.0000
  O   O8        1.0  0.00830  0.47500  0.27700  1.0000
  O   O9        1.0  0.71200  0.20200  0.27900  1.0000
  O   O10       1.0  0.46000  0.67900  0.40800  1.0000
  O   O11       1.0  0.76300  0.03010  0.45400  1.0000
  O   O12       1.0  0.03980  0.25000  0.47900  1.0000
  O   O13       1.0  0.96000  0.75000  0.52100  1.0000
  O   O14       1.0  0.23700  0.97000  0.54600  1.0000
  O   O15       1.0  0.54000  0.32100  0.59200  1.0000
  O   O16       1.0  0.28800  0.79800  0.72100  1.0000
  O   O17       1.0  0.99200  0.52500  0.72300  1.0000
  O   O18       1.0  0.66300  0.65700  0.74700  1.0000
  O   O19       1.0  0.59100  0.20100  0.75500  1.0000
  O   O20       1.0  0.00686  0.98800  0.76000  1.0000
  O   O21       1.0  0.38100  0.36400  0.77900  1.0000
  O   O22       1.0  0.77900  0.50100  0.93000  1.0000
  O   O23       1.0  0.73300  0.98500  0.95800  1.0000
  O   O24       1.0  0.99500  0.75600  0.96300  1.0000
  U   U1        1.0  0.00000  0.00000  0.00000  1.0000
