data_image0
_chemical_formula_structural       Co30Ge4U4
_chemical_formula_sum              "Co30 Ge4 U4"
_cell_length_a       8.22615
_cell_length_b       8.22298
_cell_length_c       8.21752
_cell_angle_alpha    90
_cell_angle_beta     90
_cell_angle_gamma    120.013

_space_group_name_H-M_alt    "P 1"
_space_group_IT_number       1

loop_
  _space_group_symop_operation_xyz
  'x, y, z'

loop_
  _atom_site_type_symbol
  _atom_site_label
  _atom_site_symmetry_multiplicity
  _atom_site_fract_x
  _atom_site_fract_y
  _atom_site_fract_z
  _atom_site_occupancy
  Co  Co1       1.0  0.50000  0.00000  0.00000  1.0000
  Co  Co2       1.0  0.00000  0.50000  0.00000  1.0000
  Co  Co3       1.0  0.50000  0.50000  0.00000  1.0000
  Co  Co4       1.0  0.32300  0.16200  0.02820  1.0000
  Co  Co5       1.0  0.83800  0.16200  0.02820  1.0000
  Co  Co6       1.0  0.83800  0.67700  0.02820  1.0000
  Co  Co7       1.0  0.03720  0.36400  0.25000  1.0000
  Co  Co8       1.0  0.32700  0.36400  0.25000  1.0000
  Co  Co9       1.0  0.03730  0.67300  0.25000  1.0000
  Co  Co10      1.0  0.63500  0.67300  0.25000  1.0000
  Co  Co11      1.0  0.32700  0.96300  0.25000  1.0000
  Co  Co12      1.0  0.63500  0.96300  0.25000  1.0000
  Co  Co13      1.0  0.83800  0.67700  0.47200  1.0000
  Co  Co14      1.0  0.32300  0.16200  0.47200  1.0000
  Co  Co15      1.0  0.83800  0.16200  0.47200  1.0000
  Co  Co16      1.0  0.50000  0.00000  0.50000  1.0000
  Co  Co17      1.0  0.00000  0.50000  0.50000  1.0000
  Co  Co18      1.0  0.50000  0.50000  0.50000  1.0000
  Co  Co19      1.0  0.16200  0.83800  0.52800  1.0000
  Co  Co20      1.0  0.67700  0.83800  0.52800  1.0000
  Co  Co21      1.0  0.16200  0.32300  0.52800  1.0000
  Co  Co22      1.0  0.36500  0.03720  0.75000  1.0000
  Co  Co23      1.0  0.67300  0.03720  0.75000  1.0000
  Co  Co24      1.0  0.36500  0.32700  0.75000  1.0000
  Co  Co25      1.0  0.96300  0.32700  0.75000  1.0000
  Co  Co26      1.0  0.67300  0.63600  0.75000  1.0000
  Co  Co27      1.0  0.96300  0.63600  0.75000  1.0000
  Co  Co28      1.0  0.16200  0.32300  0.97200  1.0000
  Co  Co29      1.0  0.16200  0.83800  0.97200  1.0000
  Co  Co30      1.0  0.67700  0.83800  0.97200  1.0000
  Ge  Ge1       1.0  0.33300  0.66700  0.09760  1.0000
  Ge  Ge2       1.0  0.33300  0.66700  0.40200  1.0000
  Ge  Ge3       1.0  0.66700  0.33300  0.59800  1.0000
  Ge  Ge4       1.0  0.66700  0.33300  0.90200  1.0000
  U   U1        1.0  0.00000  0.00000  0.25000  1.0000
  U   U2        1.0  0.66700  0.33300  0.25000  1.0000
  U   U3        1.0  0.00000  0.00000  0.75000  1.0000
  U   U4        1.0  0.33300  0.66700  0.75000  1.0000
