data_image0
_chemical_formula_structural       Nd2Pt2
_chemical_formula_sum              "Nd2 Pt2"
_cell_length_a       3.88476
_cell_length_b       4.58068
_cell_length_c       5.76371
_cell_angle_alpha    90
_cell_angle_beta     70.3057
_cell_angle_gamma    90

_space_group_name_H-M_alt    "P 1"
_space_group_IT_number       1

loop_
  _space_group_symop_operation_xyz
  'x, y, z'

loop_
  _atom_site_type_symbol
  _atom_site_label
  _atom_site_symmetry_multiplicity
  _atom_site_fract_x
  _atom_site_fract_y
  _atom_site_fract_z
  _atom_site_occupancy
  Nd  Nd1       1.0  0.86200  0.25000  0.27500  1.0000
  Nd  Nd2       1.0  0.13800  0.75000  0.72500  1.0000
  Pt  Pt1       1.0  0.41200  0.75000  0.17600  1.0000
  Pt  Pt2       1.0  0.58800  0.25000  0.82400  1.0000
