data_image0
_chemical_formula_structural       Au3Rb2
_chemical_formula_sum              "Au3 Rb2"
_cell_length_a       4.99763
_cell_length_b       5.53237
_cell_length_c       6.46487
_cell_angle_alpha    115.333
_cell_angle_beta     112.738
_cell_angle_gamma    90

_space_group_name_H-M_alt    "P 1"
_space_group_IT_number       1

loop_
  _space_group_symop_operation_xyz
  'x, y, z'

loop_
  _atom_site_type_symbol
  _atom_site_label
  _atom_site_symmetry_multiplicity
  _atom_site_fract_x
  _atom_site_fract_y
  _atom_site_fract_z
  _atom_site_occupancy
  Au  Au1       1.0  0.00000  0.00000  0.00000  1.0000
  Au  Au2       1.0  0.50000  0.25300  0.00000  1.0000
  Au  Au3       1.0  0.50000  0.74700  0.00000  1.0000
  Rb  Rb1       1.0  0.19700  0.69700  0.39300  1.0000
  Rb  Rb2       1.0  0.80300  0.30300  0.60700  1.0000
