data_image0
_chemical_formula_structural       NaO3
_chemical_formula_sum              "Na1 O3"
_cell_length_a       3.05524
_cell_length_b       4.20221
_cell_length_c       4.20221
_cell_angle_alpha    98.8858
_cell_angle_beta     111.317
_cell_angle_gamma    68.683

_space_group_name_H-M_alt    "P 1"
_space_group_IT_number       1

loop_
  _space_group_symop_operation_xyz
  'x, y, z'

loop_
  _atom_site_type_symbol
  _atom_site_label
  _atom_site_symmetry_multiplicity
  _atom_site_fract_x
  _atom_site_fract_y
  _atom_site_fract_z
  _atom_site_occupancy
  Na  Na1       1.0  0.50600  0.49400  0.50600  1.0000
  O   O1        1.0  0.01640  0.98400  0.01640  1.0000
  O   O2        1.0  0.87900  0.32600  0.08400  1.0000
  O   O3        1.0  0.87900  0.91600  0.67400  1.0000
