data_image0
_chemical_formula_structural       H16N2O16P4Zn
_chemical_formula_sum              "H16 N2 O16 P4 Zn1"
_cell_length_a       6.87538
_cell_length_b       7.10373
_cell_length_c       7.5986
_cell_angle_alpha    79.7147
_cell_angle_beta     69.8153
_cell_angle_gamma    86.9579

_space_group_name_H-M_alt    "P 1"
_space_group_IT_number       1

loop_
  _space_group_symop_operation_xyz
  'x, y, z'

loop_
  _atom_site_type_symbol
  _atom_site_label
  _atom_site_symmetry_multiplicity
  _atom_site_fract_x
  _atom_site_fract_y
  _atom_site_fract_z
  _atom_site_occupancy
  H   H1        1.0  0.25100  0.98000  0.02590  1.0000
  H   H2        1.0  0.56400  0.31300  0.08750  1.0000
  H   H3        1.0  0.32300  0.40000  0.17500  1.0000
  H   H4        1.0  0.35700  0.16100  0.19100  1.0000
  H   H5        1.0  0.88100  0.16100  0.20000  1.0000
  H   H6        1.0  0.43900  0.27800  0.32600  1.0000
  H   H7        1.0  0.89300  0.29800  0.34300  1.0000
  H   H8        1.0  0.40400  0.72500  0.44200  1.0000
  H   H9        1.0  0.59600  0.27500  0.55800  1.0000
  H   H10       1.0  0.10700  0.70200  0.65700  1.0000
  H   H11       1.0  0.56100  0.72200  0.67400  1.0000
  H   H12       1.0  0.11900  0.83900  0.80000  1.0000
  H   H13       1.0  0.64300  0.83900  0.80900  1.0000
  H   H14       1.0  0.67700  0.60000  0.82500  1.0000
  H   H15       1.0  0.43600  0.68700  0.91300  1.0000
  H   H16       1.0  0.74900  0.02040  0.97400  1.0000
  N   N1        1.0  0.42100  0.28800  0.19400  1.0000
  N   N2        1.0  0.57900  0.71200  0.80600  1.0000
  O   O1        1.0  0.19400  0.61300  0.12000  1.0000
  O   O2        1.0  0.76200  0.99000  0.14700  1.0000
  O   O3        1.0  0.73500  0.62800  0.16600  1.0000
  O   O4        1.0  0.26100  0.93900  0.17000  1.0000
  O   O5        1.0  0.96100  0.26700  0.21300  1.0000
  O   O6        1.0  0.91200  0.77200  0.36500  1.0000
  O   O7        1.0  0.22500  0.65800  0.43700  1.0000
  O   O8        1.0  0.53900  0.78400  0.45200  1.0000
  O   O9        1.0  0.46100  0.21600  0.54800  1.0000
  O   O10       1.0  0.77500  0.34200  0.56300  1.0000
  O   O11       1.0  0.08820  0.22800  0.63500  1.0000
  O   O12       1.0  0.03920  0.73300  0.78700  1.0000
  O   O13       1.0  0.73900  0.06110  0.83000  1.0000
  O   O14       1.0  0.26500  0.37200  0.83400  1.0000
  O   O15       1.0  0.23800  0.00971  0.85300  1.0000
  O   O16       1.0  0.80600  0.38700  0.88000  1.0000
  P   P1        1.0  0.73300  0.79100  0.26900  1.0000
  P   P2        1.0  0.15700  0.74100  0.27000  1.0000
  P   P3        1.0  0.84300  0.25900  0.73000  1.0000
  P   P4        1.0  0.26700  0.20900  0.73100  1.0000
  Zn  Zn1       1.0  0.00000  0.50000  0.00000  1.0000
