data_image0
_chemical_formula_structural       Fe8O23Sr8
_chemical_formula_sum              "Fe8 O23 Sr8"
_cell_length_a       7.6811
_cell_length_b       8.62647
_cell_length_c       8.62647
_cell_angle_alpha    101.432
_cell_angle_beta     63.5635
_cell_angle_gamma    116.436

_space_group_name_H-M_alt    "P 1"
_space_group_IT_number       1

loop_
  _space_group_symop_operation_xyz
  'x, y, z'

loop_
  _atom_site_type_symbol
  _atom_site_label
  _atom_site_symmetry_multiplicity
  _atom_site_fract_x
  _atom_site_fract_y
  _atom_site_fract_z
  _atom_site_occupancy
  Fe  Fe1       1.0  0.25300  0.00000  0.00000  1.0000
  Fe  Fe2       1.0  0.74700  0.00000  0.00000  1.0000
  Fe  Fe3       1.0  0.00000  0.50000  0.00000  1.0000
  Fe  Fe4       1.0  0.50000  0.50000  0.00000  1.0000
  Fe  Fe5       1.0  0.00000  0.00000  0.50000  1.0000
  Fe  Fe6       1.0  0.50000  0.00000  0.50000  1.0000
  Fe  Fe7       1.0  0.25000  0.50000  0.50000  1.0000
  Fe  Fe8       1.0  0.75000  0.50000  0.50000  1.0000
  O   O1        1.0  0.50000  0.00000  0.00000  1.0000
  O   O2        1.0  0.33900  0.24000  0.00000  1.0000
  O   O3        1.0  0.90100  0.24000  0.00000  1.0000
  O   O4        1.0  0.73700  0.47400  0.00000  1.0000
  O   O5        1.0  0.26300  0.52600  0.00000  1.0000
  O   O6        1.0  0.09900  0.76000  0.00000  1.0000
  O   O7        1.0  0.66100  0.76000  0.00000  1.0000
  O   O8        1.0  0.09900  0.00000  0.24000  1.0000
  O   O9        1.0  0.66100  0.00000  0.24000  1.0000
  O   O10       1.0  0.37500  0.50000  0.25000  1.0000
  O   O11       1.0  0.87500  0.50000  0.25000  1.0000
  O   O12       1.0  0.26300  0.00000  0.47400  1.0000
  O   O13       1.0  0.12500  0.25000  0.50000  1.0000
  O   O14       1.0  0.62500  0.25000  0.50000  1.0000
  O   O15       1.0  0.00000  0.50000  0.50000  1.0000
  O   O16       1.0  0.50000  0.50000  0.50000  1.0000
  O   O17       1.0  0.37500  0.75000  0.50000  1.0000
  O   O18       1.0  0.87500  0.75000  0.50000  1.0000
  O   O19       1.0  0.73700  0.00000  0.52600  1.0000
  O   O20       1.0  0.12500  0.50000  0.75000  1.0000
  O   O21       1.0  0.62500  0.50000  0.75000  1.0000
  O   O22       1.0  0.33900  0.00000  0.76000  1.0000
  O   O23       1.0  0.90100  0.00000  0.76000  1.0000
  Sr  Sr1       1.0  0.24900  0.74900  0.25100  1.0000
  Sr  Sr2       1.0  0.50000  0.25100  0.25100  1.0000
  Sr  Sr3       1.0  0.00000  0.25900  0.25900  1.0000
  Sr  Sr4       1.0  0.74100  0.74100  0.25900  1.0000
  Sr  Sr5       1.0  0.00000  0.74100  0.74100  1.0000
  Sr  Sr6       1.0  0.25900  0.25900  0.74100  1.0000
  Sr  Sr7       1.0  0.50000  0.74900  0.74900  1.0000
  Sr  Sr8       1.0  0.75100  0.25100  0.74900  1.0000
