data_image0
_chemical_formula_structural       Fe8Na40O32
_chemical_formula_sum              "Fe8 Na40 O32"
_cell_length_a       10.5622
_cell_length_b       10.4324
_cell_length_c       10.2172
_cell_angle_alpha    90
_cell_angle_beta     90
_cell_angle_gamma    90

_space_group_name_H-M_alt    "P 1"
_space_group_IT_number       1

loop_
  _space_group_symop_operation_xyz
  'x, y, z'

loop_
  _atom_site_type_symbol
  _atom_site_label
  _atom_site_symmetry_multiplicity
  _atom_site_fract_x
  _atom_site_fract_y
  _atom_site_fract_z
  _atom_site_occupancy
  Fe  Fe1       1.0  0.13000  0.14800  0.11400  1.0000
  Fe  Fe2       1.0  0.37000  0.64800  0.11400  1.0000
  Fe  Fe3       1.0  0.63000  0.14800  0.38600  1.0000
  Fe  Fe4       1.0  0.87000  0.64800  0.38600  1.0000
  Fe  Fe5       1.0  0.13000  0.35200  0.61400  1.0000
  Fe  Fe6       1.0  0.37000  0.85200  0.61400  1.0000
  Fe  Fe7       1.0  0.63000  0.35200  0.88600  1.0000
  Fe  Fe8       1.0  0.87000  0.85200  0.88600  1.0000
  Na  Na1       1.0  0.35700  0.37900  0.08410  1.0000
  Na  Na2       1.0  0.14300  0.87900  0.08410  1.0000
  Na  Na3       1.0  0.66400  0.12100  0.10300  1.0000
  Na  Na4       1.0  0.83600  0.62100  0.10300  1.0000
  Na  Na5       1.0  0.88500  0.34700  0.13900  1.0000
  Na  Na6       1.0  0.61500  0.84700  0.13900  1.0000
  Na  Na7       1.0  0.40100  0.11700  0.14400  1.0000
  Na  Na8       1.0  0.09920  0.61700  0.14400  1.0000
  Na  Na9       1.0  0.61600  0.39400  0.16800  1.0000
  Na  Na10      1.0  0.88400  0.89400  0.16800  1.0000
  Na  Na11      1.0  0.11600  0.39400  0.33200  1.0000
  Na  Na12      1.0  0.38400  0.89400  0.33200  1.0000
  Na  Na13      1.0  0.90100  0.11700  0.35600  1.0000
  Na  Na14      1.0  0.59900  0.61700  0.35600  1.0000
  Na  Na15      1.0  0.38500  0.34700  0.36100  1.0000
  Na  Na16      1.0  0.11500  0.84700  0.36100  1.0000
  Na  Na17      1.0  0.16400  0.12100  0.39700  1.0000
  Na  Na18      1.0  0.33600  0.62100  0.39700  1.0000
  Na  Na19      1.0  0.85700  0.37900  0.41600  1.0000
  Na  Na20      1.0  0.64300  0.87900  0.41600  1.0000
  Na  Na21      1.0  0.35700  0.12100  0.58400  1.0000
  Na  Na22      1.0  0.14300  0.62100  0.58400  1.0000
  Na  Na23      1.0  0.66400  0.37900  0.60300  1.0000
  Na  Na24      1.0  0.83600  0.87900  0.60300  1.0000
  Na  Na25      1.0  0.88500  0.15300  0.63900  1.0000
  Na  Na26      1.0  0.61500  0.65300  0.63900  1.0000
  Na  Na27      1.0  0.40100  0.38300  0.64400  1.0000
  Na  Na28      1.0  0.09920  0.88300  0.64400  1.0000
  Na  Na29      1.0  0.61600  0.10600  0.66800  1.0000
  Na  Na30      1.0  0.88400  0.60600  0.66800  1.0000
  Na  Na31      1.0  0.11600  0.10600  0.83200  1.0000
  Na  Na32      1.0  0.38400  0.60600  0.83200  1.0000
  Na  Na33      1.0  0.90100  0.38300  0.85600  1.0000
  Na  Na34      1.0  0.59900  0.88300  0.85600  1.0000
  Na  Na35      1.0  0.38500  0.15300  0.86100  1.0000
  Na  Na36      1.0  0.11500  0.65300  0.86100  1.0000
  Na  Na37      1.0  0.16400  0.37900  0.89700  1.0000
  Na  Na38      1.0  0.33600  0.87900  0.89700  1.0000
  Na  Na39      1.0  0.85700  0.12100  0.91600  1.0000
  Na  Na40      1.0  0.64300  0.62100  0.91600  1.0000
  O   O1        1.0  0.02090  0.24300  0.00025  1.0000
  O   O2        1.0  0.47900  0.74300  0.00025  1.0000
  O   O3        1.0  0.24400  0.05190  0.00241  1.0000
  O   O4        1.0  0.25600  0.55200  0.00241  1.0000
  O   O5        1.0  0.24000  0.24700  0.22200  1.0000
  O   O6        1.0  0.26000  0.74700  0.22200  1.0000
  O   O7        1.0  0.04930  0.02490  0.22700  1.0000
  O   O8        1.0  0.45100  0.52500  0.22700  1.0000
  O   O9        1.0  0.54900  0.02490  0.27300  1.0000
  O   O10       1.0  0.95100  0.52500  0.27300  1.0000
  O   O11       1.0  0.74000  0.24700  0.27800  1.0000
  O   O12       1.0  0.76000  0.74700  0.27800  1.0000
  O   O13       1.0  0.74400  0.05190  0.49800  1.0000
  O   O14       1.0  0.75600  0.55200  0.49800  1.0000
  O   O15       1.0  0.52100  0.24300  0.50000  1.0000
  O   O16       1.0  0.97900  0.74300  0.50000  1.0000
  O   O17       1.0  0.02090  0.25700  0.50000  1.0000
  O   O18       1.0  0.47900  0.75700  0.50000  1.0000
  O   O19       1.0  0.24400  0.44800  0.50200  1.0000
  O   O20       1.0  0.25600  0.94800  0.50200  1.0000
  O   O21       1.0  0.24000  0.25300  0.72200  1.0000
  O   O22       1.0  0.26000  0.75300  0.72200  1.0000
  O   O23       1.0  0.04930  0.47500  0.72700  1.0000
  O   O24       1.0  0.45100  0.97500  0.72700  1.0000
  O   O25       1.0  0.54900  0.47500  0.77300  1.0000
  O   O26       1.0  0.95100  0.97500  0.77300  1.0000
  O   O27       1.0  0.74000  0.25300  0.77800  1.0000
  O   O28       1.0  0.76000  0.75300  0.77800  1.0000
  O   O29       1.0  0.74400  0.44800  0.99800  1.0000
  O   O30       1.0  0.75600  0.94800  0.99800  1.0000
  O   O31       1.0  0.52100  0.25700  0.00000  1.0000
  O   O32       1.0  0.97900  0.75700  0.00000  1.0000
