data_image0
_chemical_formula_structural       Br2C6CaH24O6
_chemical_formula_sum              "Br2 C6 Ca1 H24 O6"
_cell_length_a       8.31735
_cell_length_b       8.31733
_cell_length_c       6.64899
_cell_angle_alpha    90.0001
_cell_angle_beta     89.9997
_cell_angle_gamma    120

_space_group_name_H-M_alt    "P 1"
_space_group_IT_number       1

loop_
  _space_group_symop_operation_xyz
  'x, y, z'

loop_
  _atom_site_type_symbol
  _atom_site_label
  _atom_site_symmetry_multiplicity
  _atom_site_fract_x
  _atom_site_fract_y
  _atom_site_fract_z
  _atom_site_occupancy
  Br  Br1       1.0  0.33300  0.66700  0.28300  1.0000
  Br  Br2       1.0  0.66700  0.33300  0.71700  1.0000
  C   C1        1.0  0.37400  0.24000  0.21400  1.0000
  C   C2        1.0  0.76000  0.13400  0.21400  1.0000
  C   C3        1.0  0.86600  0.62600  0.21400  1.0000
  C   C4        1.0  0.13400  0.37400  0.78600  1.0000
  C   C5        1.0  0.24000  0.86600  0.78600  1.0000
  C   C6        1.0  0.62600  0.76000  0.78600  1.0000
  Ca  Ca1       1.0  0.00000  0.00000  0.50000  1.0000
  H   H1        1.0  0.90500  0.58900  0.07090  1.0000
  H   H2        1.0  0.68400  0.09460  0.07090  1.0000
  H   H3        1.0  0.41100  0.31600  0.07090  1.0000
  H   H4        1.0  0.90600  0.23400  0.18300  1.0000
  H   H5        1.0  0.32800  0.09360  0.18300  1.0000
  H   H6        1.0  0.76600  0.67200  0.18300  1.0000
  H   H7        1.0  0.49700  0.29700  0.31300  1.0000
  H   H8        1.0  0.70300  0.20000  0.31300  1.0000
  H   H9        1.0  0.80000  0.50300  0.31300  1.0000
  H   H10       1.0  0.62100  0.87500  0.31500  1.0000
  H   H11       1.0  0.12500  0.74600  0.31500  1.0000
  H   H12       1.0  0.25400  0.37900  0.31500  1.0000
  H   H13       1.0  0.74600  0.62100  0.68500  1.0000
  H   H14       1.0  0.87500  0.25400  0.68500  1.0000
  H   H15       1.0  0.37900  0.12500  0.68500  1.0000
  H   H16       1.0  0.20000  0.49700  0.68700  1.0000
  H   H17       1.0  0.29700  0.80000  0.68700  1.0000
  H   H18       1.0  0.50300  0.70300  0.68700  1.0000
  H   H19       1.0  0.23400  0.32800  0.81700  1.0000
  H   H20       1.0  0.67200  0.90600  0.81700  1.0000
  H   H21       1.0  0.09360  0.76600  0.81700  1.0000
  H   H22       1.0  0.31600  0.90500  0.92900  1.0000
  H   H23       1.0  0.09460  0.41100  0.92900  1.0000
  H   H24       1.0  0.58900  0.68400  0.92900  1.0000
  O   O1        1.0  0.02330  0.77600  0.31100  1.0000
  O   O2        1.0  0.75300  0.97700  0.31100  1.0000
  O   O3        1.0  0.22400  0.24700  0.31100  1.0000
  O   O4        1.0  0.77600  0.75300  0.68900  1.0000
  O   O5        1.0  0.24700  0.02330  0.68900  1.0000
  O   O6        1.0  0.97700  0.22400  0.68900  1.0000
