data_image0
_chemical_formula_structural       Al6B6K6O21
_chemical_formula_sum              "Al6 B6 K6 O21"
_cell_length_a       8.54091
_cell_length_b       8.54094
_cell_length_c       8.35668
_cell_angle_alpha    90
_cell_angle_beta     90
_cell_angle_gamma    120

_space_group_name_H-M_alt    "P 1"
_space_group_IT_number       1

loop_
  _space_group_symop_operation_xyz
  'x, y, z'

loop_
  _atom_site_type_symbol
  _atom_site_label
  _atom_site_symmetry_multiplicity
  _atom_site_fract_x
  _atom_site_fract_y
  _atom_site_fract_z
  _atom_site_occupancy
  Al  Al1       1.0  0.33300  0.66700  0.18600  1.0000
  Al  Al2       1.0  0.66700  0.33300  0.22700  1.0000
  Al  Al3       1.0  0.00000  0.00000  0.29500  1.0000
  Al  Al4       1.0  0.00000  0.00000  0.70500  1.0000
  Al  Al5       1.0  0.33300  0.66700  0.77300  1.0000
  Al  Al6       1.0  0.66700  0.33300  0.81400  1.0000
  B   B1        1.0  0.99900  0.66500  0.25800  1.0000
  B   B2        1.0  0.66600  0.00126  0.25800  1.0000
  B   B3        1.0  0.33500  0.33400  0.25800  1.0000
  B   B4        1.0  0.66500  0.99900  0.74200  1.0000
  B   B5        1.0  0.33400  0.33500  0.74200  1.0000
  B   B6        1.0  0.00126  0.66600  0.74200  1.0000
  K   K1        1.0  0.31500  0.00000  0.00000  1.0000
  K   K2        1.0  0.00000  0.31500  0.00000  1.0000
  K   K3        1.0  0.68500  0.68500  0.00000  1.0000
  K   K4        1.0  0.64600  0.64600  0.50000  1.0000
  K   K5        1.0  0.00000  0.35400  0.50000  1.0000
  K   K6        1.0  0.35400  0.00000  0.50000  1.0000
  O   O1        1.0  0.66700  0.33300  0.02030  1.0000
  O   O2        1.0  0.06050  0.84300  0.22100  1.0000
  O   O3        1.0  0.15700  0.21700  0.22100  1.0000
  O   O4        1.0  0.78300  0.94000  0.22100  1.0000
  O   O5        1.0  0.11400  0.59500  0.25600  1.0000
  O   O6        1.0  0.40500  0.51800  0.25600  1.0000
  O   O7        1.0  0.48200  0.88600  0.25600  1.0000
  O   O8        1.0  0.82000  0.55200  0.29800  1.0000
  O   O9        1.0  0.73200  0.18000  0.29800  1.0000
  O   O10       1.0  0.44800  0.26800  0.29800  1.0000
  O   O11       1.0  0.00000  0.00000  0.50000  1.0000
  O   O12       1.0  0.55200  0.82000  0.70200  1.0000
  O   O13       1.0  0.26800  0.44800  0.70200  1.0000
  O   O14       1.0  0.18000  0.73200  0.70200  1.0000
  O   O15       1.0  0.51800  0.40500  0.74400  1.0000
  O   O16       1.0  0.59500  0.11400  0.74400  1.0000
  O   O17       1.0  0.88600  0.48200  0.74400  1.0000
  O   O18       1.0  0.21700  0.15700  0.77900  1.0000
  O   O19       1.0  0.84300  0.06050  0.77900  1.0000
  O   O20       1.0  0.94000  0.78300  0.77900  1.0000
  O   O21       1.0  0.33300  0.66700  0.98000  1.0000
