data_image0
_chemical_formula_structural       Ga4Mn30Tb4
_chemical_formula_sum              "Ga4 Mn30 Tb4"
_cell_length_a       8.66672
_cell_length_b       8.66067
_cell_length_c       7.9513
_cell_angle_alpha    90
_cell_angle_beta     90
_cell_angle_gamma    120.023

_space_group_name_H-M_alt    "P 1"
_space_group_IT_number       1

loop_
  _space_group_symop_operation_xyz
  'x, y, z'

loop_
  _atom_site_type_symbol
  _atom_site_label
  _atom_site_symmetry_multiplicity
  _atom_site_fract_x
  _atom_site_fract_y
  _atom_site_fract_z
  _atom_site_occupancy
  Ga  Ga1       1.0  0.33400  0.66700  0.09560  1.0000
  Ga  Ga2       1.0  0.33400  0.66700  0.40400  1.0000
  Ga  Ga3       1.0  0.66600  0.33300  0.59600  1.0000
  Ga  Ga4       1.0  0.66600  0.33300  0.90400  1.0000
  Mn  Mn1       1.0  0.50000  0.00000  0.00000  1.0000
  Mn  Mn2       1.0  0.00000  0.50000  0.00000  1.0000
  Mn  Mn3       1.0  0.50000  0.50000  0.00000  1.0000
  Mn  Mn4       1.0  0.33800  0.16900  0.04420  1.0000
  Mn  Mn5       1.0  0.83100  0.16900  0.04420  1.0000
  Mn  Mn6       1.0  0.83100  0.66200  0.04420  1.0000
  Mn  Mn7       1.0  0.06100  0.38700  0.25000  1.0000
  Mn  Mn8       1.0  0.32600  0.38700  0.25000  1.0000
  Mn  Mn9       1.0  0.06150  0.67500  0.25000  1.0000
  Mn  Mn10      1.0  0.61300  0.67500  0.25000  1.0000
  Mn  Mn11      1.0  0.32600  0.93900  0.25000  1.0000
  Mn  Mn12      1.0  0.61300  0.93900  0.25000  1.0000
  Mn  Mn13      1.0  0.83100  0.66200  0.45600  1.0000
  Mn  Mn14      1.0  0.33800  0.16900  0.45600  1.0000
  Mn  Mn15      1.0  0.83100  0.16900  0.45600  1.0000
  Mn  Mn16      1.0  0.50000  0.00000  0.50000  1.0000
  Mn  Mn17      1.0  0.00000  0.50000  0.50000  1.0000
  Mn  Mn18      1.0  0.50000  0.50000  0.50000  1.0000
  Mn  Mn19      1.0  0.16900  0.83100  0.54400  1.0000
  Mn  Mn20      1.0  0.66200  0.83100  0.54400  1.0000
  Mn  Mn21      1.0  0.16900  0.33800  0.54400  1.0000
  Mn  Mn22      1.0  0.38700  0.06130  0.75000  1.0000
  Mn  Mn23      1.0  0.67400  0.06130  0.75000  1.0000
  Mn  Mn24      1.0  0.38700  0.32500  0.75000  1.0000
  Mn  Mn25      1.0  0.93900  0.32500  0.75000  1.0000
  Mn  Mn26      1.0  0.67400  0.61300  0.75000  1.0000
  Mn  Mn27      1.0  0.93900  0.61300  0.75000  1.0000
  Mn  Mn28      1.0  0.16900  0.33800  0.95600  1.0000
  Mn  Mn29      1.0  0.16900  0.83100  0.95600  1.0000
  Mn  Mn30      1.0  0.66200  0.83100  0.95600  1.0000
  Tb  Tb1       1.0  0.00000  0.00000  0.25000  1.0000
  Tb  Tb2       1.0  0.66600  0.33300  0.25000  1.0000
  Tb  Tb3       1.0  0.00000  0.00000  0.75000  1.0000
  Tb  Tb4       1.0  0.33400  0.66700  0.75000  1.0000
