data_image0
_chemical_formula_structural       Ba8Li2O24Ta6
_chemical_formula_sum              "Ba8 Li2 O24 Ta6"
_cell_length_a       5.80115
_cell_length_b       5.80115
_cell_length_c       19.119
_cell_angle_alpha    90
_cell_angle_beta     90
_cell_angle_gamma    120

_space_group_name_H-M_alt    "P 1"
_space_group_IT_number       1

loop_
  _space_group_symop_operation_xyz
  'x, y, z'

loop_
  _atom_site_type_symbol
  _atom_site_label
  _atom_site_symmetry_multiplicity
  _atom_site_fract_x
  _atom_site_fract_y
  _atom_site_fract_z
  _atom_site_occupancy
  Ba  Ba1       1.0  0.00000  0.00000  0.00352  1.0000
  Ba  Ba2       1.0  0.33300  0.66700  0.14400  1.0000
  Ba  Ba3       1.0  0.66700  0.33300  0.24700  1.0000
  Ba  Ba4       1.0  0.33300  0.66700  0.36900  1.0000
  Ba  Ba5       1.0  0.00000  0.00000  0.50400  1.0000
  Ba  Ba6       1.0  0.66700  0.33300  0.64400  1.0000
  Ba  Ba7       1.0  0.33300  0.66700  0.74700  1.0000
  Ba  Ba8       1.0  0.66700  0.33300  0.86900  1.0000
  Li  Li1       1.0  0.00000  0.00000  0.16700  1.0000
  Li  Li2       1.0  0.00000  0.00000  0.66700  1.0000
  O   O1        1.0  0.82700  0.17300  0.11900  1.0000
  O   O2        1.0  0.34500  0.17300  0.11900  1.0000
  O   O3        1.0  0.82700  0.65500  0.11900  1.0000
  O   O4        1.0  0.16000  0.32000  0.25700  1.0000
  O   O5        1.0  0.68000  0.84000  0.25700  1.0000
  O   O6        1.0  0.16000  0.84000  0.25700  1.0000
  O   O7        1.0  0.83100  0.16900  0.37900  1.0000
  O   O8        1.0  0.33800  0.16900  0.37900  1.0000
  O   O9        1.0  0.83100  0.66200  0.37900  1.0000
  O   O10       1.0  0.50100  0.00202  0.49700  1.0000
  O   O11       1.0  0.99800  0.49900  0.49700  1.0000
  O   O12       1.0  0.50100  0.49900  0.49700  1.0000
  O   O13       1.0  0.17300  0.82700  0.61900  1.0000
  O   O14       1.0  0.17300  0.34500  0.61900  1.0000
  O   O15       1.0  0.65500  0.82700  0.61900  1.0000
  O   O16       1.0  0.84000  0.16000  0.75700  1.0000
  O   O17       1.0  0.32000  0.16000  0.75700  1.0000
  O   O18       1.0  0.84000  0.68000  0.75700  1.0000
  O   O19       1.0  0.16900  0.33800  0.87900  1.0000
  O   O20       1.0  0.16900  0.83100  0.87900  1.0000
  O   O21       1.0  0.66200  0.83100  0.87900  1.0000
  O   O22       1.0  0.00202  0.50100  0.99700  1.0000
  O   O23       1.0  0.49900  0.99800  0.99700  1.0000
  O   O24       1.0  0.49900  0.50100  0.99700  1.0000
  Ta  Ta1       1.0  0.66700  0.33300  0.06630  1.0000
  Ta  Ta2       1.0  0.00000  0.00000  0.30900  1.0000
  Ta  Ta3       1.0  0.66700  0.33300  0.43900  1.0000
  Ta  Ta4       1.0  0.33300  0.66700  0.56600  1.0000
  Ta  Ta5       1.0  0.00000  0.00000  0.80900  1.0000
  Ta  Ta6       1.0  0.33300  0.66700  0.93900  1.0000
