data_image0
_chemical_formula_structural       F6Pd2
_chemical_formula_sum              "F6 Pd2"
_cell_length_a       5.43741
_cell_length_b       5.43741
_cell_length_c       5.43741
_cell_angle_alpha    52.6078
_cell_angle_beta     52.6078
_cell_angle_gamma    52.6078

_space_group_name_H-M_alt    "P 1"
_space_group_IT_number       1

loop_
  _space_group_symop_operation_xyz
  'x, y, z'

loop_
  _atom_site_type_symbol
  _atom_site_label
  _atom_site_symmetry_multiplicity
  _atom_site_fract_x
  _atom_site_fract_y
  _atom_site_fract_z
  _atom_site_occupancy
  F   F1        1.0  0.43000  0.75000  0.07030  1.0000
  F   F2        1.0  0.93000  0.57000  0.25000  1.0000
  F   F3        1.0  0.75000  0.07030  0.43000  1.0000
  F   F4        1.0  0.25000  0.93000  0.57000  1.0000
  F   F5        1.0  0.07030  0.43000  0.75000  1.0000
  F   F6        1.0  0.57000  0.25000  0.93000  1.0000
  Pd  Pd1       1.0  0.00000  0.00000  0.00000  1.0000
  Pd  Pd2       1.0  0.50000  0.50000  0.50000  1.0000
