data_image0
_chemical_formula_structural       Fe4Li12Na8O16
_chemical_formula_sum              "Fe4 Li12 Na8 O16"
_cell_length_a       8.23957
_cell_length_b       7.90264
_cell_length_c       6.55685
_cell_angle_alpha    90
_cell_angle_beta     90
_cell_angle_gamma    90

_space_group_name_H-M_alt    "P 1"
_space_group_IT_number       1

loop_
  _space_group_symop_operation_xyz
  'x, y, z'

loop_
  _atom_site_type_symbol
  _atom_site_label
  _atom_site_symmetry_multiplicity
  _atom_site_fract_x
  _atom_site_fract_y
  _atom_site_fract_z
  _atom_site_occupancy
  Fe  Fe1       1.0  0.12200  0.22700  0.00000  1.0000
  Fe  Fe2       1.0  0.87800  0.77300  0.00000  1.0000
  Fe  Fe3       1.0  0.62200  0.27300  0.50000  1.0000
  Fe  Fe4       1.0  0.37800  0.72700  0.50000  1.0000
  Li  Li1       1.0  0.41400  0.26600  0.00000  1.0000
  Li  Li2       1.0  0.58600  0.73400  0.00000  1.0000
  Li  Li3       1.0  0.35200  0.48700  0.24400  1.0000
  Li  Li4       1.0  0.64800  0.51300  0.24400  1.0000
  Li  Li5       1.0  0.85200  0.01290  0.25600  1.0000
  Li  Li6       1.0  0.14800  0.98700  0.25600  1.0000
  Li  Li7       1.0  0.91400  0.23400  0.50000  1.0000
  Li  Li8       1.0  0.08570  0.76600  0.50000  1.0000
  Li  Li9       1.0  0.85200  0.01290  0.74400  1.0000
  Li  Li10      1.0  0.14800  0.98700  0.74400  1.0000
  Li  Li11      1.0  0.35200  0.48700  0.75600  1.0000
  Li  Li12      1.0  0.64800  0.51300  0.75600  1.0000
  Na  Na1       1.0  0.75000  0.25700  0.00000  1.0000
  Na  Na2       1.0  0.25000  0.74300  0.00000  1.0000
  Na  Na3       1.0  0.50000  0.00000  0.24000  1.0000
  Na  Na4       1.0  0.00000  0.50000  0.26000  1.0000
  Na  Na5       1.0  0.25000  0.24300  0.50000  1.0000
  Na  Na6       1.0  0.75000  0.75700  0.50000  1.0000
  Na  Na7       1.0  0.00000  0.50000  0.74000  1.0000
  Na  Na8       1.0  0.50000  0.00000  0.76000  1.0000
  O   O1        1.0  0.27700  0.04730  0.00000  1.0000
  O   O2        1.0  0.22400  0.44300  0.00000  1.0000
  O   O3        1.0  0.77600  0.55700  0.00000  1.0000
  O   O4        1.0  0.72300  0.95300  0.00000  1.0000
  O   O5        1.0  0.00959  0.19700  0.24600  1.0000
  O   O6        1.0  0.99000  0.80300  0.24600  1.0000
  O   O7        1.0  0.51000  0.30300  0.25400  1.0000
  O   O8        1.0  0.49000  0.69700  0.25400  1.0000
  O   O9        1.0  0.72400  0.05720  0.50000  1.0000
  O   O10       1.0  0.77700  0.45300  0.50000  1.0000
  O   O11       1.0  0.22300  0.54700  0.50000  1.0000
  O   O12       1.0  0.27600  0.94300  0.50000  1.0000
  O   O13       1.0  0.51000  0.30300  0.74600  1.0000
  O   O14       1.0  0.49000  0.69700  0.74600  1.0000
  O   O15       1.0  0.00959  0.19700  0.75400  1.0000
  O   O16       1.0  0.99000  0.80300  0.75400  1.0000
