data_image0
_chemical_formula_structural       B6Fe6K6O21
_chemical_formula_sum              "B6 Fe6 K6 O21"
_cell_length_a       8.73565
_cell_length_b       8.73571
_cell_length_c       8.46253
_cell_angle_alpha    90
_cell_angle_beta     90.0002
_cell_angle_gamma    120

_space_group_name_H-M_alt    "P 1"
_space_group_IT_number       1

loop_
  _space_group_symop_operation_xyz
  'x, y, z'

loop_
  _atom_site_type_symbol
  _atom_site_label
  _atom_site_symmetry_multiplicity
  _atom_site_fract_x
  _atom_site_fract_y
  _atom_site_fract_z
  _atom_site_occupancy
  B   B1        1.0  0.99900  0.33500  0.26000  1.0000
  B   B2        1.0  0.66500  0.66400  0.26000  1.0000
  B   B3        1.0  0.33600  0.00100  0.26000  1.0000
  B   B4        1.0  0.66400  0.66500  0.74000  1.0000
  B   B5        1.0  0.33500  0.99900  0.74000  1.0000
  B   B6        1.0  0.00100  0.33600  0.74000  1.0000
  Fe  Fe1       1.0  0.33300  0.66700  0.19600  1.0000
  Fe  Fe2       1.0  0.66700  0.33300  0.23900  1.0000
  Fe  Fe3       1.0  0.00000  0.00000  0.28300  1.0000
  Fe  Fe4       1.0  0.00000  0.00000  0.71700  1.0000
  Fe  Fe5       1.0  0.33300  0.66700  0.76100  1.0000
  Fe  Fe6       1.0  0.66700  0.33300  0.80400  1.0000
  K   K1        1.0  0.67200  0.00000  0.00000  1.0000
  K   K2        1.0  0.32800  0.32800  0.00000  1.0000
  K   K3        1.0  0.00000  0.67200  0.00000  1.0000
  K   K4        1.0  0.65500  0.00000  0.50000  1.0000
  K   K5        1.0  0.00000  0.65500  0.50000  1.0000
  K   K6        1.0  0.34500  0.34500  0.50000  1.0000
  O   O1        1.0  0.66700  0.33300  0.02150  1.0000
  O   O2        1.0  0.06980  0.23200  0.21300  1.0000
  O   O3        1.0  0.16200  0.93000  0.21300  1.0000
  O   O4        1.0  0.76800  0.83800  0.21300  1.0000
  O   O5        1.0  0.10000  0.51600  0.26300  1.0000
  O   O6        1.0  0.41600  0.90000  0.26300  1.0000
  O   O7        1.0  0.48400  0.58400  0.26300  1.0000
  O   O8        1.0  0.74300  0.56700  0.30500  1.0000
  O   O9        1.0  0.82400  0.25700  0.30500  1.0000
  O   O10       1.0  0.43300  0.17600  0.30500  1.0000
  O   O11       1.0  0.00000  0.00000  0.50000  1.0000
  O   O12       1.0  0.56700  0.74300  0.69500  1.0000
  O   O13       1.0  0.17600  0.43400  0.69500  1.0000
  O   O14       1.0  0.25700  0.82400  0.69500  1.0000
  O   O15       1.0  0.51600  0.10000  0.73700  1.0000
  O   O16       1.0  0.58400  0.48400  0.73700  1.0000
  O   O17       1.0  0.90000  0.41600  0.73700  1.0000
  O   O18       1.0  0.23200  0.06980  0.78700  1.0000
  O   O19       1.0  0.83800  0.76800  0.78700  1.0000
  O   O20       1.0  0.93000  0.16200  0.78700  1.0000
  O   O21       1.0  0.33300  0.66700  0.97800  1.0000
