data_image0
_chemical_formula_structural       LiPdSi3
_chemical_formula_sum              "Li1 Pd1 Si3"
_cell_length_a       3.43879
_cell_length_b       3.43879
_cell_length_c       6.91977
_cell_angle_alpha    104.387
_cell_angle_beta     104.387
_cell_angle_gamma    90

_space_group_name_H-M_alt    "P 1"
_space_group_IT_number       1

loop_
  _space_group_symop_operation_xyz
  'x, y, z'

loop_
  _atom_site_type_symbol
  _atom_site_label
  _atom_site_symmetry_multiplicity
  _atom_site_fract_x
  _atom_site_fract_y
  _atom_site_fract_z
  _atom_site_occupancy
  Li  Li1       1.0  0.39500  0.39500  0.78900  1.0000
  Pd  Pd1       1.0  0.01520  0.01520  0.03040  1.0000
  Si  Si1       1.0  0.59000  0.59000  0.17900  1.0000
  Si  Si2       1.0  0.74000  0.24000  0.48000  1.0000
  Si  Si3       1.0  0.24000  0.74000  0.48000  1.0000
