data_image0
_chemical_formula_structural       BaGe3Pt
_chemical_formula_sum              "Ba1 Ge3 Pt1"
_cell_length_a       4.62271
_cell_length_b       4.62271
_cell_length_c       6.12697
_cell_angle_alpha    112.163
_cell_angle_beta     112.163
_cell_angle_gamma    90

_space_group_name_H-M_alt    "P 1"
_space_group_IT_number       1

loop_
  _space_group_symop_operation_xyz
  'x, y, z'

loop_
  _atom_site_type_symbol
  _atom_site_label
  _atom_site_symmetry_multiplicity
  _atom_site_fract_x
  _atom_site_fract_y
  _atom_site_fract_z
  _atom_site_occupancy
  Ba  Ba1       1.0  0.00003  0.00003  0.00005  1.0000
  Ge  Ge1       1.0  0.60000  0.60000  0.20000  1.0000
  Ge  Ge2       1.0  0.74600  0.24600  0.49200  1.0000
  Ge  Ge3       1.0  0.24600  0.74600  0.49200  1.0000
  Pt  Pt1       1.0  0.35200  0.35200  0.70500  1.0000
