data_image0
_chemical_formula_structural       As4Ca4H8Mn2O20
_chemical_formula_sum              "As4 Ca4 H8 Mn2 O20"
_cell_length_a       5.84776
_cell_length_b       12.8063
_cell_length_c       5.64133
_cell_angle_alpha    90
_cell_angle_beta     107.755
_cell_angle_gamma    90

_space_group_name_H-M_alt    "P 1"
_space_group_IT_number       1

loop_
  _space_group_symop_operation_xyz
  'x, y, z'

loop_
  _atom_site_type_symbol
  _atom_site_label
  _atom_site_symmetry_multiplicity
  _atom_site_fract_x
  _atom_site_fract_y
  _atom_site_fract_z
  _atom_site_occupancy
  As  As1       1.0  0.22700  0.37700  0.07660  1.0000
  As  As2       1.0  0.77300  0.87700  0.42300  1.0000
  As  As3       1.0  0.22700  0.12300  0.57700  1.0000
  As  As4       1.0  0.77300  0.62300  0.92300  1.0000
  Ca  Ca1       1.0  0.57100  0.11700  0.24600  1.0000
  Ca  Ca2       1.0  0.42900  0.61700  0.25400  1.0000
  Ca  Ca3       1.0  0.57100  0.38300  0.74600  1.0000
  Ca  Ca4       1.0  0.42900  0.88300  0.75400  1.0000
  H   H1        1.0  0.89500  0.21400  0.00263  1.0000
  H   H2        1.0  0.31200  0.84500  0.20000  1.0000
  H   H3        1.0  0.68800  0.34500  0.30000  1.0000
  H   H4        1.0  0.10500  0.71400  0.49700  1.0000
  H   H5        1.0  0.89500  0.28600  0.50300  1.0000
  H   H6        1.0  0.31200  0.65500  0.70000  1.0000
  H   H7        1.0  0.68800  0.15500  0.80000  1.0000
  H   H8        1.0  0.10500  0.78600  0.99700  1.0000
  Mn  Mn1       1.0  0.00000  0.00000  0.00000  1.0000
  Mn  Mn2       1.0  0.00000  0.50000  0.50000  1.0000
  O   O1        1.0  0.94800  0.32400  0.00201  1.0000
  O   O2        1.0  0.19500  0.85700  0.03090  1.0000
  O   O3        1.0  0.45100  0.29000  0.07330  1.0000
  O   O4        1.0  0.75000  0.53100  0.14000  1.0000
  O   O5        1.0  0.70600  0.94300  0.14400  1.0000
  O   O6        1.0  0.29400  0.44300  0.35600  1.0000
  O   O7        1.0  0.25000  0.03140  0.36000  1.0000
  O   O8        1.0  0.54900  0.79000  0.42700  1.0000
  O   O9        1.0  0.80500  0.35700  0.46900  1.0000
  O   O10       1.0  0.05200  0.82400  0.49800  1.0000
  O   O11       1.0  0.94800  0.17600  0.50200  1.0000
  O   O12       1.0  0.19500  0.64300  0.53100  1.0000
  O   O13       1.0  0.45100  0.21000  0.57300  1.0000
  O   O14       1.0  0.75000  0.96900  0.64000  1.0000
  O   O15       1.0  0.70600  0.55700  0.64400  1.0000
  O   O16       1.0  0.29400  0.05720  0.85600  1.0000
  O   O17       1.0  0.25000  0.46900  0.86000  1.0000
  O   O18       1.0  0.54900  0.71000  0.92700  1.0000
  O   O19       1.0  0.80500  0.14300  0.96900  1.0000
  O   O20       1.0  0.05200  0.67600  0.99800  1.0000
