data_image0
_chemical_formula_structural       As2Sn2Sr
_chemical_formula_sum              "As2 Sn2 Sr1"
_cell_length_a       4.26096
_cell_length_b       4.26096
_cell_length_c       9.32681
_cell_angle_alpha    76.7956
_cell_angle_beta     90
_cell_angle_gamma    120

_space_group_name_H-M_alt    "P 1"
_space_group_IT_number       1

loop_
  _space_group_symop_operation_xyz
  'x, y, z'

loop_
  _atom_site_type_symbol
  _atom_site_label
  _atom_site_symmetry_multiplicity
  _atom_site_fract_x
  _atom_site_fract_y
  _atom_site_fract_z
  _atom_site_occupancy
  As  As1       1.0  0.59300  0.18600  0.22200  1.0000
  As  As2       1.0  0.40700  0.81400  0.77800  1.0000
  Sn  Sn1       1.0  0.20900  0.41700  0.37400  1.0000
  Sn  Sn2       1.0  0.79100  0.58300  0.62600  1.0000
  Sr  Sr1       1.0  0.00000  0.00000  0.00000  1.0000
