data_image0
_chemical_formula_structural       Ga4Li12Na8O16
_chemical_formula_sum              "Ga4 Li12 Na8 O16"
_cell_length_a       8.19854
_cell_length_b       7.89515
_cell_length_c       6.51378
_cell_angle_alpha    90
_cell_angle_beta     90
_cell_angle_gamma    90

_space_group_name_H-M_alt    "P 1"
_space_group_IT_number       1

loop_
  _space_group_symop_operation_xyz
  'x, y, z'

loop_
  _atom_site_type_symbol
  _atom_site_label
  _atom_site_symmetry_multiplicity
  _atom_site_fract_x
  _atom_site_fract_y
  _atom_site_fract_z
  _atom_site_occupancy
  Ga  Ga1       1.0  0.12500  0.22600  0.00000  1.0000
  Ga  Ga2       1.0  0.87500  0.77400  0.00000  1.0000
  Ga  Ga3       1.0  0.62500  0.27400  0.50000  1.0000
  Ga  Ga4       1.0  0.37500  0.72600  0.50000  1.0000
  Li  Li1       1.0  0.41800  0.26400  0.00000  1.0000
  Li  Li2       1.0  0.58200  0.73600  0.00000  1.0000
  Li  Li3       1.0  0.35200  0.48500  0.24500  1.0000
  Li  Li4       1.0  0.64800  0.51500  0.24500  1.0000
  Li  Li5       1.0  0.85200  0.01480  0.25500  1.0000
  Li  Li6       1.0  0.14800  0.98500  0.25500  1.0000
  Li  Li7       1.0  0.91800  0.23600  0.50000  1.0000
  Li  Li8       1.0  0.08220  0.76400  0.50000  1.0000
  Li  Li9       1.0  0.85200  0.01480  0.74500  1.0000
  Li  Li10      1.0  0.14800  0.98500  0.74500  1.0000
  Li  Li11      1.0  0.35200  0.48500  0.75500  1.0000
  Li  Li12      1.0  0.64800  0.51500  0.75500  1.0000
  Na  Na1       1.0  0.75300  0.25900  0.00000  1.0000
  Na  Na2       1.0  0.24700  0.74100  0.00000  1.0000
  Na  Na3       1.0  0.50000  0.00000  0.24200  1.0000
  Na  Na4       1.0  0.00000  0.50000  0.25800  1.0000
  Na  Na5       1.0  0.25300  0.24100  0.50000  1.0000
  Na  Na6       1.0  0.74700  0.75900  0.50000  1.0000
  Na  Na7       1.0  0.00000  0.50000  0.74200  1.0000
  Na  Na8       1.0  0.50000  0.00000  0.75800  1.0000
  O   O1        1.0  0.27900  0.04690  0.00000  1.0000
  O   O2        1.0  0.22500  0.44000  0.00000  1.0000
  O   O3        1.0  0.77500  0.56000  0.00000  1.0000
  O   O4        1.0  0.72100  0.95300  0.00000  1.0000
  O   O5        1.0  0.01100  0.19700  0.24300  1.0000
  O   O6        1.0  0.98900  0.80300  0.24300  1.0000
  O   O7        1.0  0.51100  0.30300  0.25700  1.0000
  O   O8        1.0  0.48900  0.69700  0.25700  1.0000
  O   O9        1.0  0.72500  0.06030  0.50000  1.0000
  O   O10       1.0  0.77900  0.45300  0.50000  1.0000
  O   O11       1.0  0.22100  0.54700  0.50000  1.0000
  O   O12       1.0  0.27500  0.94000  0.50000  1.0000
  O   O13       1.0  0.51100  0.30300  0.74300  1.0000
  O   O14       1.0  0.48900  0.69700  0.74300  1.0000
  O   O15       1.0  0.01100  0.19700  0.75700  1.0000
  O   O16       1.0  0.98900  0.80300  0.75700  1.0000
