data_image0
_chemical_formula_structural       Ba8Li2Nb6O24
_chemical_formula_sum              "Ba8 Li2 Nb6 O24"
_cell_length_a       5.81824
_cell_length_b       5.81824
_cell_length_c       19.1406
_cell_angle_alpha    90
_cell_angle_beta     90
_cell_angle_gamma    120

_space_group_name_H-M_alt    "P 1"
_space_group_IT_number       1

loop_
  _space_group_symop_operation_xyz
  'x, y, z'

loop_
  _atom_site_type_symbol
  _atom_site_label
  _atom_site_symmetry_multiplicity
  _atom_site_fract_x
  _atom_site_fract_y
  _atom_site_fract_z
  _atom_site_occupancy
  Ba  Ba1       1.0  0.00000  0.00000  0.00186  1.0000
  Ba  Ba2       1.0  0.33300  0.66700  0.14300  1.0000
  Ba  Ba3       1.0  0.66700  0.33300  0.24900  1.0000
  Ba  Ba4       1.0  0.33300  0.66700  0.37100  1.0000
  Ba  Ba5       1.0  0.00000  0.00000  0.50200  1.0000
  Ba  Ba6       1.0  0.66700  0.33300  0.64300  1.0000
  Ba  Ba7       1.0  0.33300  0.66700  0.74900  1.0000
  Ba  Ba8       1.0  0.66700  0.33300  0.87100  1.0000
  Li  Li1       1.0  0.00000  0.00000  0.16700  1.0000
  Li  Li2       1.0  0.00000  0.00000  0.66700  1.0000
  Nb  Nb1       1.0  0.66700  0.33300  0.06820  1.0000
  Nb  Nb2       1.0  0.00000  0.00000  0.30800  1.0000
  Nb  Nb3       1.0  0.66700  0.33300  0.44000  1.0000
  Nb  Nb4       1.0  0.33300  0.66700  0.56800  1.0000
  Nb  Nb5       1.0  0.00000  0.00000  0.80800  1.0000
  Nb  Nb6       1.0  0.33300  0.66700  0.94000  1.0000
  O   O1        1.0  0.34300  0.17200  0.12000  1.0000
  O   O2        1.0  0.82800  0.65700  0.12000  1.0000
  O   O3        1.0  0.82800  0.17200  0.12000  1.0000
  O   O4        1.0  0.16100  0.32200  0.25600  1.0000
  O   O5        1.0  0.67800  0.83900  0.25600  1.0000
  O   O6        1.0  0.16100  0.83900  0.25600  1.0000
  O   O7        1.0  0.33800  0.16900  0.37800  1.0000
  O   O8        1.0  0.83100  0.16900  0.37800  1.0000
  O   O9        1.0  0.83100  0.66200  0.37800  1.0000
  O   O10       1.0  0.50100  0.00153  0.49700  1.0000
  O   O11       1.0  0.50100  0.49900  0.49700  1.0000
  O   O12       1.0  0.99800  0.49900  0.49700  1.0000
  O   O13       1.0  0.17200  0.34300  0.62000  1.0000
  O   O14       1.0  0.65700  0.82800  0.62000  1.0000
  O   O15       1.0  0.17200  0.82800  0.62000  1.0000
  O   O16       1.0  0.83900  0.16100  0.75600  1.0000
  O   O17       1.0  0.32200  0.16100  0.75600  1.0000
  O   O18       1.0  0.83900  0.67800  0.75600  1.0000
  O   O19       1.0  0.16900  0.83100  0.87800  1.0000
  O   O20       1.0  0.16900  0.33800  0.87800  1.0000
  O   O21       1.0  0.66200  0.83100  0.87800  1.0000
  O   O22       1.0  0.49900  0.50100  0.99700  1.0000
  O   O23       1.0  0.00153  0.50100  0.99700  1.0000
  O   O24       1.0  0.49900  0.99800  0.99700  1.0000
