data_image0
_chemical_formula_structural       Cu3Ti2
_chemical_formula_sum              "Cu3 Ti2"
_cell_length_a       3.12693
_cell_length_b       3.12693
_cell_length_c       7.36488
_cell_angle_alpha    102.256
_cell_angle_beta     102.256
_cell_angle_gamma    90

_space_group_name_H-M_alt    "P 1"
_space_group_IT_number       1

loop_
  _space_group_symop_operation_xyz
  'x, y, z'

loop_
  _atom_site_type_symbol
  _atom_site_label
  _atom_site_symmetry_multiplicity
  _atom_site_fract_x
  _atom_site_fract_y
  _atom_site_fract_z
  _atom_site_occupancy
  Cu  Cu1       1.0  0.00000  0.00000  0.00000  1.0000
  Cu  Cu2       1.0  0.20500  0.20500  0.40900  1.0000
  Cu  Cu3       1.0  0.79500  0.79500  0.59100  1.0000
  Ti  Ti1       1.0  0.60400  0.60400  0.20800  1.0000
  Ti  Ti2       1.0  0.39600  0.39600  0.79200  1.0000
