data_image0
_chemical_formula_structural       Ga4K8Li12O16
_chemical_formula_sum              "Ga4 K8 Li12 O16"
_cell_length_a       5.52265
_cell_length_b       8.73139
_cell_length_c       10.9048
_cell_angle_alpha    90
_cell_angle_beta     111.296
_cell_angle_gamma    90

_space_group_name_H-M_alt    "P 1"
_space_group_IT_number       1

loop_
  _space_group_symop_operation_xyz
  'x, y, z'

loop_
  _atom_site_type_symbol
  _atom_site_label
  _atom_site_symmetry_multiplicity
  _atom_site_fract_x
  _atom_site_fract_y
  _atom_site_fract_z
  _atom_site_occupancy
  Ga  Ga1       1.0  0.89800  0.71300  0.06320  1.0000
  Ga  Ga2       1.0  0.10200  0.21300  0.43700  1.0000
  Ga  Ga3       1.0  0.89800  0.78700  0.56300  1.0000
  Ga  Ga4       1.0  0.10200  0.28700  0.93700  1.0000
  K   K1        1.0  0.72100  0.22600  0.10800  1.0000
  K   K2        1.0  0.29600  0.99300  0.13900  1.0000
  K   K3        1.0  0.70400  0.49300  0.36100  1.0000
  K   K4        1.0  0.27900  0.72600  0.39200  1.0000
  K   K5        1.0  0.72100  0.27400  0.60800  1.0000
  K   K6        1.0  0.29600  0.50700  0.63900  1.0000
  K   K7        1.0  0.70400  0.00742  0.86100  1.0000
  K   K8        1.0  0.27900  0.77400  0.89200  1.0000
  Li  Li1       1.0  0.37200  0.50800  0.07030  1.0000
  Li  Li2       1.0  0.61700  0.73800  0.20000  1.0000
  Li  Li3       1.0  0.09580  0.46700  0.20300  1.0000
  Li  Li4       1.0  0.90400  0.96700  0.29700  1.0000
  Li  Li5       1.0  0.38300  0.23800  0.30000  1.0000
  Li  Li6       1.0  0.62800  0.00778  0.43000  1.0000
  Li  Li7       1.0  0.37200  0.99200  0.57000  1.0000
  Li  Li8       1.0  0.61700  0.76200  0.70000  1.0000
  Li  Li9       1.0  0.09580  0.03250  0.70300  1.0000
  Li  Li10      1.0  0.90400  0.53300  0.79700  1.0000
  Li  Li11      1.0  0.38300  0.26200  0.80000  1.0000
  Li  Li12      1.0  0.62800  0.49200  0.93000  1.0000
  O   O1        1.0  0.77800  0.89500  0.11300  1.0000
  O   O2        1.0  0.23300  0.31000  0.12000  1.0000
  O   O3        1.0  0.74100  0.55100  0.12400  1.0000
  O   O4        1.0  0.25300  0.67800  0.14400  1.0000
  O   O5        1.0  0.74700  0.17800  0.35600  1.0000
  O   O6        1.0  0.25900  0.05060  0.37600  1.0000
  O   O7        1.0  0.76700  0.81000  0.38000  1.0000
  O   O8        1.0  0.22200  0.39500  0.38700  1.0000
  O   O9        1.0  0.77800  0.60500  0.61300  1.0000
  O   O10       1.0  0.23300  0.19000  0.62000  1.0000
  O   O11       1.0  0.74100  0.94900  0.62400  1.0000
  O   O12       1.0  0.25300  0.82200  0.64400  1.0000
  O   O13       1.0  0.74700  0.32200  0.85600  1.0000
  O   O14       1.0  0.25900  0.44900  0.87600  1.0000
  O   O15       1.0  0.76700  0.69000  0.88000  1.0000
  O   O16       1.0  0.22200  0.10500  0.88700  1.0000
