data_image0
_chemical_formula_structural       Co4Li12Na8O16
_chemical_formula_sum              "Co4 Li12 Na8 O16"
_cell_length_a       8.09995
_cell_length_b       7.91902
_cell_length_c       6.52854
_cell_angle_alpha    90
_cell_angle_beta     90
_cell_angle_gamma    90

_space_group_name_H-M_alt    "P 1"
_space_group_IT_number       1

loop_
  _space_group_symop_operation_xyz
  'x, y, z'

loop_
  _atom_site_type_symbol
  _atom_site_label
  _atom_site_symmetry_multiplicity
  _atom_site_fract_x
  _atom_site_fract_y
  _atom_site_fract_z
  _atom_site_occupancy
  Co  Co1       1.0  0.11700  0.22400  0.00000  1.0000
  Co  Co2       1.0  0.88300  0.77600  0.00000  1.0000
  Co  Co3       1.0  0.61700  0.27600  0.50000  1.0000
  Co  Co4       1.0  0.38300  0.72400  0.50000  1.0000
  Li  Li1       1.0  0.40700  0.26300  0.00000  1.0000
  Li  Li2       1.0  0.59300  0.73700  0.00000  1.0000
  Li  Li3       1.0  0.35000  0.48600  0.24400  1.0000
  Li  Li4       1.0  0.65000  0.51400  0.24400  1.0000
  Li  Li5       1.0  0.85000  0.01450  0.25600  1.0000
  Li  Li6       1.0  0.15000  0.98600  0.25600  1.0000
  Li  Li7       1.0  0.90700  0.23700  0.50000  1.0000
  Li  Li8       1.0  0.09270  0.76300  0.50000  1.0000
  Li  Li9       1.0  0.85000  0.01450  0.74400  1.0000
  Li  Li10      1.0  0.15000  0.98600  0.74400  1.0000
  Li  Li11      1.0  0.35000  0.48600  0.75600  1.0000
  Li  Li12      1.0  0.65000  0.51400  0.75600  1.0000
  Na  Na1       1.0  0.74900  0.25900  0.00000  1.0000
  Na  Na2       1.0  0.25100  0.74100  0.00000  1.0000
  Na  Na3       1.0  0.50000  0.00000  0.24300  1.0000
  Na  Na4       1.0  0.00000  0.50000  0.25700  1.0000
  Na  Na5       1.0  0.24900  0.24100  0.50000  1.0000
  Na  Na6       1.0  0.75100  0.75900  0.50000  1.0000
  Na  Na7       1.0  0.00000  0.50000  0.74300  1.0000
  Na  Na8       1.0  0.50000  0.00000  0.75700  1.0000
  O   O1        1.0  0.27500  0.04380  0.00000  1.0000
  O   O2        1.0  0.21900  0.44100  0.00000  1.0000
  O   O3        1.0  0.78100  0.55900  0.00000  1.0000
  O   O4        1.0  0.72500  0.95600  0.00000  1.0000
  O   O5        1.0  0.01490  0.19700  0.24900  1.0000
  O   O6        1.0  0.98500  0.80300  0.24900  1.0000
  O   O7        1.0  0.51500  0.30300  0.25100  1.0000
  O   O8        1.0  0.48500  0.69700  0.25100  1.0000
  O   O9        1.0  0.71900  0.05940  0.50000  1.0000
  O   O10       1.0  0.77500  0.45600  0.50000  1.0000
  O   O11       1.0  0.22500  0.54400  0.50000  1.0000
  O   O12       1.0  0.28100  0.94100  0.50000  1.0000
  O   O13       1.0  0.51500  0.30300  0.74900  1.0000
  O   O14       1.0  0.48500  0.69700  0.74900  1.0000
  O   O15       1.0  0.01490  0.19700  0.75100  1.0000
  O   O16       1.0  0.98500  0.80300  0.75100  1.0000
