data_image0
_chemical_formula_structural       Co10Mn24Pr4
_chemical_formula_sum              "Co10 Mn24 Pr4"
_cell_length_a       8.59623
_cell_length_b       8.59591
_cell_length_c       7.94415
_cell_angle_alpha    90
_cell_angle_beta     90
_cell_angle_gamma    120.001

_space_group_name_H-M_alt    "P 1"
_space_group_IT_number       1

loop_
  _space_group_symop_operation_xyz
  'x, y, z'

loop_
  _atom_site_type_symbol
  _atom_site_label
  _atom_site_symmetry_multiplicity
  _atom_site_fract_x
  _atom_site_fract_y
  _atom_site_fract_z
  _atom_site_occupancy
  Co  Co1       1.0  0.50000  0.00000  0.00000  1.0000
  Co  Co2       1.0  0.00000  0.50000  0.00000  1.0000
  Co  Co3       1.0  0.50000  0.50000  0.00000  1.0000
  Co  Co4       1.0  0.33300  0.66700  0.10200  1.0000
  Co  Co5       1.0  0.33300  0.66700  0.39800  1.0000
  Co  Co6       1.0  0.50000  0.00000  0.50000  1.0000
  Co  Co7       1.0  0.00000  0.50000  0.50000  1.0000
  Co  Co8       1.0  0.50000  0.50000  0.50000  1.0000
  Co  Co9       1.0  0.66700  0.33300  0.60200  1.0000
  Co  Co10      1.0  0.66700  0.33300  0.89800  1.0000
  Mn  Mn1       1.0  0.34300  0.17100  0.03560  1.0000
  Mn  Mn2       1.0  0.82900  0.17100  0.03560  1.0000
  Mn  Mn3       1.0  0.82900  0.65700  0.03560  1.0000
  Mn  Mn4       1.0  0.06920  0.39500  0.25000  1.0000
  Mn  Mn5       1.0  0.32600  0.39500  0.25000  1.0000
  Mn  Mn6       1.0  0.06920  0.67400  0.25000  1.0000
  Mn  Mn7       1.0  0.60500  0.67400  0.25000  1.0000
  Mn  Mn8       1.0  0.32600  0.93100  0.25000  1.0000
  Mn  Mn9       1.0  0.60500  0.93100  0.25000  1.0000
  Mn  Mn10      1.0  0.82900  0.65700  0.46400  1.0000
  Mn  Mn11      1.0  0.34300  0.17100  0.46400  1.0000
  Mn  Mn12      1.0  0.82900  0.17100  0.46400  1.0000
  Mn  Mn13      1.0  0.17100  0.82900  0.53600  1.0000
  Mn  Mn14      1.0  0.65700  0.82900  0.53600  1.0000
  Mn  Mn15      1.0  0.17100  0.34300  0.53600  1.0000
  Mn  Mn16      1.0  0.39500  0.06920  0.75000  1.0000
  Mn  Mn17      1.0  0.67400  0.06920  0.75000  1.0000
  Mn  Mn18      1.0  0.39500  0.32600  0.75000  1.0000
  Mn  Mn19      1.0  0.93100  0.32600  0.75000  1.0000
  Mn  Mn20      1.0  0.67400  0.60500  0.75000  1.0000
  Mn  Mn21      1.0  0.93100  0.60500  0.75000  1.0000
  Mn  Mn22      1.0  0.17100  0.34300  0.96400  1.0000
  Mn  Mn23      1.0  0.17100  0.82900  0.96400  1.0000
  Mn  Mn24      1.0  0.65700  0.82900  0.96400  1.0000
  Pr  Pr1       1.0  0.00000  0.00000  0.25000  1.0000
  Pr  Pr2       1.0  0.66700  0.33300  0.25000  1.0000
  Pr  Pr3       1.0  0.00000  0.00000  0.75000  1.0000
  Pr  Pr4       1.0  0.33300  0.66700  0.75000  1.0000
