data_image0
_chemical_formula_structural       F24Zr6
_chemical_formula_sum              "F24 Zr6"
_cell_length_a       7.6736
_cell_length_b       7.6736
_cell_length_c       7.67969
_cell_angle_alpha    62.8611
_cell_angle_beta     117.139
_cell_angle_gamma    99.633

_space_group_name_H-M_alt    "P 1"
_space_group_IT_number       1

loop_
  _space_group_symop_operation_xyz
  'x, y, z'

loop_
  _atom_site_type_symbol
  _atom_site_label
  _atom_site_symmetry_multiplicity
  _atom_site_fract_x
  _atom_site_fract_y
  _atom_site_fract_z
  _atom_site_occupancy
  F   F1        1.0  0.00000  0.50000  0.00000  1.0000
  F   F2        1.0  0.84000  0.06540  0.04960  1.0000
  F   F3        1.0  0.40100  0.17300  0.07740  1.0000
  F   F4        1.0  0.74600  0.31800  0.10900  1.0000
  F   F5        1.0  0.96400  0.72400  0.14300  1.0000
  F   F6        1.0  0.50100  0.74000  0.21700  1.0000
  F   F7        1.0  0.38800  0.38800  0.25000  1.0000
  F   F8        1.0  0.74000  0.50100  0.28300  1.0000
  F   F9        1.0  0.72400  0.96400  0.35700  1.0000
  F   F10       1.0  0.31800  0.74600  0.39100  1.0000
  F   F11       1.0  0.17300  0.40100  0.42300  1.0000
  F   F12       1.0  0.06540  0.84000  0.45000  1.0000
  F   F13       1.0  0.50000  0.00000  0.50000  1.0000
  F   F14       1.0  0.93500  0.16000  0.55000  1.0000
  F   F15       1.0  0.82700  0.59900  0.57700  1.0000
  F   F16       1.0  0.68200  0.25400  0.60900  1.0000
  F   F17       1.0  0.27600  0.03590  0.64300  1.0000
  F   F18       1.0  0.26000  0.49900  0.71700  1.0000
  F   F19       1.0  0.61200  0.61200  0.75000  1.0000
  F   F20       1.0  0.49900  0.26000  0.78300  1.0000
  F   F21       1.0  0.03590  0.27600  0.85700  1.0000
  F   F22       1.0  0.25400  0.68200  0.89100  1.0000
  F   F23       1.0  0.59900  0.82700  0.92300  1.0000
  F   F24       1.0  0.16000  0.93500  0.95000  1.0000
  Zr  Zr1       1.0  0.22200  0.63300  0.16700  1.0000
  Zr  Zr2       1.0  0.78700  0.78700  0.25000  1.0000
  Zr  Zr3       1.0  0.63300  0.22200  0.33300  1.0000
  Zr  Zr4       1.0  0.36700  0.77800  0.66700  1.0000
  Zr  Zr5       1.0  0.21300  0.21300  0.75000  1.0000
  Zr  Zr6       1.0  0.77800  0.36700  0.83300  1.0000
