data_image0
_chemical_formula_structural       Ge3PtSr
_chemical_formula_sum              "Ge3 Pt1 Sr1"
_cell_length_a       4.53556
_cell_length_b       4.53556
_cell_length_c       6.04489
_cell_angle_alpha    112.034
_cell_angle_beta     112.034
_cell_angle_gamma    90

_space_group_name_H-M_alt    "P 1"
_space_group_IT_number       1

loop_
  _space_group_symop_operation_xyz
  'x, y, z'

loop_
  _atom_site_type_symbol
  _atom_site_label
  _atom_site_symmetry_multiplicity
  _atom_site_fract_x
  _atom_site_fract_y
  _atom_site_fract_z
  _atom_site_occupancy
  Ge  Ge1       1.0  0.75600  0.25600  0.51200  1.0000
  Ge  Ge2       1.0  0.25600  0.75600  0.51200  1.0000
  Ge  Ge3       1.0  0.40200  0.40200  0.80500  1.0000
  Pt  Pt1       1.0  0.64500  0.64500  0.29000  1.0000
  Sr  Sr1       1.0  0.00062  0.00062  0.00124  1.0000
