data_image0
_chemical_formula_structural       Li2O2Pd
_chemical_formula_sum              "Li2 O2 Pd1"
_cell_length_a       3.00122
_cell_length_b       3.73476
_cell_length_c       5.2086
_cell_angle_alpha    111.009
_cell_angle_beta     106.744
_cell_angle_gamma    90

_space_group_name_H-M_alt    "P 1"
_space_group_IT_number       1

loop_
  _space_group_symop_operation_xyz
  'x, y, z'

loop_
  _atom_site_type_symbol
  _atom_site_label
  _atom_site_symmetry_multiplicity
  _atom_site_fract_x
  _atom_site_fract_y
  _atom_site_fract_z
  _atom_site_occupancy
  Li  Li1       1.0  0.69900  0.69900  0.39900  1.0000
  Li  Li2       1.0  0.30100  0.30100  0.60100  1.0000
  O   O1        1.0  0.65100  0.15100  0.30300  1.0000
  O   O2        1.0  0.34900  0.84900  0.69700  1.0000
  Pd  Pd1       1.0  0.00000  0.00000  0.00000  1.0000
