data_image0
_chemical_formula_structural       Eu2H8I6O22
_chemical_formula_sum              "Eu2 H8 I6 O22"
_cell_length_a       7.00332
_cell_length_b       7.08507
_cell_length_c       10.6412
_cell_angle_alpha    93.3109
_cell_angle_beta     111.903
_cell_angle_gamma    112.986

_space_group_name_H-M_alt    "P 1"
_space_group_IT_number       1

loop_
  _space_group_symop_operation_xyz
  'x, y, z'

loop_
  _atom_site_type_symbol
  _atom_site_label
  _atom_site_symmetry_multiplicity
  _atom_site_fract_x
  _atom_site_fract_y
  _atom_site_fract_z
  _atom_site_occupancy
  Eu  Eu1       1.0  0.79500  0.54800  0.18100  1.0000
  Eu  Eu2       1.0  0.20500  0.45200  0.81900  1.0000
  H   H1        1.0  0.69800  0.89200  0.08320  1.0000
  H   H2        1.0  0.83700  0.01670  0.24200  1.0000
  H   H3        1.0  0.18000  0.06240  0.40100  1.0000
  H   H4        1.0  0.13000  0.25900  0.42900  1.0000
  H   H5        1.0  0.87000  0.74100  0.57100  1.0000
  H   H6        1.0  0.82000  0.93800  0.59900  1.0000
  H   H7        1.0  0.16300  0.98300  0.75800  1.0000
  H   H8        1.0  0.30200  0.10800  0.91700  1.0000
  I   I1        1.0  0.30900  0.87600  0.12900  1.0000
  I   I2        1.0  0.27300  0.36600  0.19600  1.0000
  I   I3        1.0  0.74600  0.28400  0.47800  1.0000
  I   I4        1.0  0.25400  0.71600  0.52200  1.0000
  I   I5        1.0  0.72700  0.63400  0.80400  1.0000
  I   I6        1.0  0.69100  0.12400  0.87100  1.0000
  O   O1        1.0  0.85300  0.27100  0.05820  1.0000
  O   O2        1.0  0.36200  0.48800  0.06710  1.0000
  O   O3        1.0  0.41900  0.14200  0.09420  1.0000
  O   O4        1.0  0.06070  0.87800  0.14400  1.0000
  O   O5        1.0  0.71200  0.88200  0.18000  1.0000
  O   O6        1.0  0.22000  0.58800  0.25700  1.0000
  O   O7        1.0  0.57500  0.47600  0.32800  1.0000
  O   O8        1.0  0.51600  0.02370  0.36000  1.0000
  O   O9        1.0  0.91400  0.36000  0.37300  1.0000
  O   O10       1.0  0.22800  0.21600  0.40000  1.0000
  O   O11       1.0  0.06680  0.81700  0.40900  1.0000
  O   O12       1.0  0.93300  0.18300  0.59100  1.0000
  O   O13       1.0  0.77200  0.78400  0.60000  1.0000
  O   O14       1.0  0.08580  0.64000  0.62700  1.0000
  O   O15       1.0  0.48400  0.97600  0.64000  1.0000
  O   O16       1.0  0.42500  0.52400  0.67200  1.0000
  O   O17       1.0  0.78000  0.41200  0.74300  1.0000
  O   O18       1.0  0.28800  0.11800  0.82000  1.0000
  O   O19       1.0  0.93900  0.12200  0.85600  1.0000
  O   O20       1.0  0.58100  0.85800  0.90600  1.0000
  O   O21       1.0  0.63800  0.51200  0.93300  1.0000
  O   O22       1.0  0.14700  0.72900  0.94200  1.0000
