data_image0
_chemical_formula_structural       Nd2S2Te
_chemical_formula_sum              "Nd2 S2 Te1"
_cell_length_a       4.6512
_cell_length_b       4.65149
_cell_length_c       7.75285
_cell_angle_alpha    90
_cell_angle_beta     89.9983
_cell_angle_gamma    120.002

_space_group_name_H-M_alt    "P 1"
_space_group_IT_number       1

loop_
  _space_group_symop_operation_xyz
  'x, y, z'

loop_
  _atom_site_type_symbol
  _atom_site_label
  _atom_site_symmetry_multiplicity
  _atom_site_fract_x
  _atom_site_fract_y
  _atom_site_fract_z
  _atom_site_occupancy
  Nd  Nd1       1.0  0.33300  0.66700  0.26600  1.0000
  Nd  Nd2       1.0  0.66700  0.33300  0.73400  1.0000
  S   S1        1.0  0.66700  0.33300  0.36400  1.0000
  S   S2        1.0  0.33300  0.66700  0.63600  1.0000
  Te  Te1       1.0  0.00000  0.00000  0.00000  1.0000
