data_image0
_chemical_formula_structural       HfMo6O24Tl8
_chemical_formula_sum              "Hf1 Mo6 O24 Tl8"
_cell_length_a       7.80207
_cell_length_b       9.86757
_cell_length_c       10.5876
_cell_angle_alpha    62.2253
_cell_angle_beta     98.3477
_cell_angle_gamma    108.153

_space_group_name_H-M_alt    "P 1"
_space_group_IT_number       1

loop_
  _space_group_symop_operation_xyz
  'x, y, z'

loop_
  _atom_site_type_symbol
  _atom_site_label
  _atom_site_symmetry_multiplicity
  _atom_site_fract_x
  _atom_site_fract_y
  _atom_site_fract_z
  _atom_site_occupancy
  Hf  Hf1       1.0  0.00000  0.00000  0.00000  1.0000
  Mo  Mo1       1.0  0.21400  0.39300  0.00000  1.0000
  Mo  Mo2       1.0  0.78600  0.60700  0.00000  1.0000
  Mo  Mo3       1.0  0.70300  0.74000  0.31800  1.0000
  Mo  Mo4       1.0  0.29700  0.94300  0.31800  1.0000
  Mo  Mo5       1.0  0.70300  0.05730  0.68200  1.0000
  Mo  Mo6       1.0  0.29700  0.26000  0.68200  1.0000
  O   O1        1.0  0.03350  0.21900  0.00000  1.0000
  O   O2        1.0  0.41800  0.35100  0.00000  1.0000
  O   O3        1.0  0.58200  0.64900  0.00000  1.0000
  O   O4        1.0  0.96700  0.78100  0.00000  1.0000
  O   O5        1.0  0.80400  0.91300  0.15100  1.0000
  O   O6        1.0  0.19600  0.93600  0.15100  1.0000
  O   O7        1.0  0.20100  0.42000  0.15200  1.0000
  O   O8        1.0  0.79900  0.42700  0.15200  1.0000
  O   O9        1.0  0.53500  0.02170  0.30200  1.0000
  O   O10       1.0  0.46500  0.67600  0.30200  1.0000
  O   O11       1.0  0.21000  0.07000  0.34800  1.0000
  O   O12       1.0  0.79000  0.58200  0.34800  1.0000
  O   O13       1.0  0.23000  0.75300  0.46800  1.0000
  O   O14       1.0  0.77000  0.77900  0.46800  1.0000
  O   O15       1.0  0.23000  0.22100  0.53200  1.0000
  O   O16       1.0  0.77000  0.24700  0.53200  1.0000
  O   O17       1.0  0.21000  0.41800  0.65200  1.0000
  O   O18       1.0  0.79000  0.93000  0.65200  1.0000
  O   O19       1.0  0.53500  0.32400  0.69800  1.0000
  O   O20       1.0  0.46500  0.97800  0.69800  1.0000
  O   O21       1.0  0.20100  0.57300  0.84800  1.0000
  O   O22       1.0  0.79900  0.58000  0.84800  1.0000
  O   O23       1.0  0.80400  0.06430  0.84900  1.0000
  O   O24       1.0  0.19600  0.08710  0.84900  1.0000
  Tl  Tl1       1.0  0.64600  0.21000  0.00000  1.0000
  Tl  Tl2       1.0  0.35400  0.79000  0.00000  1.0000
  Tl  Tl3       1.0  0.50000  0.33500  0.32900  1.0000
  Tl  Tl4       1.0  0.89700  0.13900  0.35000  1.0000
  Tl  Tl5       1.0  0.10300  0.51100  0.35000  1.0000
  Tl  Tl6       1.0  0.89700  0.48900  0.65000  1.0000
  Tl  Tl7       1.0  0.10300  0.86100  0.65000  1.0000
  Tl  Tl8       1.0  0.50000  0.66500  0.67100  1.0000
