data_image0
_chemical_formula_structural       Ga8Na39O32
_chemical_formula_sum              "Ga8 Na39 O32"
_cell_length_a       10.3606
_cell_length_b       10.1515
_cell_length_c       10.5713
_cell_angle_alpha    90.0585
_cell_angle_beta     90.3701
_cell_angle_gamma    89.9925

_space_group_name_H-M_alt    "P 1"
_space_group_IT_number       1

loop_
  _space_group_symop_operation_xyz
  'x, y, z'

loop_
  _atom_site_type_symbol
  _atom_site_label
  _atom_site_symmetry_multiplicity
  _atom_site_fract_x
  _atom_site_fract_y
  _atom_site_fract_z
  _atom_site_occupancy
  Ga  Ga1       1.0  0.15200  0.11300  0.12900  1.0000
  Ga  Ga2       1.0  0.35400  0.61400  0.13300  1.0000
  Ga  Ga3       1.0  0.85900  0.62000  0.36200  1.0000
  Ga  Ga4       1.0  0.65300  0.11300  0.36600  1.0000
  Ga  Ga5       1.0  0.14400  0.39200  0.62900  1.0000
  Ga  Ga6       1.0  0.35300  0.88800  0.63200  1.0000
  Ga  Ga7       1.0  0.85300  0.88800  0.86600  1.0000
  Ga  Ga8       1.0  0.64800  0.38600  0.86900  1.0000
  Na  Na1       1.0  0.88500  0.64300  0.09180  1.0000
  Na  Na2       1.0  0.61700  0.14300  0.09940  1.0000
  Na  Na3       1.0  0.10800  0.83000  0.11100  1.0000
  Na  Na4       1.0  0.65300  0.85900  0.11400  1.0000
  Na  Na5       1.0  0.84900  0.36100  0.11500  1.0000
  Na  Na6       1.0  0.39800  0.32500  0.12200  1.0000
  Na  Na7       1.0  0.88100  0.08310  0.13900  1.0000
  Na  Na8       1.0  0.62400  0.57700  0.14300  1.0000
  Na  Na9       1.0  0.37900  0.90200  0.16700  1.0000
  Na  Na10      1.0  0.12500  0.39500  0.16800  1.0000
  Na  Na11      1.0  0.88100  0.90100  0.33000  1.0000
  Na  Na12      1.0  0.62400  0.40200  0.35300  1.0000
  Na  Na13      1.0  0.12600  0.58300  0.35500  1.0000
  Na  Na14      1.0  0.15300  0.85700  0.37700  1.0000
  Na  Na15      1.0  0.60900  0.82700  0.38300  1.0000
  Na  Na16      1.0  0.38300  0.07770  0.38300  1.0000
  Na  Na17      1.0  0.89700  0.33700  0.38400  1.0000
  Na  Na18      1.0  0.34800  0.35400  0.39100  1.0000
  Na  Na19      1.0  0.11400  0.13800  0.40200  1.0000
  Na  Na20      1.0  0.38300  0.64300  0.40300  1.0000
  Na  Na21      1.0  0.88500  0.85900  0.59500  1.0000
  Na  Na22      1.0  0.10700  0.67500  0.61300  1.0000
  Na  Na23      1.0  0.84600  0.14300  0.61400  1.0000
  Na  Na24      1.0  0.65000  0.63100  0.61400  1.0000
  Na  Na25      1.0  0.62200  0.92000  0.63800  1.0000
  Na  Na26      1.0  0.86400  0.41400  0.64000  1.0000
  Na  Na27      1.0  0.52900  0.29000  0.64300  1.0000
  Na  Na28      1.0  0.13500  0.11000  0.66300  1.0000
  Na  Na29      1.0  0.37800  0.60300  0.66500  1.0000
  Na  Na30      1.0  0.87800  0.60600  0.83000  1.0000
  Na  Na31      1.0  0.62100  0.09640  0.84000  1.0000
  Na  Na32      1.0  0.12300  0.92100  0.85400  1.0000
  Na  Na33      1.0  0.37800  0.42500  0.86900  1.0000
  Na  Na34      1.0  0.34800  0.14600  0.87100  1.0000
  Na  Na35      1.0  0.89600  0.17100  0.88200  1.0000
  Na  Na36      1.0  0.60600  0.67000  0.88200  1.0000
  Na  Na37      1.0  0.15300  0.64300  0.88300  1.0000
  Na  Na38      1.0  0.11300  0.36500  0.90400  1.0000
  Na  Na39      1.0  0.38400  0.86000  0.90500  1.0000
  O   O1        1.0  0.24700  0.00699  0.01780  1.0000
  O   O2        1.0  0.25400  0.50600  0.02580  1.0000
  O   O3        1.0  0.02890  0.22800  0.04950  1.0000
  O   O4        1.0  0.47600  0.72500  0.05010  1.0000
  O   O5        1.0  0.05470  0.00068  0.23900  1.0000
  O   O6        1.0  0.25600  0.72400  0.23900  1.0000
  O   O7        1.0  0.24900  0.21700  0.24400  1.0000
  O   O8        1.0  0.44900  0.50100  0.24700  1.0000
  O   O9        1.0  0.95200  0.50500  0.25100  1.0000
  O   O10       1.0  0.75700  0.72500  0.25300  1.0000
  O   O11       1.0  0.55400  0.00167  0.25700  1.0000
  O   O12       1.0  0.75200  0.22200  0.25900  1.0000
  O   O13       1.0  0.98000  0.73200  0.44400  1.0000
  O   O14       1.0  0.53300  0.22600  0.44400  1.0000
  O   O15       1.0  0.76700  0.51500  0.47300  1.0000
  O   O16       1.0  0.74700  0.00186  0.47500  1.0000
  O   O17       1.0  0.24200  0.50000  0.52100  1.0000
  O   O18       1.0  0.24500  0.98300  0.52300  1.0000
  O   O19       1.0  0.02590  0.27500  0.54900  1.0000
  O   O20       1.0  0.47400  0.77500  0.54900  1.0000
  O   O21       1.0  0.04580  0.50200  0.74000  1.0000
  O   O22       1.0  0.25700  0.77800  0.74300  1.0000
  O   O23       1.0  0.44900  0.99800  0.74300  1.0000
  O   O24       1.0  0.24600  0.29400  0.74400  1.0000
  O   O25       1.0  0.94900  0.00091  0.75400  1.0000
  O   O26       1.0  0.54900  0.49500  0.75700  1.0000
  O   O27       1.0  0.75200  0.78100  0.75800  1.0000
  O   O28       1.0  0.74000  0.27200  0.76000  1.0000
  O   O29       1.0  0.97600  0.77500  0.94500  1.0000
  O   O30       1.0  0.52600  0.27400  0.95100  1.0000
  O   O31       1.0  0.74600  0.49700  0.97500  1.0000
  O   O32       1.0  0.75900  0.99600  0.97800  1.0000
