data_image0
_chemical_formula_structural       NiSi3Sr
_chemical_formula_sum              "Ni1 Si3 Sr1"
_cell_length_a       4.19245
_cell_length_b       4.19245
_cell_length_c       5.7273
_cell_angle_alpha    111.47
_cell_angle_beta     111.47
_cell_angle_gamma    90

_space_group_name_H-M_alt    "P 1"
_space_group_IT_number       1

loop_
  _space_group_symop_operation_xyz
  'x, y, z'

loop_
  _atom_site_type_symbol
  _atom_site_label
  _atom_site_symmetry_multiplicity
  _atom_site_fract_x
  _atom_site_fract_y
  _atom_site_fract_z
  _atom_site_occupancy
  Ni  Ni1       1.0  0.24400  0.24400  0.48800  1.0000
  Si  Si1       1.0  0.00164  0.00164  0.00329  1.0000
  Si  Si2       1.0  0.85000  0.35000  0.70100  1.0000
  Si  Si3       1.0  0.35000  0.85000  0.70100  1.0000
  Sr  Sr1       1.0  0.60000  0.60000  0.19900  1.0000
