data_image0
_chemical_formula_structural       CeN2Sr
_chemical_formula_sum              "Ce1 N2 Sr1"
_cell_length_a       3.73959
_cell_length_b       3.73959
_cell_length_c       6.48604
_cell_angle_alpha    73.245
_cell_angle_beta     106.755
_cell_angle_gamma    120

_space_group_name_H-M_alt    "P 1"
_space_group_IT_number       1

loop_
  _space_group_symop_operation_xyz
  'x, y, z'

loop_
  _atom_site_type_symbol
  _atom_site_label
  _atom_site_symmetry_multiplicity
  _atom_site_fract_x
  _atom_site_fract_y
  _atom_site_fract_z
  _atom_site_occupancy
  Ce  Ce1       1.0  0.50000  0.50000  0.50000  1.0000
  N   N1        1.0  0.75700  0.24300  0.27000  1.0000
  N   N2        1.0  0.24300  0.75700  0.73000  1.0000
  Sr  Sr1       1.0  0.00000  0.00000  0.00000  1.0000
