data_image0
_chemical_formula_structural       H16N2NiO16P4
_chemical_formula_sum              "H16 N2 Ni1 O16 P4"
_cell_length_a       6.8854
_cell_length_b       7.06479
_cell_length_c       7.56569
_cell_angle_alpha    80.491
_cell_angle_beta     69.9432
_cell_angle_gamma    87.4233

_space_group_name_H-M_alt    "P 1"
_space_group_IT_number       1

loop_
  _space_group_symop_operation_xyz
  'x, y, z'

loop_
  _atom_site_type_symbol
  _atom_site_label
  _atom_site_symmetry_multiplicity
  _atom_site_fract_x
  _atom_site_fract_y
  _atom_site_fract_z
  _atom_site_occupancy
  H   H1        1.0  0.25300  0.98000  0.02480  1.0000
  H   H2        1.0  0.56500  0.31800  0.08930  1.0000
  H   H3        1.0  0.32100  0.39800  0.17200  1.0000
  H   H4        1.0  0.36200  0.15900  0.19000  1.0000
  H   H5        1.0  0.87900  0.16500  0.19700  1.0000
  H   H6        1.0  0.43600  0.28500  0.32700  1.0000
  H   H7        1.0  0.89300  0.30400  0.34000  1.0000
  H   H8        1.0  0.40600  0.72300  0.43800  1.0000
  H   H9        1.0  0.59400  0.27700  0.56200  1.0000
  H   H10       1.0  0.10700  0.69600  0.66000  1.0000
  H   H11       1.0  0.56400  0.71500  0.67300  1.0000
  H   H12       1.0  0.12100  0.83500  0.80300  1.0000
  H   H13       1.0  0.63800  0.84100  0.81000  1.0000
  H   H14       1.0  0.67900  0.60200  0.82800  1.0000
  H   H15       1.0  0.43500  0.68200  0.91100  1.0000
  H   H16       1.0  0.74700  0.02050  0.97500  1.0000
  N   N1        1.0  0.42100  0.29000  0.19400  1.0000
  N   N2        1.0  0.57900  0.71000  0.80600  1.0000
  Ni  Ni1       1.0  0.00000  0.50000  0.00000  1.0000
  O   O1        1.0  0.19000  0.61200  0.11800  1.0000
  O   O2        1.0  0.76000  0.99000  0.14800  1.0000
  O   O3        1.0  0.74200  0.62600  0.16000  1.0000
  O   O4        1.0  0.26400  0.93800  0.16900  1.0000
  O   O5        1.0  0.95900  0.27300  0.21000  1.0000
  O   O6        1.0  0.91300  0.77500  0.36400  1.0000
  O   O7        1.0  0.22500  0.65800  0.43500  1.0000
  O   O8        1.0  0.54200  0.77900  0.45100  1.0000
  O   O9        1.0  0.45800  0.22100  0.54900  1.0000
  O   O10       1.0  0.77500  0.34200  0.56500  1.0000
  O   O11       1.0  0.08690  0.22500  0.63600  1.0000
  O   O12       1.0  0.04120  0.72700  0.79000  1.0000
  O   O13       1.0  0.73600  0.06170  0.83100  1.0000
  O   O14       1.0  0.25800  0.37400  0.84000  1.0000
  O   O15       1.0  0.24000  0.01000  0.85200  1.0000
  O   O16       1.0  0.81000  0.38800  0.88200  1.0000
  P   P1        1.0  0.73500  0.79000  0.26700  1.0000
  P   P2        1.0  0.15600  0.74100  0.26800  1.0000
  P   P3        1.0  0.84400  0.25900  0.73200  1.0000
  P   P4        1.0  0.26500  0.21000  0.73300  1.0000
