data_image0
_chemical_formula_structural       Au3Mn9
_chemical_formula_sum              "Au3 Mn9"
_cell_length_a       4.49729
_cell_length_b       4.49729
_cell_length_c       8.9105
_cell_angle_alpha    90
_cell_angle_beta     90
_cell_angle_gamma    90

_space_group_name_H-M_alt    "P 1"
_space_group_IT_number       1

loop_
  _space_group_symop_operation_xyz
  'x, y, z'

loop_
  _atom_site_type_symbol
  _atom_site_label
  _atom_site_symmetry_multiplicity
  _atom_site_fract_x
  _atom_site_fract_y
  _atom_site_fract_z
  _atom_site_occupancy
  Au  Au1       1.0  0.00000  0.00000  0.00000  1.0000
  Au  Au2       1.0  0.50000  0.00000  0.50000  1.0000
  Au  Au3       1.0  0.00000  0.50000  0.50000  1.0000
  Mn  Mn1       1.0  0.50000  0.50000  0.00000  1.0000
  Mn  Mn2       1.0  0.50000  0.00000  0.16400  1.0000
  Mn  Mn3       1.0  0.00000  0.50000  0.16400  1.0000
  Mn  Mn4       1.0  0.50000  0.50000  0.32300  1.0000
  Mn  Mn5       1.0  0.00000  0.00000  0.32800  1.0000
  Mn  Mn6       1.0  0.00000  0.00000  0.67200  1.0000
  Mn  Mn7       1.0  0.50000  0.50000  0.67700  1.0000
  Mn  Mn8       1.0  0.50000  0.00000  0.83600  1.0000
  Mn  Mn9       1.0  0.00000  0.50000  0.83600  1.0000
