data_image0
_chemical_formula_structural       CeLi2P2
_chemical_formula_sum              "Ce1 Li2 P2"
_cell_length_a       4.1873
_cell_length_b       4.18803
_cell_length_c       6.85273
_cell_angle_alpha    90
_cell_angle_beta     89.9904
_cell_angle_gamma    120.006

_space_group_name_H-M_alt    "P 1"
_space_group_IT_number       1

loop_
  _space_group_symop_operation_xyz
  'x, y, z'

loop_
  _atom_site_type_symbol
  _atom_site_label
  _atom_site_symmetry_multiplicity
  _atom_site_fract_x
  _atom_site_fract_y
  _atom_site_fract_z
  _atom_site_occupancy
  Ce  Ce1       1.0  0.00000  0.00000  0.00000  1.0000
  Li  Li1       1.0  0.66700  0.33300  0.37900  1.0000
  Li  Li2       1.0  0.33300  0.66700  0.62100  1.0000
  P   P1        1.0  0.33300  0.66700  0.25000  1.0000
  P   P2        1.0  0.66700  0.33300  0.75000  1.0000
