data_image0
_chemical_formula_structural       CeRbSe2
_chemical_formula_sum              "Ce1 Rb1 Se2"
_cell_length_a       4.44197
_cell_length_b       4.44197
_cell_length_c       8.3899
_cell_angle_alpha    90
_cell_angle_beta     105.35
_cell_angle_gamma    60

_space_group_name_H-M_alt    "P 1"
_space_group_IT_number       1

loop_
  _space_group_symop_operation_xyz
  'x, y, z'

loop_
  _atom_site_type_symbol
  _atom_site_label
  _atom_site_symmetry_multiplicity
  _atom_site_fract_x
  _atom_site_fract_y
  _atom_site_fract_z
  _atom_site_occupancy
  Ce  Ce1       1.0  0.00000  0.50000  0.50000  1.0000
  Rb  Rb1       1.0  0.00000  0.00000  0.00000  1.0000
  Se  Se1       1.0  0.53000  0.23500  0.29500  1.0000
  Se  Se2       1.0  0.47000  0.76500  0.70500  1.0000
