data_image0
_chemical_formula_structural       CoH16N2O16P4
_chemical_formula_sum              "Co1 H16 N2 O16 P4"
_cell_length_a       6.8865
_cell_length_b       7.08457
_cell_length_c       7.61483
_cell_angle_alpha    79.7753
_cell_angle_beta     69.2952
_cell_angle_gamma    87.2221

_space_group_name_H-M_alt    "P 1"
_space_group_IT_number       1

loop_
  _space_group_symop_operation_xyz
  'x, y, z'

loop_
  _atom_site_type_symbol
  _atom_site_label
  _atom_site_symmetry_multiplicity
  _atom_site_fract_x
  _atom_site_fract_y
  _atom_site_fract_z
  _atom_site_occupancy
  Co  Co1       1.0  0.00000  0.50000  0.00000  1.0000
  H   H1        1.0  0.25100  0.98100  0.02800  1.0000
  H   H2        1.0  0.56600  0.31600  0.08460  1.0000
  H   H3        1.0  0.32400  0.40200  0.17400  1.0000
  H   H4        1.0  0.35800  0.16200  0.19000  1.0000
  H   H5        1.0  0.88100  0.15600  0.19800  1.0000
  H   H6        1.0  0.44100  0.28200  0.32300  1.0000
  H   H7        1.0  0.89600  0.29200  0.34200  1.0000
  H   H8        1.0  0.40000  0.72500  0.44300  1.0000
  H   H9        1.0  0.60000  0.27500  0.55700  1.0000
  H   H10       1.0  0.10400  0.70800  0.65800  1.0000
  H   H11       1.0  0.55900  0.71800  0.67700  1.0000
  H   H12       1.0  0.11900  0.84400  0.80200  1.0000
  H   H13       1.0  0.64200  0.83800  0.81000  1.0000
  H   H14       1.0  0.67600  0.59800  0.82600  1.0000
  H   H15       1.0  0.43400  0.68400  0.91500  1.0000
  H   H16       1.0  0.74900  0.01920  0.97200  1.0000
  N   N1        1.0  0.42200  0.29100  0.19200  1.0000
  N   N2        1.0  0.57800  0.70900  0.80800  1.0000
  O   O1        1.0  0.19100  0.61300  0.12200  1.0000
  O   O2        1.0  0.76000  0.98600  0.14700  1.0000
  O   O3        1.0  0.73400  0.62200  0.17100  1.0000
  O   O4        1.0  0.26100  0.93900  0.17100  1.0000
  O   O5        1.0  0.95800  0.26500  0.21000  1.0000
  O   O6        1.0  0.90800  0.77400  0.36700  1.0000
  O   O7        1.0  0.22000  0.65800  0.43900  1.0000
  O   O8        1.0  0.53500  0.78200  0.45500  1.0000
  O   O9        1.0  0.46500  0.21800  0.54500  1.0000
  O   O10       1.0  0.78000  0.34200  0.56100  1.0000
  O   O11       1.0  0.09190  0.22600  0.63300  1.0000
  O   O12       1.0  0.04150  0.73500  0.79000  1.0000
  O   O13       1.0  0.73900  0.06090  0.82900  1.0000
  O   O14       1.0  0.26600  0.37800  0.82900  1.0000
  O   O15       1.0  0.24000  0.01360  0.85300  1.0000
  O   O16       1.0  0.80900  0.38700  0.87800  1.0000
  P   P1        1.0  0.73100  0.78800  0.27100  1.0000
  P   P2        1.0  0.15300  0.74000  0.27200  1.0000
  P   P3        1.0  0.84700  0.26000  0.72800  1.0000
  P   P4        1.0  0.26900  0.21200  0.72900  1.0000
