data_image0
_chemical_formula_structural       Au4Sc
_chemical_formula_sum              "Au4 Sc1"
_cell_length_a       4.07076
_cell_length_b       5.0928
_cell_length_c       5.0928
_cell_angle_alpha    99.1911
_cell_angle_beta     66.4431
_cell_angle_gamma    113.557

_space_group_name_H-M_alt    "P 1"
_space_group_IT_number       1

loop_
  _space_group_symop_operation_xyz
  'x, y, z'

loop_
  _atom_site_type_symbol
  _atom_site_label
  _atom_site_symmetry_multiplicity
  _atom_site_fract_x
  _atom_site_fract_y
  _atom_site_fract_z
  _atom_site_occupancy
  Au  Au1       1.0  0.60200  0.39800  0.19500  1.0000
  Au  Au2       1.0  0.20300  0.80500  0.39800  1.0000
  Au  Au3       1.0  0.79700  0.19500  0.60200  1.0000
  Au  Au4       1.0  0.39800  0.60200  0.80500  1.0000
  Sc  Sc1       1.0  0.00000  0.00000  0.00000  1.0000
