data_image0
_chemical_formula_structural       Al4Ge4Li12O20
_chemical_formula_sum              "Al4 Ge4 Li12 O20"
_cell_length_a       4.86499
_cell_length_b       5.37974
_cell_length_c       15.7345
_cell_angle_alpha    90
_cell_angle_beta     90
_cell_angle_gamma    90

_space_group_name_H-M_alt    "P 1"
_space_group_IT_number       1

loop_
  _space_group_symop_operation_xyz
  'x, y, z'

loop_
  _atom_site_type_symbol
  _atom_site_label
  _atom_site_symmetry_multiplicity
  _atom_site_fract_x
  _atom_site_fract_y
  _atom_site_fract_z
  _atom_site_occupancy
  Al  Al1       1.0  0.50000  0.32700  0.20200  1.0000
  Al  Al2       1.0  0.50000  0.82700  0.29800  1.0000
  Al  Al3       1.0  0.00000  0.17300  0.70200  1.0000
  Al  Al4       1.0  0.00000  0.67300  0.79800  1.0000
  Ge  Ge1       1.0  0.00473  0.15900  0.09660  1.0000
  Ge  Ge2       1.0  0.00473  0.65900  0.40300  1.0000
  Ge  Ge3       1.0  0.50500  0.34100  0.59700  1.0000
  Ge  Ge4       1.0  0.50500  0.84100  0.90300  1.0000
  Li  Li1       1.0  0.00451  0.66200  0.00287  1.0000
  Li  Li2       1.0  0.50300  0.82100  0.10000  1.0000
  Li  Li3       1.0  0.00145  0.66400  0.19900  1.0000
  Li  Li4       1.0  0.00145  0.16400  0.30100  1.0000
  Li  Li5       1.0  0.50300  0.32100  0.40000  1.0000
  Li  Li6       1.0  0.00451  0.16200  0.49700  1.0000
  Li  Li7       1.0  0.50500  0.83800  0.50300  1.0000
  Li  Li8       1.0  0.00288  0.67900  0.60000  1.0000
  Li  Li9       1.0  0.50100  0.83600  0.69900  1.0000
  Li  Li10      1.0  0.50100  0.33600  0.80100  1.0000
  Li  Li11      1.0  0.00288  0.17900  0.90000  1.0000
  Li  Li12      1.0  0.50500  0.33800  0.99700  1.0000
  O   O1        1.0  0.10700  0.31800  0.00658  1.0000
  O   O2        1.0  0.10400  0.85100  0.10300  1.0000
  O   O3        1.0  0.63600  0.18600  0.10900  1.0000
  O   O4        1.0  0.13400  0.31500  0.19200  1.0000
  O   O5        1.0  0.59600  0.64200  0.21000  1.0000
  O   O6        1.0  0.59600  0.14200  0.29000  1.0000
  O   O7        1.0  0.13400  0.81500  0.30800  1.0000
  O   O8        1.0  0.63600  0.68600  0.39100  1.0000
  O   O9        1.0  0.10400  0.35100  0.39700  1.0000
  O   O10       1.0  0.10700  0.81800  0.49300  1.0000
  O   O11       1.0  0.60700  0.18200  0.50700  1.0000
  O   O12       1.0  0.60400  0.64900  0.60300  1.0000
  O   O13       1.0  0.13600  0.31400  0.60900  1.0000
  O   O14       1.0  0.63400  0.18500  0.69200  1.0000
  O   O15       1.0  0.09630  0.85800  0.71000  1.0000
  O   O16       1.0  0.09630  0.35800  0.79000  1.0000
  O   O17       1.0  0.63400  0.68500  0.80800  1.0000
  O   O18       1.0  0.13600  0.81400  0.89100  1.0000
  O   O19       1.0  0.60400  0.14900  0.89700  1.0000
  O   O20       1.0  0.60700  0.68200  0.99300  1.0000
