data_image0
_chemical_formula_structural       CMn3
_chemical_formula_sum              "C1 Mn3"
_cell_length_a       4.31474
_cell_length_b       4.31474
_cell_length_c       4.31474
_cell_angle_alpha    136.561
_cell_angle_beta     136.561
_cell_angle_gamma    63.1141

_space_group_name_H-M_alt    "P 1"
_space_group_IT_number       1

loop_
  _space_group_symop_operation_xyz
  'x, y, z'

loop_
  _atom_site_type_symbol
  _atom_site_label
  _atom_site_symmetry_multiplicity
  _atom_site_fract_x
  _atom_site_fract_y
  _atom_site_fract_z
  _atom_site_occupancy
  C   C1        1.0  0.00000  0.00000  0.00000  1.0000
  Mn  Mn1       1.0  0.75000  0.25000  0.50000  1.0000
  Mn  Mn2       1.0  0.25000  0.75000  0.50000  1.0000
  Mn  Mn3       1.0  0.50000  0.50000  0.00000  1.0000
