data_image0
_chemical_formula_structural       Ba8H16O16
_chemical_formula_sum              "Ba8 H16 O16"
_cell_length_a       6.73796
_cell_length_b       7.82011
_cell_length_c       9.30205
_cell_angle_alpha    90
_cell_angle_beta     95.3374
_cell_angle_gamma    90

_space_group_name_H-M_alt    "P 1"
_space_group_IT_number       1

loop_
  _space_group_symop_operation_xyz
  'x, y, z'

loop_
  _atom_site_type_symbol
  _atom_site_label
  _atom_site_symmetry_multiplicity
  _atom_site_fract_x
  _atom_site_fract_y
  _atom_site_fract_z
  _atom_site_occupancy
  Ba  Ba1       1.0  0.74900  0.14500  0.10500  1.0000
  Ba  Ba2       1.0  0.21800  0.44900  0.18200  1.0000
  Ba  Ba3       1.0  0.28200  0.94900  0.31800  1.0000
  Ba  Ba4       1.0  0.75100  0.64500  0.39500  1.0000
  Ba  Ba5       1.0  0.24900  0.35500  0.60500  1.0000
  Ba  Ba6       1.0  0.71800  0.05060  0.68200  1.0000
  Ba  Ba7       1.0  0.78200  0.55100  0.81800  1.0000
  Ba  Ba8       1.0  0.25100  0.85500  0.89500  1.0000
  H   H1        1.0  0.21900  0.14900  0.02180  1.0000
  H   H2        1.0  0.55500  0.76100  0.09080  1.0000
  H   H3        1.0  0.68400  0.54100  0.11800  1.0000
  H   H4        1.0  0.93400  0.72400  0.12000  1.0000
  H   H5        1.0  0.56600  0.22400  0.38000  1.0000
  H   H6        1.0  0.81600  0.04110  0.38200  1.0000
  H   H7        1.0  0.94500  0.26100  0.40900  1.0000
  H   H8        1.0  0.28100  0.64900  0.47800  1.0000
  H   H9        1.0  0.71900  0.35100  0.52200  1.0000
  H   H10       1.0  0.05540  0.73900  0.59100  1.0000
  H   H11       1.0  0.18400  0.95900  0.61800  1.0000
  H   H12       1.0  0.43400  0.77600  0.62000  1.0000
  H   H13       1.0  0.06630  0.27600  0.88000  1.0000
  H   H14       1.0  0.31600  0.45900  0.88200  1.0000
  H   H15       1.0  0.44500  0.23900  0.90900  1.0000
  H   H16       1.0  0.78100  0.85100  0.97800  1.0000
  O   O1        1.0  0.34900  0.14000  0.08210  1.0000
  O   O2        1.0  0.98900  0.83900  0.10500  1.0000
  O   O3        1.0  0.82100  0.49600  0.11900  1.0000
  O   O4        1.0  0.47500  0.70100  0.15800  1.0000
  O   O5        1.0  0.02550  0.20100  0.34200  1.0000
  O   O6        1.0  0.67900  0.99600  0.38100  1.0000
  O   O7        1.0  0.51100  0.33900  0.39500  1.0000
  O   O8        1.0  0.15100  0.64000  0.41800  1.0000
  O   O9        1.0  0.84900  0.36000  0.58200  1.0000
  O   O10       1.0  0.48900  0.66100  0.60500  1.0000
  O   O11       1.0  0.32100  0.00419  0.61900  1.0000
  O   O12       1.0  0.97500  0.79900  0.65800  1.0000
  O   O13       1.0  0.52500  0.29900  0.84200  1.0000
  O   O14       1.0  0.17900  0.50400  0.88100  1.0000
  O   O15       1.0  0.01110  0.16100  0.89500  1.0000
  O   O16       1.0  0.65100  0.86000  0.91800  1.0000
