data_image0
_chemical_formula_structural       Ni24Si16
_chemical_formula_sum              "Ni24 Si16"
_cell_length_a       6.90755
_cell_length_b       8.14444
_cell_length_c       8.14444
_cell_angle_alpha    82.9602
_cell_angle_beta     90
_cell_angle_gamma    90

_space_group_name_H-M_alt    "P 1"
_space_group_IT_number       1

loop_
  _space_group_symop_operation_xyz
  'x, y, z'

loop_
  _atom_site_type_symbol
  _atom_site_label
  _atom_site_symmetry_multiplicity
  _atom_site_fract_x
  _atom_site_fract_y
  _atom_site_fract_z
  _atom_site_occupancy
  Ni  Ni1       1.0  0.46600  0.00000  0.00000  1.0000
  Ni  Ni2       1.0  0.96600  0.00000  0.00000  1.0000
  Ni  Ni3       1.0  0.21600  0.55600  0.05030  1.0000
  Ni  Ni4       1.0  0.40500  0.29100  0.05320  1.0000
  Ni  Ni5       1.0  0.02620  0.29100  0.05440  1.0000
  Ni  Ni6       1.0  0.40400  0.76600  0.23400  1.0000
  Ni  Ni7       1.0  0.02820  0.76500  0.23500  1.0000
  Ni  Ni8       1.0  0.52600  0.05440  0.29100  1.0000
  Ni  Ni9       1.0  0.90500  0.05320  0.29100  1.0000
  Ni  Ni10      1.0  0.21600  0.32300  0.31500  1.0000
  Ni  Ni11      1.0  0.71600  0.31500  0.32300  1.0000
  Ni  Ni12      1.0  0.71400  0.61700  0.38300  1.0000
  Ni  Ni13      1.0  0.21600  0.95000  0.44400  1.0000
  Ni  Ni14      1.0  0.71600  0.05030  0.55600  1.0000
  Ni  Ni15      1.0  0.21400  0.38300  0.61700  1.0000
  Ni  Ni16      1.0  0.21600  0.68500  0.67700  1.0000
  Ni  Ni17      1.0  0.71600  0.67700  0.68500  1.0000
  Ni  Ni18      1.0  0.40500  0.94700  0.70900  1.0000
  Ni  Ni19      1.0  0.02620  0.94600  0.70900  1.0000
  Ni  Ni20      1.0  0.52800  0.23500  0.76500  1.0000
  Ni  Ni21      1.0  0.90400  0.23400  0.76600  1.0000
  Ni  Ni22      1.0  0.52600  0.70900  0.94600  1.0000
  Ni  Ni23      1.0  0.90500  0.70900  0.94700  1.0000
  Ni  Ni24      1.0  0.71600  0.44400  0.95000  1.0000
  Si  Si1       1.0  0.71600  0.17600  0.06190  1.0000
  Si  Si2       1.0  0.71600  0.84400  0.15600  1.0000
  Si  Si3       1.0  0.21600  0.06190  0.17600  1.0000
  Si  Si4       1.0  0.50800  0.50600  0.18900  1.0000
  Si  Si5       1.0  0.92500  0.50600  0.19100  1.0000
  Si  Si6       1.0  0.21700  0.59200  0.40800  1.0000
  Si  Si7       1.0  0.92500  0.80900  0.49400  1.0000
  Si  Si8       1.0  0.50800  0.81100  0.49400  1.0000
  Si  Si9       1.0  0.00815  0.18900  0.50600  1.0000
  Si  Si10      1.0  0.42500  0.19100  0.50600  1.0000
  Si  Si11      1.0  0.71700  0.40800  0.59200  1.0000
  Si  Si12      1.0  0.42500  0.49400  0.80900  1.0000
  Si  Si13      1.0  0.00815  0.49400  0.81100  1.0000
  Si  Si14      1.0  0.71600  0.93800  0.82400  1.0000
  Si  Si15      1.0  0.21600  0.15600  0.84400  1.0000
  Si  Si16      1.0  0.21600  0.82400  0.93800  1.0000
