data_image0
_chemical_formula_structural       BHf3
_chemical_formula_sum              "B1 Hf3"
_cell_length_a       5.28866
_cell_length_b       5.28866
_cell_length_c       5.28866
_cell_angle_alpha    135.607
_cell_angle_beta     135.607
_cell_angle_gamma    64.5889

_space_group_name_H-M_alt    "P 1"
_space_group_IT_number       1

loop_
  _space_group_symop_operation_xyz
  'x, y, z'

loop_
  _atom_site_type_symbol
  _atom_site_label
  _atom_site_symmetry_multiplicity
  _atom_site_fract_x
  _atom_site_fract_y
  _atom_site_fract_z
  _atom_site_occupancy
  B   B1        1.0  0.00000  0.00000  0.00000  1.0000
  Hf  Hf1       1.0  0.75000  0.25000  0.50000  1.0000
  Hf  Hf2       1.0  0.25000  0.75000  0.50000  1.0000
  Hf  Hf3       1.0  0.50000  0.50000  0.00000  1.0000
