data_image0
_chemical_formula_structural       Ga4Li12O20Si4
_chemical_formula_sum              "Ga4 Li12 O20 Si4"
_cell_length_a       4.83778
_cell_length_b       5.37951
_cell_length_c       15.549
_cell_angle_alpha    90
_cell_angle_beta     90
_cell_angle_gamma    90

_space_group_name_H-M_alt    "P 1"
_space_group_IT_number       1

loop_
  _space_group_symop_operation_xyz
  'x, y, z'

loop_
  _atom_site_type_symbol
  _atom_site_label
  _atom_site_symmetry_multiplicity
  _atom_site_fract_x
  _atom_site_fract_y
  _atom_site_fract_z
  _atom_site_occupancy
  Ga  Ga1       1.0  0.49900  0.32700  0.19900  1.0000
  Ga  Ga2       1.0  0.49900  0.82700  0.30100  1.0000
  Ga  Ga3       1.0  0.99900  0.17300  0.69900  1.0000
  Ga  Ga4       1.0  0.99900  0.67300  0.80100  1.0000
  Li  Li1       1.0  0.00499  0.66400  0.00466  1.0000
  Li  Li2       1.0  0.50200  0.83000  0.09320  1.0000
  Li  Li3       1.0  0.00202  0.67200  0.19500  1.0000
  Li  Li4       1.0  0.00202  0.17200  0.30500  1.0000
  Li  Li5       1.0  0.50200  0.33000  0.40700  1.0000
  Li  Li6       1.0  0.00499  0.16400  0.49500  1.0000
  Li  Li7       1.0  0.50500  0.83600  0.50500  1.0000
  Li  Li8       1.0  0.00242  0.67000  0.59300  1.0000
  Li  Li9       1.0  0.50200  0.82800  0.69500  1.0000
  Li  Li10      1.0  0.50200  0.32800  0.80500  1.0000
  Li  Li11      1.0  0.00242  0.17000  0.90700  1.0000
  Li  Li12      1.0  0.50500  0.33600  0.99500  1.0000
  O   O1        1.0  0.10500  0.31700  0.01430  1.0000
  O   O2        1.0  0.10300  0.87700  0.10100  1.0000
  O   O3        1.0  0.65800  0.17700  0.10400  1.0000
  O   O4        1.0  0.11200  0.31000  0.18800  1.0000
  O   O5        1.0  0.59700  0.65700  0.20200  1.0000
  O   O6        1.0  0.59700  0.15700  0.29800  1.0000
  O   O7        1.0  0.11200  0.81000  0.31200  1.0000
  O   O8        1.0  0.65800  0.67700  0.39600  1.0000
  O   O9        1.0  0.10300  0.37700  0.39900  1.0000
  O   O10       1.0  0.10500  0.81700  0.48600  1.0000
  O   O11       1.0  0.60500  0.18300  0.51400  1.0000
  O   O12       1.0  0.60300  0.62300  0.60100  1.0000
  O   O13       1.0  0.15800  0.32300  0.60400  1.0000
  O   O14       1.0  0.61200  0.19000  0.68800  1.0000
  O   O15       1.0  0.09670  0.84300  0.70200  1.0000
  O   O16       1.0  0.09670  0.34300  0.79800  1.0000
  O   O17       1.0  0.61200  0.69000  0.81200  1.0000
  O   O18       1.0  0.15800  0.82300  0.89600  1.0000
  O   O19       1.0  0.60300  0.12300  0.89900  1.0000
  O   O20       1.0  0.60500  0.68300  0.98600  1.0000
  Si  Si1       1.0  0.00379  0.16300  0.09750  1.0000
  Si  Si2       1.0  0.00379  0.66300  0.40200  1.0000
  Si  Si3       1.0  0.50400  0.33700  0.59800  1.0000
  Si  Si4       1.0  0.50400  0.83700  0.90200  1.0000
