data_image0
_chemical_formula_structural       As2BaZn2
_chemical_formula_sum              "As2 Ba1 Zn2"
_cell_length_a       4.14742
_cell_length_b       4.14742
_cell_length_c       7.42829
_cell_angle_alpha    106.21
_cell_angle_beta     106.21
_cell_angle_gamma    90

_space_group_name_H-M_alt    "P 1"
_space_group_IT_number       1

loop_
  _space_group_symop_operation_xyz
  'x, y, z'

loop_
  _atom_site_type_symbol
  _atom_site_label
  _atom_site_symmetry_multiplicity
  _atom_site_fract_x
  _atom_site_fract_y
  _atom_site_fract_z
  _atom_site_occupancy
  As  As1       1.0  0.63600  0.63600  0.27200  1.0000
  As  As2       1.0  0.36400  0.36400  0.72800  1.0000
  Ba  Ba1       1.0  0.00000  0.00000  0.00000  1.0000
  Zn  Zn1       1.0  0.75000  0.25000  0.50000  1.0000
  Zn  Zn2       1.0  0.25000  0.75000  0.50000  1.0000
