data_image0
_chemical_formula_structural       Ga4Ge4Li12O20
_chemical_formula_sum              "Ga4 Ge4 Li12 O20"
_cell_length_a       4.9235
_cell_length_b       5.4487
_cell_length_c       15.7712
_cell_angle_alpha    90
_cell_angle_beta     90
_cell_angle_gamma    90

_space_group_name_H-M_alt    "P 1"
_space_group_IT_number       1

loop_
  _space_group_symop_operation_xyz
  'x, y, z'

loop_
  _atom_site_type_symbol
  _atom_site_label
  _atom_site_symmetry_multiplicity
  _atom_site_fract_x
  _atom_site_fract_y
  _atom_site_fract_z
  _atom_site_occupancy
  Ga  Ga1       1.0  0.49200  0.33200  0.20000  1.0000
  Ga  Ga2       1.0  0.49200  0.83200  0.30000  1.0000
  Ga  Ga3       1.0  0.99200  0.16800  0.70000  1.0000
  Ga  Ga4       1.0  0.99200  0.66800  0.80000  1.0000
  Ge  Ge1       1.0  0.99800  0.16000  0.09570  1.0000
  Ge  Ge2       1.0  0.99800  0.66000  0.40400  1.0000
  Ge  Ge3       1.0  0.49800  0.34000  0.59600  1.0000
  Ge  Ge4       1.0  0.49800  0.84000  0.90400  1.0000
  Li  Li1       1.0  0.99800  0.66200  0.00430  1.0000
  Li  Li2       1.0  0.49500  0.82600  0.09750  1.0000
  Li  Li3       1.0  0.99300  0.67000  0.19800  1.0000
  Li  Li4       1.0  0.99300  0.17000  0.30200  1.0000
  Li  Li5       1.0  0.49500  0.32600  0.40300  1.0000
  Li  Li6       1.0  0.99800  0.16200  0.49600  1.0000
  Li  Li7       1.0  0.49800  0.83800  0.50400  1.0000
  Li  Li8       1.0  0.99500  0.67400  0.59700  1.0000
  Li  Li9       1.0  0.49300  0.83000  0.69800  1.0000
  Li  Li10      1.0  0.49300  0.33000  0.80200  1.0000
  Li  Li11      1.0  0.99500  0.17400  0.90300  1.0000
  Li  Li12      1.0  0.49800  0.33800  0.99600  1.0000
  O   O1        1.0  0.10400  0.32100  0.00710  1.0000
  O   O2        1.0  0.10200  0.85700  0.10200  1.0000
  O   O3        1.0  0.63100  0.17800  0.10400  1.0000
  O   O4        1.0  0.11100  0.31900  0.19200  1.0000
  O   O5        1.0  0.59600  0.65600  0.20400  1.0000
  O   O6        1.0  0.59600  0.15600  0.29600  1.0000
  O   O7        1.0  0.11100  0.81900  0.30800  1.0000
  O   O8        1.0  0.63100  0.67800  0.39600  1.0000
  O   O9        1.0  0.10200  0.35700  0.39800  1.0000
  O   O10       1.0  0.10400  0.82100  0.49300  1.0000
  O   O11       1.0  0.60400  0.17900  0.50700  1.0000
  O   O12       1.0  0.60200  0.64300  0.60200  1.0000
  O   O13       1.0  0.13100  0.32200  0.60400  1.0000
  O   O14       1.0  0.61100  0.18100  0.69200  1.0000
  O   O15       1.0  0.09620  0.84400  0.70400  1.0000
  O   O16       1.0  0.09620  0.34400  0.79600  1.0000
  O   O17       1.0  0.61100  0.68100  0.80800  1.0000
  O   O18       1.0  0.13100  0.82200  0.89600  1.0000
  O   O19       1.0  0.60200  0.14300  0.89800  1.0000
  O   O20       1.0  0.60400  0.67900  0.99300  1.0000
