data_image0
_chemical_formula_structural       B2NiW2
_chemical_formula_sum              "B2 Ni1 W2"
_cell_length_a       3.20734
_cell_length_b       4.52427
_cell_length_c       4.52427
_cell_angle_alpha    103.64
_cell_angle_beta     110.76
_cell_angle_gamma    110.76

_space_group_name_H-M_alt    "P 1"
_space_group_IT_number       1

loop_
  _space_group_symop_operation_xyz
  'x, y, z'

loop_
  _atom_site_type_symbol
  _atom_site_label
  _atom_site_symmetry_multiplicity
  _atom_site_fract_x
  _atom_site_fract_y
  _atom_site_fract_z
  _atom_site_occupancy
  B   B1        1.0  0.79800  0.29800  0.29800  1.0000
  B   B2        1.0  0.20200  0.70200  0.70200  1.0000
  Ni  Ni1       1.0  0.00000  0.00000  0.00000  1.0000
  W   W1        1.0  0.50000  0.70000  0.30000  1.0000
  W   W2        1.0  0.50000  0.30000  0.70000  1.0000
