data_image0
_chemical_formula_structural       C12Mn28
_chemical_formula_sum              "C12 Mn28"
_cell_length_a       4.43851
_cell_length_b       6.79414
_cell_length_c       11.7212
_cell_angle_alpha    90
_cell_angle_beta     90
_cell_angle_gamma    90

_space_group_name_H-M_alt    "P 1"
_space_group_IT_number       1

loop_
  _space_group_symop_operation_xyz
  'x, y, z'

loop_
  _atom_site_type_symbol
  _atom_site_label
  _atom_site_symmetry_multiplicity
  _atom_site_fract_x
  _atom_site_fract_y
  _atom_site_fract_z
  _atom_site_occupancy
  C   C1        1.0  0.03390  0.75000  0.06190  1.0000
  C   C2        1.0  0.53900  0.02900  0.14900  1.0000
  C   C3        1.0  0.53900  0.47100  0.14900  1.0000
  C   C4        1.0  0.03890  0.02900  0.35100  1.0000
  C   C5        1.0  0.03890  0.47100  0.35100  1.0000
  C   C6        1.0  0.53400  0.75000  0.43800  1.0000
  C   C7        1.0  0.46600  0.25000  0.56200  1.0000
  C   C8        1.0  0.96100  0.52900  0.64900  1.0000
  C   C9        1.0  0.96100  0.97100  0.64900  1.0000
  C   C10       1.0  0.46100  0.52900  0.85100  1.0000
  C   C11       1.0  0.46100  0.97100  0.85100  1.0000
  C   C12       1.0  0.96600  0.25000  0.93800  1.0000
  Mn  Mn1       1.0  0.24900  0.06770  0.01770  1.0000
  Mn  Mn2       1.0  0.24900  0.43200  0.01770  1.0000
  Mn  Mn3       1.0  0.77300  0.25000  0.08880  1.0000
  Mn  Mn4       1.0  0.43100  0.75000  0.12800  1.0000
  Mn  Mn5       1.0  0.94500  0.56500  0.19200  1.0000
  Mn  Mn6       1.0  0.94500  0.93500  0.19200  1.0000
  Mn  Mn7       1.0  0.27300  0.25000  0.20000  1.0000
  Mn  Mn8       1.0  0.77300  0.25000  0.30000  1.0000
  Mn  Mn9       1.0  0.44500  0.56500  0.30800  1.0000
  Mn  Mn10      1.0  0.44500  0.93500  0.30800  1.0000
  Mn  Mn11      1.0  0.93100  0.75000  0.37200  1.0000
  Mn  Mn12      1.0  0.27300  0.25000  0.41100  1.0000
  Mn  Mn13      1.0  0.74900  0.06770  0.48200  1.0000
  Mn  Mn14      1.0  0.74900  0.43200  0.48200  1.0000
  Mn  Mn15      1.0  0.25100  0.56800  0.51800  1.0000
  Mn  Mn16      1.0  0.25100  0.93200  0.51800  1.0000
  Mn  Mn17      1.0  0.72700  0.75000  0.58900  1.0000
  Mn  Mn18      1.0  0.06900  0.25000  0.62800  1.0000
  Mn  Mn19      1.0  0.55500  0.06530  0.69200  1.0000
  Mn  Mn20      1.0  0.55500  0.43500  0.69200  1.0000
  Mn  Mn21      1.0  0.22700  0.75000  0.70000  1.0000
  Mn  Mn22      1.0  0.72700  0.75000  0.80000  1.0000
  Mn  Mn23      1.0  0.05540  0.06530  0.80800  1.0000
  Mn  Mn24      1.0  0.05540  0.43500  0.80800  1.0000
  Mn  Mn25      1.0  0.56900  0.25000  0.87200  1.0000
  Mn  Mn26      1.0  0.22700  0.75000  0.91100  1.0000
  Mn  Mn27      1.0  0.75100  0.56800  0.98200  1.0000
  Mn  Mn28      1.0  0.75100  0.93200  0.98200  1.0000
