data_image0
_chemical_formula_structural       Li8O24P4V4
_chemical_formula_sum              "Li8 O24 P4 V4"
_cell_length_a       10.1892
_cell_length_b       4.60754
_cell_length_c       8.51482
_cell_angle_alpha    90
_cell_angle_beta     90
_cell_angle_gamma    90

_space_group_name_H-M_alt    "P 1"
_space_group_IT_number       1

loop_
  _space_group_symop_operation_xyz
  'x, y, z'

loop_
  _atom_site_type_symbol
  _atom_site_label
  _atom_site_symmetry_multiplicity
  _atom_site_fract_x
  _atom_site_fract_y
  _atom_site_fract_z
  _atom_site_occupancy
  Li  Li1       1.0  0.36800  0.03260  0.12300  1.0000
  Li  Li2       1.0  0.86800  0.46700  0.12300  1.0000
  Li  Li3       1.0  0.09090  0.02090  0.31900  1.0000
  Li  Li4       1.0  0.59100  0.47900  0.31900  1.0000
  Li  Li5       1.0  0.13200  0.53300  0.62300  1.0000
  Li  Li6       1.0  0.63200  0.96700  0.62300  1.0000
  Li  Li7       1.0  0.40900  0.52100  0.81900  1.0000
  Li  Li8       1.0  0.90900  0.97900  0.81900  1.0000
  O   O1        1.0  0.54600  0.24700  0.13000  1.0000
  O   O2        1.0  0.04600  0.25300  0.13000  1.0000
  O   O3        1.0  0.21900  0.69500  0.14900  1.0000
  O   O4        1.0  0.71900  0.80500  0.14900  1.0000
  O   O5        1.0  0.42200  0.73100  0.31000  1.0000
  O   O6        1.0  0.92200  0.76900  0.31000  1.0000
  O   O7        1.0  0.78500  0.24700  0.31200  1.0000
  O   O8        1.0  0.28500  0.25300  0.31200  1.0000
  O   O9        1.0  0.21400  0.73800  0.44400  1.0000
  O   O10       1.0  0.71400  0.76200  0.44400  1.0000
  O   O11       1.0  0.51600  0.20800  0.47300  1.0000
  O   O12       1.0  0.01630  0.29200  0.47300  1.0000
  O   O13       1.0  0.95400  0.74700  0.63000  1.0000
  O   O14       1.0  0.45400  0.75300  0.63000  1.0000
  O   O15       1.0  0.28100  0.19500  0.64900  1.0000
  O   O16       1.0  0.78100  0.30500  0.64900  1.0000
  O   O17       1.0  0.07810  0.23100  0.81000  1.0000
  O   O18       1.0  0.57800  0.26900  0.81000  1.0000
  O   O19       1.0  0.71500  0.74700  0.81200  1.0000
  O   O20       1.0  0.21500  0.75300  0.81200  1.0000
  O   O21       1.0  0.28600  0.23800  0.94400  1.0000
  O   O22       1.0  0.78600  0.26200  0.94400  1.0000
  O   O23       1.0  0.98400  0.70800  0.97300  1.0000
  O   O24       1.0  0.48400  0.79200  0.97300  1.0000
  P   P1        1.0  0.28300  0.58300  0.30500  1.0000
  P   P2        1.0  0.78300  0.91700  0.30500  1.0000
  P   P3        1.0  0.21700  0.08260  0.80500  1.0000
  P   P4        1.0  0.71700  0.41700  0.80500  1.0000
  V   V1        1.0  0.60900  0.01590  0.00065  1.0000
  V   V2        1.0  0.10900  0.48400  0.00065  1.0000
  V   V3        1.0  0.89100  0.51600  0.50100  1.0000
  V   V4        1.0  0.39100  0.98400  0.50100  1.0000
