data_image0
_chemical_formula_structural       H16N8O16
_chemical_formula_sum              "H16 N8 O16"
_cell_length_a       4.65215
_cell_length_b       6.44413
_cell_length_c       10.4807
_cell_angle_alpha    90
_cell_angle_beta     100.349
_cell_angle_gamma    90

_space_group_name_H-M_alt    "P 1"
_space_group_IT_number       1

loop_
  _space_group_symop_operation_xyz
  'x, y, z'

loop_
  _atom_site_type_symbol
  _atom_site_label
  _atom_site_symmetry_multiplicity
  _atom_site_fract_x
  _atom_site_fract_y
  _atom_site_fract_z
  _atom_site_occupancy
  H   H1        1.0  0.52000  0.13300  0.13000  1.0000
  H   H2        1.0  0.49500  0.53700  0.14100  1.0000
  H   H3        1.0  0.72000  0.90500  0.15000  1.0000
  H   H4        1.0  0.18500  0.60900  0.24700  1.0000
  H   H5        1.0  0.81500  0.10900  0.25300  1.0000
  H   H6        1.0  0.28000  0.40500  0.35000  1.0000
  H   H7        1.0  0.50500  0.03730  0.35900  1.0000
  H   H8        1.0  0.48000  0.63300  0.37000  1.0000
  H   H9        1.0  0.52000  0.36700  0.63000  1.0000
  H   H10       1.0  0.49500  0.96300  0.64100  1.0000
  H   H11       1.0  0.72000  0.59500  0.65000  1.0000
  H   H12       1.0  0.18500  0.89100  0.74700  1.0000
  H   H13       1.0  0.81500  0.39100  0.75300  1.0000
  H   H14       1.0  0.28000  0.09530  0.85000  1.0000
  H   H15       1.0  0.50500  0.46300  0.85900  1.0000
  H   H16       1.0  0.48000  0.86700  0.87000  1.0000
  N   N1        1.0  0.06450  0.74200  0.01800  1.0000
  N   N2        1.0  0.63900  0.03010  0.19600  1.0000
  N   N3        1.0  0.36100  0.53000  0.30400  1.0000
  N   N4        1.0  0.93500  0.24200  0.48200  1.0000
  N   N5        1.0  0.06450  0.75800  0.51800  1.0000
  N   N6        1.0  0.63900  0.47000  0.69600  1.0000
  N   N7        1.0  0.36100  0.97000  0.80400  1.0000
  N   N8        1.0  0.93500  0.25800  0.98200  1.0000
  O   O1        1.0  0.33400  0.70000  0.02310  1.0000
  O   O2        1.0  0.08070  0.17600  0.08110  1.0000
  O   O3        1.0  0.94400  0.69900  0.11500  1.0000
  O   O4        1.0  0.54500  0.45000  0.22200  1.0000
  O   O5        1.0  0.45500  0.95000  0.27800  1.0000
  O   O6        1.0  0.05570  0.19900  0.38500  1.0000
  O   O7        1.0  0.91900  0.67600  0.41900  1.0000
  O   O8        1.0  0.66600  0.20000  0.47700  1.0000
  O   O9        1.0  0.33400  0.80000  0.52300  1.0000
  O   O10       1.0  0.08070  0.32400  0.58100  1.0000
  O   O11       1.0  0.94400  0.80100  0.61500  1.0000
  O   O12       1.0  0.54500  0.04990  0.72200  1.0000
  O   O13       1.0  0.45500  0.55000  0.77800  1.0000
  O   O14       1.0  0.05570  0.30100  0.88500  1.0000
  O   O15       1.0  0.91900  0.82400  0.91900  1.0000
  O   O16       1.0  0.66600  0.30000  0.97700  1.0000
