data_image0
_chemical_formula_structural       As6Ba2Cu7O24
_chemical_formula_sum              "As6 Ba2 Cu7 O24"
_cell_length_a       8.41628
_cell_length_b       11.415
_cell_length_c       5.22393
_cell_angle_alpha    90.5029
_cell_angle_beta     93.756
_cell_angle_gamma    89.1062

_space_group_name_H-M_alt    "P 1"
_space_group_IT_number       1

loop_
  _space_group_symop_operation_xyz
  'x, y, z'

loop_
  _atom_site_type_symbol
  _atom_site_label
  _atom_site_symmetry_multiplicity
  _atom_site_fract_x
  _atom_site_fract_y
  _atom_site_fract_z
  _atom_site_occupancy
  As  As1       1.0  0.92500  0.28000  0.02200  1.0000
  As  As2       1.0  0.26200  0.94400  0.46600  1.0000
  As  As3       1.0  0.34000  0.38800  0.47700  1.0000
  As  As4       1.0  0.66000  0.61200  0.52300  1.0000
  As  As5       1.0  0.73800  0.05590  0.53400  1.0000
  As  As6       1.0  0.07490  0.72000  0.97800  1.0000
  Ba  Ba1       1.0  0.55000  0.82500  0.00435  1.0000
  Ba  Ba2       1.0  0.45000  0.17500  0.99600  1.0000
  Cu  Cu1       1.0  0.00000  0.00000  0.00000  1.0000
  Cu  Cu2       1.0  0.50000  0.50000  0.00000  1.0000
  Cu  Cu3       1.0  0.91800  0.81900  0.46000  1.0000
  Cu  Cu4       1.0  0.27600  0.66500  0.47900  1.0000
  Cu  Cu5       1.0  0.00000  0.50000  0.50000  1.0000
  Cu  Cu6       1.0  0.72400  0.33500  0.52100  1.0000
  Cu  Cu7       1.0  0.08210  0.18100  0.54000  1.0000
  O   O1        1.0  0.26500  0.72000  0.11800  1.0000
  O   O2        1.0  0.98800  0.14800  0.17600  1.0000
  O   O3        1.0  0.94400  0.68500  0.20100  1.0000
  O   O4        1.0  0.60300  0.61600  0.20400  1.0000
  O   O5        1.0  0.38000  0.98700  0.23700  1.0000
  O   O6        1.0  0.91200  0.37400  0.28200  1.0000
  O   O7        1.0  0.50700  0.39700  0.29900  1.0000
  O   O8        1.0  0.76100  0.95200  0.30500  1.0000
  O   O9        1.0  0.07360  0.91500  0.31000  1.0000
  O   O10       1.0  0.21300  0.50300  0.38300  1.0000
  O   O11       1.0  0.66600  0.18400  0.39400  1.0000
  O   O12       1.0  0.25800  0.25500  0.39400  1.0000
  O   O13       1.0  0.74200  0.74500  0.60600  1.0000
  O   O14       1.0  0.33400  0.81600  0.60600  1.0000
  O   O15       1.0  0.78700  0.49700  0.61700  1.0000
  O   O16       1.0  0.92600  0.08540  0.69000  1.0000
  O   O17       1.0  0.23900  0.04850  0.69500  1.0000
  O   O18       1.0  0.49300  0.60300  0.70100  1.0000
  O   O19       1.0  0.08840  0.62600  0.71800  1.0000
  O   O20       1.0  0.62000  0.01330  0.76300  1.0000
  O   O21       1.0  0.39700  0.38400  0.79600  1.0000
  O   O22       1.0  0.05570  0.31500  0.79900  1.0000
  O   O23       1.0  0.01160  0.85200  0.82400  1.0000
  O   O24       1.0  0.73500  0.28000  0.88200  1.0000
