data_image0
_chemical_formula_structural       LaRhSi3
_chemical_formula_sum              "La1 Rh1 Si3"
_cell_length_a       4.28265
_cell_length_b       4.28265
_cell_length_c       5.79838
_cell_angle_alpha    111.672
_cell_angle_beta     111.672
_cell_angle_gamma    90

_space_group_name_H-M_alt    "P 1"
_space_group_IT_number       1

loop_
  _space_group_symop_operation_xyz
  'x, y, z'

loop_
  _atom_site_type_symbol
  _atom_site_label
  _atom_site_symmetry_multiplicity
  _atom_site_fract_x
  _atom_site_fract_y
  _atom_site_fract_z
  _atom_site_occupancy
  La  La1       1.0  0.99900  0.99900  0.99800  1.0000
  Rh  Rh1       1.0  0.65400  0.65400  0.30900  1.0000
  Si  Si1       1.0  0.76200  0.26200  0.52500  1.0000
  Si  Si2       1.0  0.26200  0.76200  0.52500  1.0000
  Si  Si3       1.0  0.41200  0.41200  0.82300  1.0000
