data_image0
_chemical_formula_structural       C2K2Pd
_chemical_formula_sum              "C2 K2 Pd1"
_cell_length_a       5.1459
_cell_length_b       5.14577
_cell_length_c       5.3094
_cell_angle_alpha    90
_cell_angle_beta     90.0002
_cell_angle_gamma    119.999

_space_group_name_H-M_alt    "P 1"
_space_group_IT_number       1

loop_
  _space_group_symop_operation_xyz
  'x, y, z'

loop_
  _atom_site_type_symbol
  _atom_site_label
  _atom_site_symmetry_multiplicity
  _atom_site_fract_x
  _atom_site_fract_y
  _atom_site_fract_z
  _atom_site_occupancy
  C   C1        1.0  0.00001  0.00000  0.38000  1.0000
  C   C2        1.0  0.00000  0.00000  0.62000  1.0000
  K   K1        1.0  0.33300  0.66700  0.27900  1.0000
  K   K2        1.0  0.66700  0.33300  0.72100  1.0000
  Pd  Pd1       1.0  0.00000  0.00000  0.00000  1.0000
