data_image0
_chemical_formula_structural       Ca8Ir16P14
_chemical_formula_sum              "Ca8 Ir16 P14"
_cell_length_a       12.6236
_cell_length_b       3.9784
_cell_length_c       13.1578
_cell_angle_alpha    90
_cell_angle_beta     98.8888
_cell_angle_gamma    90

_space_group_name_H-M_alt    "P 1"
_space_group_IT_number       1

loop_
  _space_group_symop_operation_xyz
  'x, y, z'

loop_
  _atom_site_type_symbol
  _atom_site_label
  _atom_site_symmetry_multiplicity
  _atom_site_fract_x
  _atom_site_fract_y
  _atom_site_fract_z
  _atom_site_occupancy
  Ca  Ca1       1.0  0.71600  0.25000  0.10600  1.0000
  Ca  Ca2       1.0  0.10300  0.75000  0.20700  1.0000
  Ca  Ca3       1.0  0.48500  0.25000  0.29100  1.0000
  Ca  Ca4       1.0  0.78600  0.25000  0.43400  1.0000
  Ca  Ca5       1.0  0.21400  0.75000  0.56600  1.0000
  Ca  Ca6       1.0  0.51500  0.75000  0.70900  1.0000
  Ca  Ca7       1.0  0.89700  0.25000  0.79300  1.0000
  Ca  Ca8       1.0  0.28400  0.75000  0.89400  1.0000
  Ir  Ir1       1.0  0.91700  0.75000  0.00114  1.0000
  Ir  Ir2       1.0  0.44600  0.25000  0.04820  1.0000
  Ir  Ir3       1.0  0.33900  0.75000  0.14200  1.0000
  Ir  Ir4       1.0  0.66300  0.75000  0.27300  1.0000
  Ir  Ir5       1.0  0.93900  0.25000  0.27400  1.0000
  Ir  Ir6       1.0  0.27100  0.25000  0.39600  1.0000
  Ir  Ir7       1.0  0.98600  0.75000  0.42500  1.0000
  Ir  Ir8       1.0  0.42300  0.75000  0.47200  1.0000
  Ir  Ir9       1.0  0.57700  0.25000  0.52800  1.0000
  Ir  Ir10      1.0  0.01450  0.25000  0.57500  1.0000
  Ir  Ir11      1.0  0.72900  0.75000  0.60400  1.0000
  Ir  Ir12      1.0  0.06120  0.75000  0.72600  1.0000
  Ir  Ir13      1.0  0.33700  0.25000  0.72700  1.0000
  Ir  Ir14      1.0  0.66100  0.25000  0.85800  1.0000
  Ir  Ir15      1.0  0.55400  0.75000  0.95200  1.0000
  Ir  Ir16      1.0  0.08310  0.25000  0.99900  1.0000
  P   P1        1.0  0.25800  0.25000  0.07970  1.0000
  P   P2        1.0  0.94300  0.25000  0.09910  1.0000
  P   P3        1.0  0.52800  0.75000  0.12800  1.0000
  P   P4        1.0  0.84500  0.75000  0.28100  1.0000
  P   P5        1.0  0.30900  0.75000  0.31200  1.0000
  P   P6        1.0  0.09110  0.25000  0.41300  1.0000
  P   P7        1.0  0.61000  0.75000  0.43800  1.0000
  P   P8        1.0  0.39000  0.25000  0.56200  1.0000
  P   P9        1.0  0.90900  0.75000  0.58700  1.0000
  P   P10       1.0  0.69100  0.25000  0.68800  1.0000
  P   P11       1.0  0.15500  0.25000  0.71900  1.0000
  P   P12       1.0  0.47200  0.25000  0.87200  1.0000
  P   P13       1.0  0.05680  0.75000  0.90100  1.0000
  P   P14       1.0  0.74200  0.75000  0.92000  1.0000
