data_image0
_chemical_formula_structural       Pr2Zn6
_chemical_formula_sum              "Pr2 Zn6"
_cell_length_a       6.32522
_cell_length_b       6.32523
_cell_length_c       4.47309
_cell_angle_alpha    90
_cell_angle_beta     90
_cell_angle_gamma    120

_space_group_name_H-M_alt    "P 1"
_space_group_IT_number       1

loop_
  _space_group_symop_operation_xyz
  'x, y, z'

loop_
  _atom_site_type_symbol
  _atom_site_label
  _atom_site_symmetry_multiplicity
  _atom_site_fract_x
  _atom_site_fract_y
  _atom_site_fract_z
  _atom_site_occupancy
  Pr  Pr1       1.0  0.66700  0.33300  0.25000  1.0000
  Pr  Pr2       1.0  0.33300  0.66700  0.75000  1.0000
  Zn  Zn1       1.0  0.70800  0.85400  0.25000  1.0000
  Zn  Zn2       1.0  0.14600  0.29200  0.25000  1.0000
  Zn  Zn3       1.0  0.85400  0.70800  0.75000  1.0000
  Zn  Zn4       1.0  0.14600  0.85400  0.25000  1.0000
  Zn  Zn5       1.0  0.85400  0.14600  0.75000  1.0000
  Zn  Zn6       1.0  0.29200  0.14600  0.75000  1.0000
