data_image0
_chemical_formula_structural       Fe4Li4O24Se8
_chemical_formula_sum              "Fe4 Li4 O24 Se8"
_cell_length_a       8.96823
_cell_length_b       8.96823
_cell_length_c       8.96823
_cell_angle_alpha    113.067
_cell_angle_beta     107.704
_cell_angle_gamma    107.704

_space_group_name_H-M_alt    "P 1"
_space_group_IT_number       1

loop_
  _space_group_symop_operation_xyz
  'x, y, z'

loop_
  _atom_site_type_symbol
  _atom_site_label
  _atom_site_symmetry_multiplicity
  _atom_site_fract_x
  _atom_site_fract_y
  _atom_site_fract_z
  _atom_site_occupancy
  Fe  Fe1       1.0  0.54200  0.16700  0.12500  1.0000
  Fe  Fe2       1.0  0.04150  0.87500  0.41700  1.0000
  Fe  Fe3       1.0  0.45800  0.58300  0.62500  1.0000
  Fe  Fe4       1.0  0.95800  0.37500  0.83300  1.0000
  Li  Li1       1.0  0.81500  0.44000  0.12500  1.0000
  Li  Li2       1.0  0.68500  0.37500  0.56000  1.0000
  Li  Li3       1.0  0.18500  0.31000  0.62500  1.0000
  Li  Li4       1.0  0.31500  0.87500  0.69000  1.0000
  O   O1        1.0  0.37800  0.26200  0.05350  1.0000
  O   O2        1.0  0.01970  0.42800  0.09120  1.0000
  O   O3        1.0  0.83700  0.67800  0.15900  1.0000
  O   O4        1.0  0.70800  0.07410  0.19700  1.0000
  O   O5        1.0  0.72900  0.43700  0.30200  1.0000
  O   O6        1.0  0.48000  0.15900  0.32200  1.0000
  O   O7        1.0  0.20800  0.94700  0.32400  1.0000
  O   O8        1.0  0.29200  0.48800  0.36600  1.0000
  O   O9        1.0  0.98000  0.07150  0.40900  1.0000
  O   O10       1.0  0.13500  0.69800  0.42600  1.0000
  O   O11       1.0  0.87800  0.80300  0.51200  1.0000
  O   O12       1.0  0.36500  0.31300  0.54200  1.0000
  O   O13       1.0  0.86500  0.29200  0.56300  1.0000
  O   O14       1.0  0.66300  0.59100  0.57200  1.0000
  O   O15       1.0  0.52000  0.84100  0.67800  1.0000
  O   O16       1.0  0.22900  0.05230  0.68700  1.0000
  O   O17       1.0  0.27100  0.57400  0.70800  1.0000
  O   O18       1.0  0.79200  0.11600  0.73800  1.0000
  O   O19       1.0  0.77100  0.45800  0.82400  1.0000
  O   O20       1.0  0.16300  0.32200  0.84100  1.0000
  O   O21       1.0  0.62200  0.67600  0.88400  1.0000
  O   O22       1.0  0.12200  0.63400  0.92600  1.0000
  O   O23       1.0  0.33700  0.90900  0.92800  1.0000
  O   O24       1.0  0.63500  0.17600  0.94800  1.0000
  Se  Se1       1.0  0.22100  0.61200  0.28400  1.0000
  Se  Se2       1.0  0.27900  0.14000  0.31300  1.0000
  Se  Se3       1.0  0.67200  0.61000  0.38800  1.0000
  Se  Se4       1.0  0.77900  0.06280  0.39000  1.0000
  Se  Se5       1.0  0.17200  0.13800  0.86000  1.0000
  Se  Se6       1.0  0.72100  0.03420  0.86200  1.0000
  Se  Se7       1.0  0.32800  0.71600  0.93700  1.0000
  Se  Se8       1.0  0.82800  0.68700  0.96600  1.0000
