data_image0
_chemical_formula_structural       Ga4Gd4Mn30
_chemical_formula_sum              "Ga4 Gd4 Mn30"
_cell_length_a       8.31008
_cell_length_b       8.30709
_cell_length_c       8.28474
_cell_angle_alpha    90
_cell_angle_beta     90
_cell_angle_gamma    119.986

_space_group_name_H-M_alt    "P 1"
_space_group_IT_number       1

loop_
  _space_group_symop_operation_xyz
  'x, y, z'

loop_
  _atom_site_type_symbol
  _atom_site_label
  _atom_site_symmetry_multiplicity
  _atom_site_fract_x
  _atom_site_fract_y
  _atom_site_fract_z
  _atom_site_occupancy
  Ga  Ga1       1.0  0.33300  0.66700  0.09530  1.0000
  Ga  Ga2       1.0  0.33300  0.66700  0.40500  1.0000
  Ga  Ga3       1.0  0.66700  0.33300  0.59500  1.0000
  Ga  Ga4       1.0  0.66700  0.33300  0.90500  1.0000
  Gd  Gd1       1.0  0.00000  0.00000  0.25000  1.0000
  Gd  Gd2       1.0  0.66700  0.33300  0.25000  1.0000
  Gd  Gd3       1.0  0.00000  0.00000  0.75000  1.0000
  Gd  Gd4       1.0  0.33300  0.66700  0.75000  1.0000
  Mn  Mn1       1.0  0.50000  0.00000  0.00000  1.0000
  Mn  Mn2       1.0  0.50000  0.50000  0.00000  1.0000
  Mn  Mn3       1.0  0.00000  0.50000  0.00000  1.0000
  Mn  Mn4       1.0  0.32400  0.16200  0.01270  1.0000
  Mn  Mn5       1.0  0.83800  0.16200  0.01280  1.0000
  Mn  Mn6       1.0  0.83800  0.67600  0.01290  1.0000
  Mn  Mn7       1.0  0.05100  0.38100  0.25000  1.0000
  Mn  Mn8       1.0  0.33000  0.38100  0.25000  1.0000
  Mn  Mn9       1.0  0.05110  0.67000  0.25000  1.0000
  Mn  Mn10      1.0  0.62000  0.67000  0.25000  1.0000
  Mn  Mn11      1.0  0.61900  0.94900  0.25000  1.0000
  Mn  Mn12      1.0  0.33000  0.94900  0.25000  1.0000
  Mn  Mn13      1.0  0.83800  0.67600  0.48700  1.0000
  Mn  Mn14      1.0  0.83800  0.16200  0.48700  1.0000
  Mn  Mn15      1.0  0.32400  0.16200  0.48700  1.0000
  Mn  Mn16      1.0  0.50000  0.00000  0.50000  1.0000
  Mn  Mn17      1.0  0.50000  0.50000  0.50000  1.0000
  Mn  Mn18      1.0  0.00000  0.50000  0.50000  1.0000
  Mn  Mn19      1.0  0.67600  0.83800  0.51300  1.0000
  Mn  Mn20      1.0  0.16200  0.83800  0.51300  1.0000
  Mn  Mn21      1.0  0.16200  0.32400  0.51300  1.0000
  Mn  Mn22      1.0  0.67000  0.05080  0.75000  1.0000
  Mn  Mn23      1.0  0.38100  0.05130  0.75000  1.0000
  Mn  Mn24      1.0  0.38000  0.33000  0.75000  1.0000
  Mn  Mn25      1.0  0.94900  0.33000  0.75000  1.0000
  Mn  Mn26      1.0  0.67000  0.61900  0.75000  1.0000
  Mn  Mn27      1.0  0.94900  0.61900  0.75000  1.0000
  Mn  Mn28      1.0  0.16200  0.32400  0.98700  1.0000
  Mn  Mn29      1.0  0.16200  0.83800  0.98700  1.0000
  Mn  Mn30      1.0  0.67600  0.83800  0.98700  1.0000
