data_image0
_chemical_formula_structural       H2Li2Pd
_chemical_formula_sum              "H2 Li2 Pd1"
_cell_length_a       3.06549
_cell_length_b       3.06549
_cell_length_c       5.54214
_cell_angle_alpha    106.055
_cell_angle_beta     106.055
_cell_angle_gamma    90

_space_group_name_H-M_alt    "P 1"
_space_group_IT_number       1

loop_
  _space_group_symop_operation_xyz
  'x, y, z'

loop_
  _atom_site_type_symbol
  _atom_site_label
  _atom_site_symmetry_multiplicity
  _atom_site_fract_x
  _atom_site_fract_y
  _atom_site_fract_z
  _atom_site_occupancy
  H   H1        1.0  0.16500  0.16500  0.33100  1.0000
  H   H2        1.0  0.83500  0.83500  0.66900  1.0000
  Li  Li1       1.0  0.64800  0.64800  0.29500  1.0000
  Li  Li2       1.0  0.35200  0.35200  0.70500  1.0000
  Pd  Pd1       1.0  0.00000  0.00000  0.00000  1.0000
