data_image0
_chemical_formula_structural       In4Li6O24P6
_chemical_formula_sum              "In4 Li6 O24 P6"
_cell_length_a       8.49937
_cell_length_b       8.49937
_cell_length_c       9.13774
_cell_angle_alpha    117.715
_cell_angle_beta     62.2853
_cell_angle_gamma    120

_space_group_name_H-M_alt    "P 1"
_space_group_IT_number       1

loop_
  _space_group_symop_operation_xyz
  'x, y, z'

loop_
  _atom_site_type_symbol
  _atom_site_label
  _atom_site_symmetry_multiplicity
  _atom_site_fract_x
  _atom_site_fract_y
  _atom_site_fract_z
  _atom_site_occupancy
  In  In1       1.0  0.65400  0.34600  0.03690  1.0000
  In  In2       1.0  0.85400  0.14600  0.43700  1.0000
  In  In3       1.0  0.14600  0.85400  0.56300  1.0000
  In  In4       1.0  0.34600  0.65400  0.96300  1.0000
  Li  Li1       1.0  0.26900  0.06950  0.13500  1.0000
  Li  Li2       1.0  0.66600  0.73100  0.13500  1.0000
  Li  Li3       1.0  0.93100  0.33400  0.13500  1.0000
  Li  Li4       1.0  0.06950  0.66600  0.86500  1.0000
  Li  Li5       1.0  0.33400  0.26900  0.86500  1.0000
  Li  Li6       1.0  0.73100  0.93100  0.86500  1.0000
  O   O1        1.0  0.14300  0.79800  0.09650  1.0000
  O   O2        1.0  0.20200  0.44200  0.09650  1.0000
  O   O3        1.0  0.55800  0.85700  0.09650  1.0000
  O   O4        1.0  0.46800  0.50300  0.19300  1.0000
  O   O5        1.0  0.49700  0.15800  0.19300  1.0000
  O   O6        1.0  0.84200  0.53200  0.19300  1.0000
  O   O7        1.0  0.14100  0.24500  0.26100  1.0000
  O   O8        1.0  0.75500  0.15700  0.26100  1.0000
  O   O9        1.0  0.84300  0.85900  0.26100  1.0000
  O   O10       1.0  0.18800  0.59400  0.41600  1.0000
  O   O11       1.0  0.40600  0.01010  0.41600  1.0000
  O   O12       1.0  0.99000  0.81200  0.41600  1.0000
  O   O13       1.0  0.01010  0.18800  0.58400  1.0000
  O   O14       1.0  0.59400  0.99000  0.58400  1.0000
  O   O15       1.0  0.81200  0.40600  0.58400  1.0000
  O   O16       1.0  0.15700  0.14100  0.73900  1.0000
  O   O17       1.0  0.24500  0.84300  0.73900  1.0000
  O   O18       1.0  0.85900  0.75500  0.73900  1.0000
  O   O19       1.0  0.15800  0.46800  0.80700  1.0000
  O   O20       1.0  0.50300  0.84200  0.80700  1.0000
  O   O21       1.0  0.53200  0.49700  0.80700  1.0000
  O   O22       1.0  0.44200  0.14300  0.90300  1.0000
  O   O23       1.0  0.79800  0.55800  0.90300  1.0000
  O   O24       1.0  0.85700  0.20200  0.90300  1.0000
  P   P1        1.0  0.25000  0.45100  0.24900  1.0000
  P   P2        1.0  0.54900  0.04880  0.24900  1.0000
  P   P3        1.0  0.95100  0.75000  0.24900  1.0000
  P   P4        1.0  0.04880  0.25000  0.75100  1.0000
  P   P5        1.0  0.45100  0.95100  0.75100  1.0000
  P   P6        1.0  0.75000  0.54900  0.75100  1.0000
