data_image0
_chemical_formula_structural       Cl4H16N4O16
_chemical_formula_sum              "Cl4 H16 N4 O16"
_cell_length_a       8.44881
_cell_length_b       5.50065
_cell_length_c       6.84181
_cell_angle_alpha    90
_cell_angle_beta     90
_cell_angle_gamma    90

_space_group_name_H-M_alt    "P 1"
_space_group_IT_number       1

loop_
  _space_group_symop_operation_xyz
  'x, y, z'

loop_
  _atom_site_type_symbol
  _atom_site_label
  _atom_site_symmetry_multiplicity
  _atom_site_fract_x
  _atom_site_fract_y
  _atom_site_fract_z
  _atom_site_occupancy
  Cl  Cl1       1.0  0.41100  0.25000  0.19600  1.0000
  Cl  Cl2       1.0  0.08880  0.75000  0.69600  1.0000
  Cl  Cl3       1.0  0.91100  0.25000  0.30400  1.0000
  Cl  Cl4       1.0  0.58900  0.75000  0.80400  1.0000
  H   H1        1.0  0.21500  0.75000  0.32100  1.0000
  H   H2        1.0  0.28500  0.25000  0.82100  1.0000
  H   H3        1.0  0.71500  0.75000  0.17900  1.0000
  H   H4        1.0  0.78500  0.25000  0.67900  1.0000
  H   H5        1.0  0.11200  0.90100  0.14900  1.0000
  H   H6        1.0  0.38800  0.09890  0.64900  1.0000
  H   H7        1.0  0.61200  0.59900  0.35100  1.0000
  H   H8        1.0  0.88800  0.40100  0.85100  1.0000
  H   H9        1.0  0.88800  0.09890  0.85100  1.0000
  H   H10       1.0  0.61200  0.90100  0.35100  1.0000
  H   H11       1.0  0.38800  0.40100  0.64900  1.0000
  H   H12       1.0  0.11200  0.59900  0.14900  1.0000
  H   H13       1.0  0.27900  0.75000  0.08910  1.0000
  H   H14       1.0  0.22100  0.25000  0.58900  1.0000
  H   H15       1.0  0.77900  0.75000  0.41100  1.0000
  H   H16       1.0  0.72100  0.25000  0.91100  1.0000
  N   N1        1.0  0.18100  0.75000  0.17700  1.0000
  N   N2        1.0  0.31900  0.25000  0.67700  1.0000
  N   N3        1.0  0.68100  0.75000  0.32300  1.0000
  N   N4        1.0  0.81900  0.25000  0.82300  1.0000
  O   O1        1.0  0.54500  0.25000  0.06390  1.0000
  O   O2        1.0  0.95500  0.75000  0.56400  1.0000
  O   O3        1.0  0.04450  0.25000  0.43600  1.0000
  O   O4        1.0  0.45500  0.75000  0.93600  1.0000
  O   O5        1.0  0.41600  0.03580  0.32000  1.0000
  O   O6        1.0  0.08430  0.96400  0.82000  1.0000
  O   O7        1.0  0.91600  0.46400  0.18000  1.0000
  O   O8        1.0  0.58400  0.53600  0.68000  1.0000
  O   O9        1.0  0.58400  0.96400  0.68000  1.0000
  O   O10       1.0  0.91600  0.03580  0.18000  1.0000
  O   O11       1.0  0.08430  0.53600  0.82000  1.0000
  O   O12       1.0  0.41600  0.46400  0.32000  1.0000
  O   O13       1.0  0.26400  0.25000  0.08560  1.0000
  O   O14       1.0  0.23600  0.75000  0.58600  1.0000
  O   O15       1.0  0.76400  0.25000  0.41400  1.0000
  O   O16       1.0  0.73600  0.75000  0.91400  1.0000
