data_image0
_chemical_formula_structural       Li12N16Nb4Sr8
_chemical_formula_sum              "Li12 N16 Nb4 Sr8"
_cell_length_a       8.69195
_cell_length_b       8.96811
_cell_length_c       6.99654
_cell_angle_alpha    90
_cell_angle_beta     90
_cell_angle_gamma    90

_space_group_name_H-M_alt    "P 1"
_space_group_IT_number       1

loop_
  _space_group_symop_operation_xyz
  'x, y, z'

loop_
  _atom_site_type_symbol
  _atom_site_label
  _atom_site_symmetry_multiplicity
  _atom_site_fract_x
  _atom_site_fract_y
  _atom_site_fract_z
  _atom_site_occupancy
  Li  Li1       1.0  0.20500  0.42200  0.00000  1.0000
  Li  Li2       1.0  0.79500  0.57800  0.00000  1.0000
  Li  Li3       1.0  0.01800  0.36500  0.23700  1.0000
  Li  Li4       1.0  0.98200  0.63500  0.23700  1.0000
  Li  Li5       1.0  0.51800  0.13500  0.26300  1.0000
  Li  Li6       1.0  0.48200  0.86500  0.26300  1.0000
  Li  Li7       1.0  0.70500  0.07840  0.50000  1.0000
  Li  Li8       1.0  0.29500  0.92200  0.50000  1.0000
  Li  Li9       1.0  0.51800  0.13500  0.73700  1.0000
  Li  Li10      1.0  0.48200  0.86500  0.73700  1.0000
  Li  Li11      1.0  0.01800  0.36500  0.76300  1.0000
  Li  Li12      1.0  0.98200  0.63500  0.76300  1.0000
  N   N1        1.0  0.07150  0.22100  0.00000  1.0000
  N   N2        1.0  0.45400  0.28500  0.00000  1.0000
  N   N3        1.0  0.54600  0.71500  0.00000  1.0000
  N   N4        1.0  0.92800  0.77900  0.00000  1.0000
  N   N5        1.0  0.30200  0.01800  0.23600  1.0000
  N   N6        1.0  0.69800  0.98200  0.23600  1.0000
  N   N7        1.0  0.80200  0.48200  0.26400  1.0000
  N   N8        1.0  0.19800  0.51800  0.26400  1.0000
  N   N9        1.0  0.95400  0.21500  0.50000  1.0000
  N   N10       1.0  0.57200  0.27900  0.50000  1.0000
  N   N11       1.0  0.42800  0.72100  0.50000  1.0000
  N   N12       1.0  0.04560  0.78500  0.50000  1.0000
  N   N13       1.0  0.80200  0.48200  0.73600  1.0000
  N   N14       1.0  0.19800  0.51800  0.73600  1.0000
  N   N15       1.0  0.30200  0.01800  0.76400  1.0000
  N   N16       1.0  0.69800  0.98200  0.76400  1.0000
  Nb  Nb1       1.0  0.28600  0.13700  0.00000  1.0000
  Nb  Nb2       1.0  0.71400  0.86300  0.00000  1.0000
  Nb  Nb3       1.0  0.78600  0.36300  0.50000  1.0000
  Nb  Nb4       1.0  0.21400  0.63700  0.50000  1.0000
  Sr  Sr1       1.0  0.75700  0.24600  0.00000  1.0000
  Sr  Sr2       1.0  0.24300  0.75400  0.00000  1.0000
  Sr  Sr3       1.0  0.50000  0.50000  0.24100  1.0000
  Sr  Sr4       1.0  0.00000  0.00000  0.25900  1.0000
  Sr  Sr5       1.0  0.25700  0.25400  0.50000  1.0000
  Sr  Sr6       1.0  0.74300  0.74600  0.50000  1.0000
  Sr  Sr7       1.0  0.00000  0.00000  0.74100  1.0000
  Sr  Sr8       1.0  0.50000  0.50000  0.75900  1.0000
