data_image0
_chemical_formula_structural       Ga2Li2O12Si4
_chemical_formula_sum              "Ga2 Li2 O12 Si4"
_cell_length_a       5.27744
_cell_length_b       6.4139
_cell_length_c       6.4139
_cell_angle_alpha    96.5096
_cell_angle_beta     104.913
_cell_angle_gamma    75.087

_space_group_name_H-M_alt    "P 1"
_space_group_IT_number       1

loop_
  _space_group_symop_operation_xyz
  'x, y, z'

loop_
  _atom_site_type_symbol
  _atom_site_label
  _atom_site_symmetry_multiplicity
  _atom_site_fract_x
  _atom_site_fract_y
  _atom_site_fract_z
  _atom_site_occupancy
  Ga  Ga1       1.0  0.75000  0.09700  0.09700  1.0000
  Ga  Ga2       1.0  0.25000  0.90300  0.90300  1.0000
  Li  Li1       1.0  0.25000  0.26600  0.26600  1.0000
  Li  Li2       1.0  0.75000  0.73400  0.73400  1.0000
  O   O1        1.0  0.64700  0.80000  0.02690  1.0000
  O   O2        1.0  0.82800  0.37000  0.09960  1.0000
  O   O3        1.0  0.14700  0.97300  0.20000  1.0000
  O   O4        1.0  0.55200  0.64000  0.35900  1.0000
  O   O5        1.0  0.05220  0.64100  0.36000  1.0000
  O   O6        1.0  0.67200  0.09960  0.37000  1.0000
  O   O7        1.0  0.32800  0.90000  0.63000  1.0000
  O   O8        1.0  0.94800  0.35900  0.64000  1.0000
  O   O9        1.0  0.44800  0.36000  0.64100  1.0000
  O   O10       1.0  0.85300  0.02690  0.80000  1.0000
  O   O11       1.0  0.17200  0.63000  0.90000  1.0000
  O   O12       1.0  0.35300  0.20000  0.97300  1.0000
  Si  Si1       1.0  0.76300  0.61100  0.20500  1.0000
  Si  Si2       1.0  0.26300  0.79500  0.38900  1.0000
  Si  Si3       1.0  0.73700  0.20500  0.61100  1.0000
  Si  Si4       1.0  0.23700  0.38900  0.79500  1.0000
