data_image0
_chemical_formula_structural       H16Li8O40P8Zn8
_chemical_formula_sum              "H16 Li8 O40 P8 Zn8"
_cell_length_a       9.75454
_cell_length_b       15.8723
_cell_length_c       4.8548
_cell_angle_alpha    90
_cell_angle_beta     90
_cell_angle_gamma    90

_space_group_name_H-M_alt    "P 1"
_space_group_IT_number       1

loop_
  _space_group_symop_operation_xyz
  'x, y, z'

loop_
  _atom_site_type_symbol
  _atom_site_label
  _atom_site_symmetry_multiplicity
  _atom_site_fract_x
  _atom_site_fract_y
  _atom_site_fract_z
  _atom_site_occupancy
  H   H1        1.0  0.01240  0.88200  0.94300  1.0000
  H   H2        1.0  0.51200  0.11800  0.05750  1.0000
  H   H3        1.0  0.51200  0.61800  0.94300  1.0000
  H   H4        1.0  0.01240  0.38200  0.05750  1.0000
  H   H5        1.0  0.04670  0.37200  0.61400  1.0000
  H   H6        1.0  0.54700  0.62800  0.38600  1.0000
  H   H7        1.0  0.54700  0.12800  0.61400  1.0000
  H   H8        1.0  0.04670  0.87200  0.38600  1.0000
  H   H9        1.0  0.12100  0.81200  0.88200  1.0000
  H   H10       1.0  0.62100  0.18800  0.11800  1.0000
  H   H11       1.0  0.62100  0.68800  0.88200  1.0000
  H   H12       1.0  0.12100  0.31200  0.11800  1.0000
  H   H13       1.0  0.93900  0.44300  0.63100  1.0000
  H   H14       1.0  0.43900  0.55700  0.36900  1.0000
  H   H15       1.0  0.43900  0.05720  0.63100  1.0000
  H   H16       1.0  0.93900  0.94300  0.36900  1.0000
  Li  Li1       1.0  0.90200  0.76200  0.10100  1.0000
  Li  Li2       1.0  0.40200  0.23800  0.89900  1.0000
  Li  Li3       1.0  0.40200  0.73800  0.10100  1.0000
  Li  Li4       1.0  0.90200  0.26200  0.89900  1.0000
  Li  Li5       1.0  0.16800  0.48800  0.45500  1.0000
  Li  Li6       1.0  0.66800  0.51200  0.54500  1.0000
  Li  Li7       1.0  0.66800  0.01230  0.45500  1.0000
  Li  Li8       1.0  0.16800  0.98800  0.54500  1.0000
  O   O1        1.0  0.05540  0.83200  0.02430  1.0000
  O   O2        1.0  0.55500  0.16800  0.97600  1.0000
  O   O3        1.0  0.55500  0.66800  0.02430  1.0000
  O   O4        1.0  0.05540  0.33200  0.97600  1.0000
  O   O5        1.0  0.00909  0.42000  0.50700  1.0000
  O   O6        1.0  0.50900  0.58000  0.49300  1.0000
  O   O7        1.0  0.50900  0.08040  0.50700  1.0000
  O   O8        1.0  0.00909  0.92000  0.49300  1.0000
  O   O9        1.0  0.86300  0.45100  0.97500  1.0000
  O   O10       1.0  0.36300  0.54900  0.02530  1.0000
  O   O11       1.0  0.36300  0.04920  0.97500  1.0000
  O   O12       1.0  0.86300  0.95100  0.02530  1.0000
  O   O13       1.0  0.20700  0.79800  0.59400  1.0000
  O   O14       1.0  0.70700  0.20200  0.40600  1.0000
  O   O15       1.0  0.70700  0.70200  0.59400  1.0000
  O   O16       1.0  0.20700  0.29800  0.40600  1.0000
  O   O17       1.0  0.89300  0.65700  0.91600  1.0000
  O   O18       1.0  0.39300  0.34300  0.08400  1.0000
  O   O19       1.0  0.39300  0.84300  0.91600  1.0000
  O   O20       1.0  0.89300  0.15700  0.08400  1.0000
  O   O21       1.0  0.11500  0.53600  0.11500  1.0000
  O   O22       1.0  0.61500  0.46400  0.88500  1.0000
  O   O23       1.0  0.61500  0.96400  0.11500  1.0000
  O   O24       1.0  0.11500  0.03610  0.88500  1.0000
  O   O25       1.0  0.84000  0.57100  0.49500  1.0000
  O   O26       1.0  0.34000  0.42900  0.50500  1.0000
  O   O27       1.0  0.34000  0.92900  0.49500  1.0000
  O   O28       1.0  0.84000  0.07060  0.50500  1.0000
  O   O29       1.0  0.22700  0.68100  0.07820  1.0000
  O   O30       1.0  0.72700  0.31900  0.92200  1.0000
  O   O31       1.0  0.72700  0.81900  0.07820  1.0000
  O   O32       1.0  0.22700  0.18100  0.92200  1.0000
  O   O33       1.0  0.19200  0.59100  0.65300  1.0000
  O   O34       1.0  0.69200  0.40900  0.34700  1.0000
  O   O35       1.0  0.69200  0.90900  0.65300  1.0000
  O   O36       1.0  0.19200  0.09150  0.34700  1.0000
  O   O37       1.0  0.95200  0.71500  0.44800  1.0000
  O   O38       1.0  0.45200  0.28500  0.55200  1.0000
  O   O39       1.0  0.45200  0.78500  0.44800  1.0000
  O   O40       1.0  0.95200  0.21500  0.55200  1.0000
  P   P1        1.0  0.72300  0.41000  0.03610  1.0000
  P   P2        1.0  0.22300  0.59000  0.96400  1.0000
  P   P3        1.0  0.22300  0.09000  0.03610  1.0000
  P   P4        1.0  0.72300  0.91000  0.96400  1.0000
  P   P5        1.0  0.84900  0.66100  0.61300  1.0000
  P   P6        1.0  0.34900  0.33900  0.38700  1.0000
  P   P7        1.0  0.34900  0.83900  0.61300  1.0000
  P   P8        1.0  0.84900  0.16100  0.38700  1.0000
  Zn  Zn1       1.0  0.91900  0.55600  0.13000  1.0000
  Zn  Zn2       1.0  0.41900  0.44400  0.87000  1.0000
  Zn  Zn3       1.0  0.41900  0.94400  0.13000  1.0000
  Zn  Zn4       1.0  0.91900  0.05550  0.87000  1.0000
  Zn  Zn5       1.0  0.14800  0.69300  0.44600  1.0000
  Zn  Zn6       1.0  0.64800  0.30700  0.55400  1.0000
  Zn  Zn7       1.0  0.64800  0.80700  0.44600  1.0000
  Zn  Zn8       1.0  0.14800  0.19300  0.55400  1.0000
