data_image0
_chemical_formula_structural       B10Cs4Li6O20
_chemical_formula_sum              "B10 Cs4 Li6 O20"
_cell_length_a       6.82368
_cell_length_b       6.82368
_cell_length_c       12.6323
_cell_angle_alpha    90
_cell_angle_beta     90
_cell_angle_gamma    63.581

_space_group_name_H-M_alt    "P 1"
_space_group_IT_number       1

loop_
  _space_group_symop_operation_xyz
  'x, y, z'

loop_
  _atom_site_type_symbol
  _atom_site_label
  _atom_site_symmetry_multiplicity
  _atom_site_fract_x
  _atom_site_fract_y
  _atom_site_fract_z
  _atom_site_occupancy
  B   B1        1.0  0.30200  0.04680  0.07630  1.0000
  B   B2        1.0  0.29000  0.72800  0.16400  1.0000
  B   B3        1.0  0.09750  0.09750  0.25000  1.0000
  B   B4        1.0  0.72800  0.29000  0.33600  1.0000
  B   B5        1.0  0.04680  0.30200  0.42400  1.0000
  B   B6        1.0  0.69800  0.95300  0.57600  1.0000
  B   B7        1.0  0.71000  0.27200  0.66400  1.0000
  B   B8        1.0  0.90300  0.90300  0.75000  1.0000
  B   B9        1.0  0.27200  0.71000  0.83600  1.0000
  B   B10       1.0  0.95300  0.69800  0.92400  1.0000
  Cs  Cs1       1.0  0.70900  0.29100  0.00000  1.0000
  Cs  Cs2       1.0  0.77300  0.77300  0.25000  1.0000
  Cs  Cs3       1.0  0.29100  0.70900  0.50000  1.0000
  Cs  Cs4       1.0  0.22700  0.22700  0.75000  1.0000
  Li  Li1       1.0  0.18000  0.43500  0.04430  1.0000
  Li  Li2       1.0  0.32300  0.32300  0.25000  1.0000
  Li  Li3       1.0  0.43500  0.18000  0.45600  1.0000
  Li  Li4       1.0  0.82000  0.56500  0.54400  1.0000
  Li  Li5       1.0  0.67700  0.67700  0.75000  1.0000
  Li  Li6       1.0  0.56500  0.82000  0.95600  1.0000
  O   O1        1.0  0.87100  0.64100  0.00724  1.0000
  O   O2        1.0  0.37800  0.81900  0.08670  1.0000
  O   O3        1.0  0.30500  0.52900  0.15200  1.0000
  O   O4        1.0  0.17000  0.18200  0.15600  1.0000
  O   O5        1.0  0.85900  0.18900  0.24900  1.0000
  O   O6        1.0  0.18900  0.85900  0.25100  1.0000
  O   O7        1.0  0.18200  0.17000  0.34400  1.0000
  O   O8        1.0  0.52900  0.30500  0.34800  1.0000
  O   O9        1.0  0.81900  0.37800  0.41300  1.0000
  O   O10       1.0  0.64100  0.87100  0.49300  1.0000
  O   O11       1.0  0.12900  0.35900  0.50700  1.0000
  O   O12       1.0  0.62200  0.18100  0.58700  1.0000
  O   O13       1.0  0.69500  0.47100  0.65200  1.0000
  O   O14       1.0  0.83000  0.81800  0.65600  1.0000
  O   O15       1.0  0.14100  0.81100  0.74900  1.0000
  O   O16       1.0  0.81100  0.14100  0.75100  1.0000
  O   O17       1.0  0.81800  0.83000  0.84400  1.0000
  O   O18       1.0  0.47100  0.69500  0.84800  1.0000
  O   O19       1.0  0.18100  0.62200  0.91300  1.0000
  O   O20       1.0  0.35900  0.12900  0.99300  1.0000
