data_image0
_chemical_formula_structural       B4H28Li4N4
_chemical_formula_sum              "B4 H28 Li4 N4"
_cell_length_a       5.72929
_cell_length_b       4.29504
_cell_length_c       13.8147
_cell_angle_alpha    90
_cell_angle_beta     90
_cell_angle_gamma    90

_space_group_name_H-M_alt    "P 1"
_space_group_IT_number       1

loop_
  _space_group_symop_operation_xyz
  'x, y, z'

loop_
  _atom_site_type_symbol
  _atom_site_label
  _atom_site_symmetry_multiplicity
  _atom_site_fract_x
  _atom_site_fract_y
  _atom_site_fract_z
  _atom_site_occupancy
  B   B1        1.0  0.40100  0.75000  0.10000  1.0000
  B   B2        1.0  0.90100  0.75000  0.40000  1.0000
  B   B3        1.0  0.09900  0.25000  0.60000  1.0000
  B   B4        1.0  0.59900  0.25000  0.90000  1.0000
  H   H1        1.0  0.22700  0.75000  0.04880  1.0000
  H   H2        1.0  0.58000  0.75000  0.05030  1.0000
  H   H3        1.0  0.01010  0.06120  0.13200  1.0000
  H   H4        1.0  0.01010  0.43900  0.13200  1.0000
  H   H5        1.0  0.40000  0.52100  0.15200  1.0000
  H   H6        1.0  0.40000  0.97900  0.15200  1.0000
  H   H7        1.0  0.88700  0.25000  0.22200  1.0000
  H   H8        1.0  0.38700  0.25000  0.27800  1.0000
  H   H9        1.0  0.90000  0.52100  0.34800  1.0000
  H   H10       1.0  0.90000  0.97900  0.34800  1.0000
  H   H11       1.0  0.51000  0.06120  0.36800  1.0000
  H   H12       1.0  0.51000  0.43900  0.36800  1.0000
  H   H13       1.0  0.07970  0.75000  0.45000  1.0000
  H   H14       1.0  0.72700  0.75000  0.45100  1.0000
  H   H15       1.0  0.27300  0.25000  0.54900  1.0000
  H   H16       1.0  0.92000  0.25000  0.55000  1.0000
  H   H17       1.0  0.49000  0.56100  0.63200  1.0000
  H   H18       1.0  0.49000  0.93900  0.63200  1.0000
  H   H19       1.0  0.09960  0.02110  0.65200  1.0000
  H   H20       1.0  0.09960  0.47900  0.65200  1.0000
  H   H21       1.0  0.61300  0.75000  0.72200  1.0000
  H   H22       1.0  0.11300  0.75000  0.77800  1.0000
  H   H23       1.0  0.60000  0.02110  0.84800  1.0000
  H   H24       1.0  0.60000  0.47900  0.84800  1.0000
  H   H25       1.0  0.99000  0.56100  0.86800  1.0000
  H   H26       1.0  0.99000  0.93900  0.86800  1.0000
  H   H27       1.0  0.42000  0.25000  0.95000  1.0000
  H   H28       1.0  0.77300  0.25000  0.95100  1.0000
  Li  Li1       1.0  0.60200  0.25000  0.07590  1.0000
  Li  Li2       1.0  0.10200  0.25000  0.42400  1.0000
  Li  Li3       1.0  0.89800  0.75000  0.57600  1.0000
  Li  Li4       1.0  0.39800  0.75000  0.92400  1.0000
  N   N1        1.0  0.90700  0.25000  0.14800  1.0000
  N   N2        1.0  0.40700  0.25000  0.35200  1.0000
  N   N3        1.0  0.59300  0.75000  0.64800  1.0000
  N   N4        1.0  0.09270  0.75000  0.85200  1.0000
