data_image0
_chemical_formula_structural       F18Li6O9Ta6
_chemical_formula_sum              "F18 Li6 O9 Ta6"
_cell_length_a       5.41111
_cell_length_b       5.41145
_cell_length_c       20.0235
_cell_angle_alpha    90.0107
_cell_angle_beta     89.9931
_cell_angle_gamma    120.002

_space_group_name_H-M_alt    "P 1"
_space_group_IT_number       1

loop_
  _space_group_symop_operation_xyz
  'x, y, z'

loop_
  _atom_site_type_symbol
  _atom_site_label
  _atom_site_symmetry_multiplicity
  _atom_site_fract_x
  _atom_site_fract_y
  _atom_site_fract_z
  _atom_site_occupancy
  F   F1        1.0  0.18600  0.31400  0.08150  1.0000
  F   F2        1.0  0.72300  0.34800  0.11500  1.0000
  F   F3        1.0  0.69600  0.86400  0.12800  1.0000
  F   F4        1.0  0.30300  0.16800  0.20600  1.0000
  F   F5        1.0  0.27800  0.62500  0.21800  1.0000
  F   F6        1.0  0.81400  0.12800  0.25200  1.0000
  F   F7        1.0  0.68600  0.87200  0.41500  1.0000
  F   F8        1.0  0.65200  0.37500  0.44900  1.0000
  F   F9        1.0  0.13600  0.83200  0.46100  1.0000
  F   F10       1.0  0.83200  0.13600  0.53900  1.0000
  F   F11       1.0  0.37500  0.65200  0.55100  1.0000
  F   F12       1.0  0.87200  0.68600  0.58500  1.0000
  F   F13       1.0  0.12800  0.81400  0.74800  1.0000
  F   F14       1.0  0.62500  0.27800  0.78200  1.0000
  F   F15       1.0  0.16800  0.30300  0.79400  1.0000
  F   F16       1.0  0.86400  0.69600  0.87200  1.0000
  F   F17       1.0  0.34800  0.72200  0.88500  1.0000
  F   F18       1.0  0.31400  0.18600  0.91800  1.0000
  Li  Li1       1.0  0.47200  0.47600  0.14300  1.0000
  Li  Li2       1.0  0.52800  0.00413  0.19100  1.0000
  Li  Li3       1.0  0.52400  0.99600  0.47600  1.0000
  Li  Li4       1.0  0.99600  0.52400  0.52400  1.0000
  Li  Li5       1.0  0.00421  0.52800  0.80900  1.0000
  Li  Li6       1.0  0.47600  0.47200  0.85700  1.0000
  O   O1        1.0  0.85200  0.85200  0.00000  1.0000
  O   O2        1.0  0.39500  0.92000  0.02290  1.0000
  O   O3        1.0  0.60500  0.52500  0.31000  1.0000
  O   O4        1.0  0.14800  1.00000  0.33300  1.0000
  O   O5        1.0  0.07970  0.47500  0.35600  1.0000
  O   O6        1.0  0.47400  0.07960  0.64400  1.0000
  O   O7        1.0  0.00000  0.14800  0.66700  1.0000
  O   O8        1.0  0.52500  0.60500  0.69000  1.0000
  O   O9        1.0  0.92000  0.39500  0.97700  1.0000
  Ta  Ta1       1.0  0.79400  0.12300  0.04650  1.0000
  Ta  Ta2       1.0  0.20600  0.32800  0.28700  1.0000
  Ta  Ta3       1.0  0.87800  0.67200  0.38000  1.0000
  Ta  Ta4       1.0  0.67200  0.87700  0.62000  1.0000
  Ta  Ta5       1.0  0.32800  0.20600  0.71300  1.0000
  Ta  Ta6       1.0  0.12300  0.79400  0.95300  1.0000
