data_image0
_chemical_formula_structural       H16N4O16S4
_chemical_formula_sum              "H16 N4 O16 S4"
_cell_length_a       6.02032
_cell_length_b       7.62293
_cell_length_c       7.52997
_cell_angle_alpha    90
_cell_angle_beta     94.0902
_cell_angle_gamma    90

_space_group_name_H-M_alt    "P 1"
_space_group_IT_number       1

loop_
  _space_group_symop_operation_xyz
  'x, y, z'

loop_
  _atom_site_type_symbol
  _atom_site_label
  _atom_site_symmetry_multiplicity
  _atom_site_fract_x
  _atom_site_fract_y
  _atom_site_fract_z
  _atom_site_occupancy
  H   H1        1.0  0.21000  0.86200  0.01370  1.0000
  H   H2        1.0  0.11500  0.98600  0.17500  1.0000
  H   H3        1.0  0.38300  0.92300  0.19200  1.0000
  H   H4        1.0  0.17800  0.77400  0.21500  1.0000
  H   H5        1.0  0.32200  0.27400  0.28500  1.0000
  H   H6        1.0  0.11700  0.42300  0.30800  1.0000
  H   H7        1.0  0.38500  0.48600  0.32500  1.0000
  H   H8        1.0  0.29000  0.36200  0.48600  1.0000
  H   H9        1.0  0.71000  0.63800  0.51400  1.0000
  H   H10       1.0  0.61500  0.51400  0.67500  1.0000
  H   H11       1.0  0.88300  0.57700  0.69200  1.0000
  H   H12       1.0  0.67800  0.72600  0.71500  1.0000
  H   H13       1.0  0.82200  0.22600  0.78500  1.0000
  H   H14       1.0  0.61700  0.07660  0.80800  1.0000
  H   H15       1.0  0.88500  0.01380  0.82500  1.0000
  H   H16       1.0  0.79000  0.13800  0.98600  1.0000
  N   N1        1.0  0.22400  0.88500  0.15000  1.0000
  N   N2        1.0  0.27600  0.38500  0.35000  1.0000
  N   N3        1.0  0.72400  0.61500  0.65000  1.0000
  N   N4        1.0  0.77600  0.11500  0.85000  1.0000
  O   O1        1.0  0.62100  0.47900  0.02360  1.0000
  O   O2        1.0  0.69400  0.80200  0.02540  1.0000
  O   O3        1.0  0.94600  0.58700  0.17800  1.0000
  O   O4        1.0  0.91400  0.15800  0.20600  1.0000
  O   O5        1.0  0.58600  0.65800  0.29400  1.0000
  O   O6        1.0  0.55400  0.08650  0.32200  1.0000
  O   O7        1.0  0.80600  0.30200  0.47500  1.0000
  O   O8        1.0  0.87900  0.97900  0.47600  1.0000
  O   O9        1.0  0.12100  0.02140  0.52400  1.0000
  O   O10       1.0  0.19400  0.69800  0.52500  1.0000
  O   O11       1.0  0.44600  0.91300  0.67800  1.0000
  O   O12       1.0  0.41400  0.34200  0.70600  1.0000
  O   O13       1.0  0.08590  0.84200  0.79400  1.0000
  O   O14       1.0  0.05400  0.41300  0.82200  1.0000
  O   O15       1.0  0.30600  0.19800  0.97500  1.0000
  O   O16       1.0  0.37900  0.52100  0.97600  1.0000
  S   S1        1.0  0.72100  0.65000  0.14000  1.0000
  S   S2        1.0  0.77900  0.15000  0.36000  1.0000
  S   S3        1.0  0.22100  0.85000  0.64000  1.0000
  S   S4        1.0  0.27900  0.35000  0.86000  1.0000
