data_image0
_chemical_formula_structural       Ge6Y2
_chemical_formula_sum              "Ge6 Y2"
_cell_length_a       3.93579
_cell_length_b       4.05126
_cell_length_c       10.6645
_cell_angle_alpha    79.0507
_cell_angle_beta     90
_cell_angle_gamma    90

_space_group_name_H-M_alt    "P 1"
_space_group_IT_number       1

loop_
  _space_group_symop_operation_xyz
  'x, y, z'

loop_
  _atom_site_type_symbol
  _atom_site_label
  _atom_site_symmetry_multiplicity
  _atom_site_fract_x
  _atom_site_fract_y
  _atom_site_fract_z
  _atom_site_occupancy
  Ge  Ge1       1.0  0.25000  0.96000  0.07960  1.0000
  Ge  Ge2       1.0  0.75000  0.81100  0.37800  1.0000
  Ge  Ge3       1.0  0.25000  0.30900  0.38300  1.0000
  Ge  Ge4       1.0  0.75000  0.69100  0.61700  1.0000
  Ge  Ge5       1.0  0.25000  0.18900  0.62200  1.0000
  Ge  Ge6       1.0  0.75000  0.03980  0.92000  1.0000
  Y   Y1        1.0  0.75000  0.41800  0.16400  1.0000
  Y   Y2        1.0  0.25000  0.58200  0.83600  1.0000
