data_image0
_chemical_formula_structural       B8H16O16
_chemical_formula_sum              "B8 H16 O16"
_cell_length_a       6.9729
_cell_length_b       7.52168
_cell_length_c       6.67648
_cell_angle_alpha    90
_cell_angle_beta     113.593
_cell_angle_gamma    90

_space_group_name_H-M_alt    "P 1"
_space_group_IT_number       1

loop_
  _space_group_symop_operation_xyz
  'x, y, z'

loop_
  _atom_site_type_symbol
  _atom_site_label
  _atom_site_symmetry_multiplicity
  _atom_site_fract_x
  _atom_site_fract_y
  _atom_site_fract_z
  _atom_site_occupancy
  B   B1        1.0  0.57600  0.91800  0.08080  1.0000
  B   B2        1.0  0.08100  0.92200  0.08410  1.0000
  B   B3        1.0  0.91900  0.42200  0.41600  1.0000
  B   B4        1.0  0.42400  0.41800  0.41900  1.0000
  B   B5        1.0  0.57600  0.58200  0.58100  1.0000
  B   B6        1.0  0.08100  0.57800  0.58400  1.0000
  B   B7        1.0  0.91900  0.07840  0.91600  1.0000
  B   B8        1.0  0.42400  0.08210  0.91900  1.0000
  H   H1        1.0  0.07440  0.30700  0.06490  1.0000
  H   H2        1.0  0.62400  0.65300  0.12600  1.0000
  H   H3        1.0  0.65300  0.37400  0.14900  1.0000
  H   H4        1.0  0.19800  0.57100  0.18500  1.0000
  H   H5        1.0  0.80200  0.07140  0.31500  1.0000
  H   H6        1.0  0.34700  0.87400  0.35100  1.0000
  H   H7        1.0  0.37600  0.15300  0.37400  1.0000
  H   H8        1.0  0.92600  0.80700  0.43500  1.0000
  H   H9        1.0  0.07440  0.19300  0.56500  1.0000
  H   H10       1.0  0.62400  0.84700  0.62600  1.0000
  H   H11       1.0  0.65300  0.12600  0.64900  1.0000
  H   H12       1.0  0.19800  0.92900  0.68500  1.0000
  H   H13       1.0  0.80200  0.42900  0.81500  1.0000
  H   H14       1.0  0.34700  0.62600  0.85100  1.0000
  H   H15       1.0  0.37600  0.34700  0.87400  1.0000
  H   H16       1.0  0.92600  0.69300  0.93500  1.0000
  O   O1        1.0  0.52400  0.74300  0.02710  1.0000
  O   O2        1.0  0.05180  0.74100  0.05800  1.0000
  O   O3        1.0  0.24600  0.44700  0.23400  1.0000
  O   O4        1.0  0.74200  0.47400  0.24200  1.0000
  O   O5        1.0  0.25800  0.97400  0.25800  1.0000
  O   O6        1.0  0.75400  0.94700  0.26600  1.0000
  O   O7        1.0  0.94800  0.24100  0.44200  1.0000
  O   O8        1.0  0.47600  0.24300  0.47300  1.0000
  O   O9        1.0  0.52400  0.75700  0.52700  1.0000
  O   O10       1.0  0.05180  0.75900  0.55800  1.0000
  O   O11       1.0  0.24600  0.05320  0.73400  1.0000
  O   O12       1.0  0.74200  0.02560  0.74200  1.0000
  O   O13       1.0  0.25800  0.52600  0.75800  1.0000
  O   O14       1.0  0.75400  0.55300  0.76600  1.0000
  O   O15       1.0  0.94800  0.25900  0.94200  1.0000
  O   O16       1.0  0.47600  0.25700  0.97300  1.0000
