data_image0
_chemical_formula_structural       Mo4O28P8
_chemical_formula_sum              "Mo4 O28 P8"
_cell_length_a       8.24137
_cell_length_b       8.24137
_cell_length_c       8.24137
_cell_angle_alpha    90
_cell_angle_beta     90
_cell_angle_gamma    90

_space_group_name_H-M_alt    "P 1"
_space_group_IT_number       1

loop_
  _space_group_symop_operation_xyz
  'x, y, z'

loop_
  _atom_site_type_symbol
  _atom_site_label
  _atom_site_symmetry_multiplicity
  _atom_site_fract_x
  _atom_site_fract_y
  _atom_site_fract_z
  _atom_site_occupancy
  Mo  Mo1       1.0  0.00000  0.00000  0.00000  1.0000
  Mo  Mo2       1.0  0.50000  0.50000  0.00000  1.0000
  Mo  Mo3       1.0  0.50000  0.00000  0.50000  1.0000
  Mo  Mo4       1.0  0.00000  0.50000  0.50000  1.0000
  O   O1        1.0  0.50000  0.00000  0.00000  1.0000
  O   O2        1.0  0.00000  0.50000  0.00000  1.0000
  O   O3        1.0  0.71600  0.41100  0.05680  1.0000
  O   O4        1.0  0.78400  0.91100  0.05680  1.0000
  O   O5        1.0  0.94300  0.21600  0.08900  1.0000
  O   O6        1.0  0.55700  0.71600  0.08900  1.0000
  O   O7        1.0  0.41100  0.44300  0.21600  1.0000
  O   O8        1.0  0.08900  0.94300  0.21600  1.0000
  O   O9        1.0  0.91100  0.44300  0.28400  1.0000
  O   O10       1.0  0.58900  0.94300  0.28400  1.0000
  O   O11       1.0  0.44300  0.21600  0.41100  1.0000
  O   O12       1.0  0.05680  0.71600  0.41100  1.0000
  O   O13       1.0  0.21600  0.41100  0.44300  1.0000
  O   O14       1.0  0.28400  0.91100  0.44300  1.0000
  O   O15       1.0  0.00000  0.00000  0.50000  1.0000
  O   O16       1.0  0.50000  0.50000  0.50000  1.0000
  O   O17       1.0  0.71600  0.08900  0.55700  1.0000
  O   O18       1.0  0.78400  0.58900  0.55700  1.0000
  O   O19       1.0  0.94300  0.28400  0.58900  1.0000
  O   O20       1.0  0.55700  0.78400  0.58900  1.0000
  O   O21       1.0  0.41100  0.05680  0.71600  1.0000
  O   O22       1.0  0.08900  0.55700  0.71600  1.0000
  O   O23       1.0  0.91100  0.05680  0.78400  1.0000
  O   O24       1.0  0.58900  0.55700  0.78400  1.0000
  O   O25       1.0  0.44300  0.28400  0.91100  1.0000
  O   O26       1.0  0.05680  0.78400  0.91100  1.0000
  O   O27       1.0  0.21600  0.08900  0.94300  1.0000
  O   O28       1.0  0.28400  0.58900  0.94300  1.0000
  P   P1        1.0  0.88900  0.38900  0.11100  1.0000
  P   P2        1.0  0.61100  0.88900  0.11100  1.0000
  P   P3        1.0  0.38900  0.38900  0.38900  1.0000
  P   P4        1.0  0.11100  0.88900  0.38900  1.0000
  P   P5        1.0  0.88900  0.11100  0.61100  1.0000
  P   P6        1.0  0.61100  0.61100  0.61100  1.0000
  P   P7        1.0  0.38900  0.11100  0.88900  1.0000
  P   P8        1.0  0.11100  0.61100  0.88900  1.0000
