data_image0
_chemical_formula_structural       As4H8Li4O20Zn4
_chemical_formula_sum              "As4 H8 Li4 O20 Zn4"
_cell_length_a       10.905
_cell_length_b       8.18691
_cell_length_c       5.07375
_cell_angle_alpha    90
_cell_angle_beta     90
_cell_angle_gamma    90

_space_group_name_H-M_alt    "P 1"
_space_group_IT_number       1

loop_
  _space_group_symop_operation_xyz
  'x, y, z'

loop_
  _atom_site_type_symbol
  _atom_site_label
  _atom_site_symmetry_multiplicity
  _atom_site_fract_x
  _atom_site_fract_y
  _atom_site_fract_z
  _atom_site_occupancy
  As  As1       1.0  0.17000  0.08260  0.25900  1.0000
  As  As2       1.0  0.67000  0.41700  0.25900  1.0000
  As  As3       1.0  0.33000  0.58300  0.75900  1.0000
  As  As4       1.0  0.83000  0.91700  0.75900  1.0000
  H   H1        1.0  0.97800  0.53700  0.08990  1.0000
  H   H2        1.0  0.47800  0.96300  0.08990  1.0000
  H   H3        1.0  0.95700  0.66800  0.32200  1.0000
  H   H4        1.0  0.45700  0.83200  0.32200  1.0000
  H   H5        1.0  0.52200  0.03650  0.59000  1.0000
  H   H6        1.0  0.02180  0.46300  0.59000  1.0000
  H   H7        1.0  0.54300  0.16800  0.82200  1.0000
  H   H8        1.0  0.04320  0.33200  0.82200  1.0000
  Li  Li1       1.0  0.17700  0.66700  0.26200  1.0000
  Li  Li2       1.0  0.67700  0.83300  0.26200  1.0000
  Li  Li3       1.0  0.32300  0.16700  0.76200  1.0000
  Li  Li4       1.0  0.82300  0.33300  0.76200  1.0000
  O   O1        1.0  0.31900  0.57000  0.09600  1.0000
  O   O2        1.0  0.81900  0.93000  0.09600  1.0000
  O   O3        1.0  0.29900  0.17200  0.13400  1.0000
  O   O4        1.0  0.79900  0.32800  0.13400  1.0000
  O   O5        1.0  0.66200  0.61300  0.13500  1.0000
  O   O6        1.0  0.16200  0.88700  0.13500  1.0000
  O   O7        1.0  0.04640  0.19200  0.15300  1.0000
  O   O8        1.0  0.54600  0.30800  0.15300  1.0000
  O   O9        1.0  0.01100  0.58100  0.25600  1.0000
  O   O10       1.0  0.51100  0.91900  0.25600  1.0000
  O   O11       1.0  0.18100  0.07030  0.59600  1.0000
  O   O12       1.0  0.68100  0.43000  0.59600  1.0000
  O   O13       1.0  0.20100  0.67200  0.63400  1.0000
  O   O14       1.0  0.70100  0.82800  0.63400  1.0000
  O   O15       1.0  0.83800  0.11300  0.63500  1.0000
  O   O16       1.0  0.33800  0.38700  0.63500  1.0000
  O   O17       1.0  0.45400  0.69200  0.65300  1.0000
  O   O18       1.0  0.95400  0.80800  0.65300  1.0000
  O   O19       1.0  0.48900  0.08090  0.75600  1.0000
  O   O20       1.0  0.98900  0.41900  0.75600  1.0000
  Zn  Zn1       1.0  0.88200  0.13200  0.26300  1.0000
  Zn  Zn2       1.0  0.38200  0.36800  0.26300  1.0000
  Zn  Zn3       1.0  0.61800  0.63200  0.76300  1.0000
  Zn  Zn4       1.0  0.11800  0.86800  0.76300  1.0000
