data_image0
_chemical_formula_structural       O8Ru2
_chemical_formula_sum              "O8 Ru2"
_cell_length_a       4.21653
_cell_length_b       4.93555
_cell_length_c       7.59199
_cell_angle_alpha    91.3643
_cell_angle_beta     106.123
_cell_angle_gamma    64.7126

_space_group_name_H-M_alt    "P 1"
_space_group_IT_number       1

loop_
  _space_group_symop_operation_xyz
  'x, y, z'

loop_
  _atom_site_type_symbol
  _atom_site_label
  _atom_site_symmetry_multiplicity
  _atom_site_fract_x
  _atom_site_fract_y
  _atom_site_fract_z
  _atom_site_occupancy
  O   O1        1.0  0.19600  0.68500  0.06620  1.0000
  O   O2        1.0  0.54200  0.05950  0.19000  1.0000
  O   O3        1.0  0.91200  0.44000  0.31000  1.0000
  O   O4        1.0  0.31500  0.81500  0.43400  1.0000
  O   O5        1.0  0.68500  0.18500  0.56600  1.0000
  O   O6        1.0  0.08830  0.56000  0.69000  1.0000
  O   O7        1.0  0.45800  0.94000  0.81000  1.0000
  O   O8        1.0  0.80400  0.31500  0.93400  1.0000
  Ru  Ru1       1.0  0.49100  0.75000  0.25000  1.0000
  Ru  Ru2       1.0  0.50900  0.25000  0.75000  1.0000
