data_image0
_chemical_formula_structural       BC2Sc2
_chemical_formula_sum              "B1 C2 Sc2"
_cell_length_a       3.32955
_cell_length_b       3.32955
_cell_length_c       5.84373
_cell_angle_alpha    106.552
_cell_angle_beta     106.552
_cell_angle_gamma    90

_space_group_name_H-M_alt    "P 1"
_space_group_IT_number       1

loop_
  _space_group_symop_operation_xyz
  'x, y, z'

loop_
  _atom_site_type_symbol
  _atom_site_label
  _atom_site_symmetry_multiplicity
  _atom_site_fract_x
  _atom_site_fract_y
  _atom_site_fract_z
  _atom_site_occupancy
  B   B1        1.0  0.00000  0.00000  0.00000  1.0000
  C   C1        1.0  0.13900  0.13900  0.27700  1.0000
  C   C2        1.0  0.86100  0.86100  0.72300  1.0000
  Sc  Sc1       1.0  0.65200  0.65200  0.30500  1.0000
  Sc  Sc2       1.0  0.34800  0.34800  0.69500  1.0000
