data_image0
_chemical_formula_structural       Cu4H8K4O20P4
_chemical_formula_sum              "Cu4 H8 K4 O20 P4"
_cell_length_a       10.321
_cell_length_b       6.76178
_cell_length_c       6.62021
_cell_angle_alpha    90
_cell_angle_beta     92.9994
_cell_angle_gamma    90

_space_group_name_H-M_alt    "P 1"
_space_group_IT_number       1

loop_
  _space_group_symop_operation_xyz
  'x, y, z'

loop_
  _atom_site_type_symbol
  _atom_site_label
  _atom_site_symmetry_multiplicity
  _atom_site_fract_x
  _atom_site_fract_y
  _atom_site_fract_z
  _atom_site_occupancy
  Cu  Cu1       1.0  0.99100  0.20000  0.21600  1.0000
  Cu  Cu2       1.0  0.00859  0.70000  0.28400  1.0000
  Cu  Cu3       1.0  0.99100  0.30000  0.71600  1.0000
  Cu  Cu4       1.0  0.00859  0.80000  0.78400  1.0000
  H   H1        1.0  0.41800  0.37600  0.15500  1.0000
  H   H2        1.0  0.59500  0.71300  0.17300  1.0000
  H   H3        1.0  0.40500  0.21300  0.32700  1.0000
  H   H4        1.0  0.58200  0.87600  0.34500  1.0000
  H   H5        1.0  0.41800  0.12400  0.65500  1.0000
  H   H6        1.0  0.59500  0.78700  0.67300  1.0000
  H   H7        1.0  0.40500  0.28700  0.82700  1.0000
  H   H8        1.0  0.58200  0.62400  0.84500  1.0000
  K   K1        1.0  0.32100  0.92600  0.03060  1.0000
  K   K2        1.0  0.67900  0.42600  0.46900  1.0000
  K   K3        1.0  0.32100  0.57400  0.53100  1.0000
  K   K4        1.0  0.67900  0.07390  0.96900  1.0000
  O   O1        1.0  0.13600  0.25300  0.05080  1.0000
  O   O2        1.0  0.68000  0.53300  0.06200  1.0000
  O   O3        1.0  0.17000  0.61500  0.17800  1.0000
  O   O4        1.0  0.91700  0.46300  0.18100  1.0000
  O   O5        1.0  0.53900  0.82100  0.22000  1.0000
  O   O6        1.0  0.46100  0.32100  0.28000  1.0000
  O   O7        1.0  0.08260  0.96300  0.31900  1.0000
  O   O8        1.0  0.83000  0.11500  0.32200  1.0000
  O   O9        1.0  0.32000  0.03260  0.43800  1.0000
  O   O10       1.0  0.86400  0.75300  0.44900  1.0000
  O   O11       1.0  0.13600  0.24700  0.55100  1.0000
  O   O12       1.0  0.68000  0.96700  0.56200  1.0000
  O   O13       1.0  0.17000  0.88500  0.67800  1.0000
  O   O14       1.0  0.91700  0.03660  0.68100  1.0000
  O   O15       1.0  0.53900  0.67900  0.72000  1.0000
  O   O16       1.0  0.46100  0.17900  0.78000  1.0000
  O   O17       1.0  0.08260  0.53700  0.81900  1.0000
  O   O18       1.0  0.83000  0.38500  0.82200  1.0000
  O   O19       1.0  0.32000  0.46700  0.93800  1.0000
  O   O20       1.0  0.86400  0.74700  0.94900  1.0000
  P   P1        1.0  0.18000  0.46600  0.00094  1.0000
  P   P2        1.0  0.82000  0.96600  0.49900  1.0000
  P   P3        1.0  0.18000  0.03390  0.50100  1.0000
  P   P4        1.0  0.82000  0.53400  0.99900  1.0000
