data_image0
_chemical_formula_structural       Li2O12Sc2Si4
_chemical_formula_sum              "Li2 O12 Sc2 Si4"
_cell_length_a       5.35349
_cell_length_b       6.62048
_cell_length_c       6.62048
_cell_angle_alpha    95.3803
_cell_angle_beta     104.835
_cell_angle_gamma    75.165

_space_group_name_H-M_alt    "P 1"
_space_group_IT_number       1

loop_
  _space_group_symop_operation_xyz
  'x, y, z'

loop_
  _atom_site_type_symbol
  _atom_site_label
  _atom_site_symmetry_multiplicity
  _atom_site_fract_x
  _atom_site_fract_y
  _atom_site_fract_z
  _atom_site_occupancy
  Li  Li1       1.0  0.25000  0.25400  0.25400  1.0000
  Li  Li2       1.0  0.75000  0.74600  0.74600  1.0000
  O   O1        1.0  0.65900  0.79300  0.03400  1.0000
  O   O2        1.0  0.84700  0.37800  0.11700  1.0000
  O   O3        1.0  0.15900  0.96600  0.20700  1.0000
  O   O4        1.0  0.55900  0.63700  0.35000  1.0000
  O   O5        1.0  0.05910  0.65000  0.36300  1.0000
  O   O6        1.0  0.65300  0.11700  0.37800  1.0000
  O   O7        1.0  0.34700  0.88300  0.62200  1.0000
  O   O8        1.0  0.94100  0.35000  0.63700  1.0000
  O   O9        1.0  0.44100  0.36300  0.65000  1.0000
  O   O10       1.0  0.84100  0.03400  0.79300  1.0000
  O   O11       1.0  0.15300  0.62200  0.88300  1.0000
  O   O12       1.0  0.34100  0.20700  0.96600  1.0000
  Sc  Sc1       1.0  0.75000  0.10400  0.10400  1.0000
  Sc  Sc2       1.0  0.25000  0.89600  0.89600  1.0000
  Si  Si1       1.0  0.77900  0.61300  0.21100  1.0000
  Si  Si2       1.0  0.27900  0.78900  0.38700  1.0000
  Si  Si3       1.0  0.72100  0.21100  0.61300  1.0000
  Si  Si4       1.0  0.22100  0.38700  0.78900  1.0000
