data_image0
_chemical_formula_structural       BrNSr2
_chemical_formula_sum              "Br1 N1 Sr2"
_cell_length_a       3.93816
_cell_length_b       3.93816
_cell_length_c       7.6881
_cell_angle_alpha    90
_cell_angle_beta     104.84
_cell_angle_gamma    60

_space_group_name_H-M_alt    "P 1"
_space_group_IT_number       1

loop_
  _space_group_symop_operation_xyz
  'x, y, z'

loop_
  _atom_site_type_symbol
  _atom_site_label
  _atom_site_symmetry_multiplicity
  _atom_site_fract_x
  _atom_site_fract_y
  _atom_site_fract_z
  _atom_site_occupancy
  Br  Br1       1.0  0.00000  0.00000  0.00000  1.0000
  N   N1        1.0  0.00000  0.50000  0.50000  1.0000
  Sr  Sr1       1.0  0.54600  0.22700  0.31800  1.0000
  Sr  Sr2       1.0  0.45400  0.77300  0.68200  1.0000
