data_image0
_chemical_formula_structural       Al6Ba20Ge14
_chemical_formula_sum              "Al6 Ba20 Ge14"
_cell_length_a       9.85615
_cell_length_b       9.85615
_cell_length_c       16.58
_cell_angle_alpha    90
_cell_angle_beta     90
_cell_angle_gamma    120

_space_group_name_H-M_alt    "P 1"
_space_group_IT_number       1

loop_
  _space_group_symop_operation_xyz
  'x, y, z'

loop_
  _atom_site_type_symbol
  _atom_site_label
  _atom_site_symmetry_multiplicity
  _atom_site_fract_x
  _atom_site_fract_y
  _atom_site_fract_z
  _atom_site_occupancy
  Al  Al1       1.0  0.73000  0.00000  0.25000  1.0000
  Al  Al2       1.0  0.27000  0.27000  0.25000  1.0000
  Al  Al3       1.0  1.00000  0.73000  0.25000  1.0000
  Al  Al4       1.0  0.27000  0.00000  0.75000  1.0000
  Al  Al5       1.0  0.00000  0.27000  0.75000  1.0000
  Al  Al6       1.0  0.73000  0.73000  0.75000  1.0000
  Ba  Ba1       1.0  0.66700  0.33300  0.00000  1.0000
  Ba  Ba2       1.0  0.33300  0.66700  0.00000  1.0000
  Ba  Ba3       1.0  0.73900  0.73900  0.10300  1.0000
  Ba  Ba4       1.0  0.26100  0.00000  0.10300  1.0000
  Ba  Ba5       1.0  0.00000  0.26100  0.10300  1.0000
  Ba  Ba6       1.0  0.66700  0.33300  0.25000  1.0000
  Ba  Ba7       1.0  0.33300  0.66700  0.25000  1.0000
  Ba  Ba8       1.0  0.73900  0.73900  0.39700  1.0000
  Ba  Ba9       1.0  0.26100  0.00000  0.39700  1.0000
  Ba  Ba10      1.0  0.00000  0.26100  0.39700  1.0000
  Ba  Ba11      1.0  0.66700  0.33300  0.50000  1.0000
  Ba  Ba12      1.0  0.33300  0.66700  0.50000  1.0000
  Ba  Ba13      1.0  0.26100  0.26100  0.60300  1.0000
  Ba  Ba14      1.0  0.73900  0.00000  0.60300  1.0000
  Ba  Ba15      1.0  0.00000  0.73900  0.60300  1.0000
  Ba  Ba16      1.0  0.66700  0.33300  0.75000  1.0000
  Ba  Ba17      1.0  0.33300  0.66700  0.75000  1.0000
  Ba  Ba18      1.0  0.26100  0.26100  0.89700  1.0000
  Ba  Ba19      1.0  0.73900  0.00000  0.89700  1.0000
  Ba  Ba20      1.0  0.00000  0.73900  0.89700  1.0000
  Ge  Ge1       1.0  0.60500  0.00000  0.11700  1.0000
  Ge  Ge2       1.0  0.00000  0.60500  0.11700  1.0000
  Ge  Ge3       1.0  0.39500  0.39500  0.11700  1.0000
  Ge  Ge4       1.0  0.00000  0.00000  0.25000  1.0000
  Ge  Ge5       1.0  0.39500  0.39500  0.38300  1.0000
  Ge  Ge6       1.0  0.60500  0.00000  0.38300  1.0000
  Ge  Ge7       1.0  0.00000  0.60500  0.38300  1.0000
  Ge  Ge8       1.0  0.39500  0.00000  0.61700  1.0000
  Ge  Ge9       1.0  0.00000  0.39500  0.61700  1.0000
  Ge  Ge10      1.0  0.60500  0.60500  0.61700  1.0000
  Ge  Ge11      1.0  0.00000  0.00000  0.75000  1.0000
  Ge  Ge12      1.0  0.60500  0.60500  0.88300  1.0000
  Ge  Ge13      1.0  0.39500  0.00000  0.88300  1.0000
  Ge  Ge14      1.0  0.00000  0.39500  0.88300  1.0000
