data_image0
_chemical_formula_structural       Cu12O24Te4
_chemical_formula_sum              "Cu12 O24 Te4"
_cell_length_a       8.25741
_cell_length_b       8.25741
_cell_length_c       8.25741
_cell_angle_alpha    109.471
_cell_angle_beta     109.471
_cell_angle_gamma    109.471

_space_group_name_H-M_alt    "P 1"
_space_group_IT_number       1

loop_
  _space_group_symop_operation_xyz
  'x, y, z'

loop_
  _atom_site_type_symbol
  _atom_site_label
  _atom_site_symmetry_multiplicity
  _atom_site_fract_x
  _atom_site_fract_y
  _atom_site_fract_z
  _atom_site_occupancy
  Cu  Cu1       1.0  0.75000  0.77900  0.02880  1.0000
  Cu  Cu2       1.0  0.97100  0.25000  0.22100  1.0000
  Cu  Cu3       1.0  0.72100  0.47100  0.25000  1.0000
  Cu  Cu4       1.0  0.22100  0.97100  0.25000  1.0000
  Cu  Cu5       1.0  0.52900  0.75000  0.27900  1.0000
  Cu  Cu6       1.0  0.25000  0.72100  0.47100  1.0000
  Cu  Cu7       1.0  0.75000  0.27900  0.52900  1.0000
  Cu  Cu8       1.0  0.47100  0.25000  0.72100  1.0000
  Cu  Cu9       1.0  0.77900  0.02880  0.75000  1.0000
  Cu  Cu10      1.0  0.27900  0.52900  0.75000  1.0000
  Cu  Cu11      1.0  0.02880  0.75000  0.77900  1.0000
  Cu  Cu12      1.0  0.25000  0.22100  0.97100  1.0000
  O   O1        1.0  0.95900  0.72800  0.03070  1.0000
  O   O2        1.0  0.27200  0.96900  0.04050  1.0000
  O   O3        1.0  0.53100  0.80200  0.07130  1.0000
  O   O4        1.0  0.92900  0.46900  0.19800  1.0000
  O   O5        1.0  0.26900  0.69800  0.22800  1.0000
  O   O6        1.0  0.45900  0.42900  0.23100  1.0000
  O   O7        1.0  0.69800  0.22800  0.26900  1.0000
  O   O8        1.0  0.96900  0.04050  0.27200  1.0000
  O   O9        1.0  0.77200  0.73100  0.30200  1.0000
  O   O10       1.0  0.23100  0.45900  0.42900  1.0000
  O   O11       1.0  0.42900  0.23100  0.45900  1.0000
  O   O12       1.0  0.19800  0.92900  0.46900  1.0000
  O   O13       1.0  0.80200  0.07130  0.53100  1.0000
  O   O14       1.0  0.57100  0.76900  0.54100  1.0000
  O   O15       1.0  0.76900  0.54100  0.57100  1.0000
  O   O16       1.0  0.22800  0.26900  0.69800  1.0000
  O   O17       1.0  0.03070  0.95900  0.72800  1.0000
  O   O18       1.0  0.30200  0.77200  0.73100  1.0000
  O   O19       1.0  0.54100  0.57100  0.76900  1.0000
  O   O20       1.0  0.73100  0.30200  0.77200  1.0000
  O   O21       1.0  0.07130  0.53100  0.80200  1.0000
  O   O22       1.0  0.46900  0.19800  0.92900  1.0000
  O   O23       1.0  0.72800  0.03070  0.95900  1.0000
  O   O24       1.0  0.04050  0.27200  0.96900  1.0000
  Te  Te1       1.0  0.50000  0.00000  0.00000  1.0000
  Te  Te2       1.0  0.00000  0.50000  0.00000  1.0000
  Te  Te3       1.0  0.00000  0.00000  0.50000  1.0000
  Te  Te4       1.0  0.50000  0.50000  0.50000  1.0000
