data_image0
_chemical_formula_structural       BePu3
_chemical_formula_sum              "Be1 Pu3"
_cell_length_a       4.76662
_cell_length_b       4.76662
_cell_length_c       4.76662
_cell_angle_alpha    126.073
_cell_angle_beta     126.073
_cell_angle_gamma    79.7678

_space_group_name_H-M_alt    "P 1"
_space_group_IT_number       1

loop_
  _space_group_symop_operation_xyz
  'x, y, z'

loop_
  _atom_site_type_symbol
  _atom_site_label
  _atom_site_symmetry_multiplicity
  _atom_site_fract_x
  _atom_site_fract_y
  _atom_site_fract_z
  _atom_site_occupancy
  Be  Be1       1.0  0.00000  0.00000  0.00000  1.0000
  Pu  Pu1       1.0  0.50000  0.50000  0.00000  1.0000
  Pu  Pu2       1.0  0.25000  0.75000  0.50000  1.0000
  Pu  Pu3       1.0  0.75000  0.25000  0.50000  1.0000
