data_image0
_chemical_formula_structural       Mo4O28Te8
_chemical_formula_sum              "Mo4 O28 Te8"
_cell_length_a       4.20235
_cell_length_b       8.55161
_cell_length_c       15.8199
_cell_angle_alpha    90
_cell_angle_beta     95.0577
_cell_angle_gamma    90

_space_group_name_H-M_alt    "P 1"
_space_group_IT_number       1

loop_
  _space_group_symop_operation_xyz
  'x, y, z'

loop_
  _atom_site_type_symbol
  _atom_site_label
  _atom_site_symmetry_multiplicity
  _atom_site_fract_x
  _atom_site_fract_y
  _atom_site_fract_z
  _atom_site_occupancy
  Mo  Mo1       1.0  0.11800  0.86200  0.06960  1.0000
  Mo  Mo2       1.0  0.88200  0.36200  0.43000  1.0000
  Mo  Mo3       1.0  0.11800  0.63800  0.57000  1.0000
  Mo  Mo4       1.0  0.88200  0.13800  0.93000  1.0000
  O   O1        1.0  0.02520  0.10800  0.05060  1.0000
  O   O2        1.0  0.02440  0.66200  0.06310  1.0000
  O   O3        1.0  0.53100  0.87000  0.06950  1.0000
  O   O4        1.0  0.90200  0.36100  0.14100  1.0000
  O   O5        1.0  0.42200  0.48900  0.18600  1.0000
  O   O6        1.0  0.05430  0.89400  0.18800  1.0000
  O   O7        1.0  0.43500  0.16000  0.19200  1.0000
  O   O8        1.0  0.56500  0.66000  0.30800  1.0000
  O   O9        1.0  0.94600  0.39400  0.31200  1.0000
  O   O10       1.0  0.57800  0.98900  0.31400  1.0000
  O   O11       1.0  0.09820  0.86100  0.35900  1.0000
  O   O12       1.0  0.46900  0.37000  0.43000  1.0000
  O   O13       1.0  0.97600  0.16200  0.43700  1.0000
  O   O14       1.0  0.97500  0.60800  0.44900  1.0000
  O   O15       1.0  0.02520  0.39200  0.55100  1.0000
  O   O16       1.0  0.02440  0.83800  0.56300  1.0000
  O   O17       1.0  0.53100  0.63000  0.57000  1.0000
  O   O18       1.0  0.90200  0.13900  0.64100  1.0000
  O   O19       1.0  0.42200  0.01140  0.68600  1.0000
  O   O20       1.0  0.05430  0.60600  0.68800  1.0000
  O   O21       1.0  0.43500  0.34000  0.69200  1.0000
  O   O22       1.0  0.56500  0.84000  0.80800  1.0000
  O   O23       1.0  0.94600  0.10600  0.81200  1.0000
  O   O24       1.0  0.57800  0.51100  0.81400  1.0000
  O   O25       1.0  0.09820  0.63900  0.85900  1.0000
  O   O26       1.0  0.46900  0.13000  0.93000  1.0000
  O   O27       1.0  0.97600  0.33800  0.93700  1.0000
  O   O28       1.0  0.97500  0.89200  0.94900  1.0000
  Te  Te1       1.0  0.31900  0.30600  0.10500  1.0000
  Te  Te2       1.0  0.85500  0.54900  0.22500  1.0000
  Te  Te3       1.0  0.14500  0.04900  0.27500  1.0000
  Te  Te4       1.0  0.68100  0.80600  0.39500  1.0000
  Te  Te5       1.0  0.31900  0.19400  0.60500  1.0000
  Te  Te6       1.0  0.85500  0.95100  0.72500  1.0000
  Te  Te7       1.0  0.14500  0.45100  0.77500  1.0000
  Te  Te8       1.0  0.68100  0.69400  0.89500  1.0000
