data_image0
_chemical_formula_structural       Fe6Na2O24V6
_chemical_formula_sum              "Fe6 Na2 O24 V6"
_cell_length_a       6.79732
_cell_length_b       8.14401
_cell_length_c       9.8199
_cell_angle_alpha    106.151
_cell_angle_beta     104.586
_cell_angle_gamma    102.001

_space_group_name_H-M_alt    "P 1"
_space_group_IT_number       1

loop_
  _space_group_symop_operation_xyz
  'x, y, z'

loop_
  _atom_site_type_symbol
  _atom_site_label
  _atom_site_symmetry_multiplicity
  _atom_site_fract_x
  _atom_site_fract_y
  _atom_site_fract_z
  _atom_site_occupancy
  Fe  Fe1       1.0  0.55000  0.70800  0.01810  1.0000
  Fe  Fe2       1.0  0.23000  0.22900  0.20800  1.0000
  Fe  Fe3       1.0  0.12300  0.55400  0.39400  1.0000
  Fe  Fe4       1.0  0.88200  0.44700  0.60500  1.0000
  Fe  Fe5       1.0  0.77400  0.77000  0.79300  1.0000
  Fe  Fe6       1.0  0.46000  0.29200  0.98500  1.0000
  Na  Na1       1.0  0.45500  0.98400  0.45800  1.0000
  Na  Na2       1.0  0.98300  0.02220  0.55200  1.0000
  O   O1        1.0  0.16100  0.26700  0.01740  1.0000
  O   O2        1.0  0.27100  0.73200  0.03900  1.0000
  O   O3        1.0  0.58100  0.54600  0.14100  1.0000
  O   O4        1.0  0.50800  0.21800  0.16500  1.0000
  O   O5        1.0  0.69600  0.95000  0.18700  1.0000
  O   O6        1.0  0.07320  0.67000  0.24100  1.0000
  O   O7        1.0  0.20700  0.01480  0.24600  1.0000
  O   O8        1.0  0.98000  0.27600  0.25600  1.0000
  O   O9        1.0  0.37800  0.46900  0.35300  1.0000
  O   O10       1.0  0.82400  0.51700  0.42200  1.0000
  O   O11       1.0  0.66400  0.80200  0.42500  1.0000
  O   O12       1.0  0.75100  0.19600  0.45400  1.0000
  O   O13       1.0  0.24900  0.81300  0.55700  1.0000
  O   O14       1.0  0.32500  0.19000  0.57800  1.0000
  O   O15       1.0  0.16900  0.47200  0.58500  1.0000
  O   O16       1.0  0.63500  0.51800  0.65400  1.0000
  O   O17       1.0  0.01790  0.71500  0.73700  1.0000
  O   O18       1.0  0.93900  0.33800  0.75800  1.0000
  O   O19       1.0  0.82500  0.99600  0.76400  1.0000
  O   O20       1.0  0.49600  0.77700  0.82300  1.0000
  O   O21       1.0  0.30600  0.05610  0.82700  1.0000
  O   O22       1.0  0.41500  0.43600  0.85600  1.0000
  O   O23       1.0  0.72900  0.27100  0.95900  1.0000
  O   O24       1.0  0.85100  0.75100  0.98500  1.0000
  V   V1        1.0  0.09900  0.78700  0.12600  1.0000
  V   V2        1.0  0.73500  0.16700  0.26700  1.0000
  V   V3        1.0  0.61300  0.58600  0.33300  1.0000
  V   V4        1.0  0.38600  0.40600  0.66800  1.0000
  V   V5        1.0  0.27100  0.83600  0.73800  1.0000
  V   V6        1.0  0.91000  0.22200  0.87600  1.0000
