data_image0
_chemical_formula_structural       In4S24Sm12
_chemical_formula_sum              "In4 S24 Sm12"
_cell_length_a       16.6834
_cell_length_b       13.7104
_cell_length_c       3.92646
_cell_angle_alpha    90
_cell_angle_beta     90
_cell_angle_gamma    90

_space_group_name_H-M_alt    "P 1"
_space_group_IT_number       1

loop_
  _space_group_symop_operation_xyz
  'x, y, z'

loop_
  _atom_site_type_symbol
  _atom_site_label
  _atom_site_symmetry_multiplicity
  _atom_site_fract_x
  _atom_site_fract_y
  _atom_site_fract_z
  _atom_site_occupancy
  In  In1       1.0  0.00000  0.50000  0.00000  1.0000
  In  In2       1.0  0.50000  0.50000  0.00000  1.0000
  In  In3       1.0  0.00000  0.00000  0.50000  1.0000
  In  In4       1.0  0.50000  0.00000  0.50000  1.0000
  S   S1        1.0  0.89600  0.02150  0.00000  1.0000
  S   S2        1.0  0.41500  0.09490  0.00000  1.0000
  S   S3        1.0  0.52000  0.30900  0.00000  1.0000
  S   S4        1.0  0.28600  0.31800  0.00000  1.0000
  S   S5        1.0  0.11600  0.38800  0.00000  1.0000
  S   S6        1.0  0.74700  0.38900  0.00000  1.0000
  S   S7        1.0  0.25300  0.61100  0.00000  1.0000
  S   S8        1.0  0.88400  0.61200  0.00000  1.0000
  S   S9        1.0  0.71400  0.68200  0.00000  1.0000
  S   S10       1.0  0.48000  0.69100  0.00000  1.0000
  S   S11       1.0  0.58500  0.90500  0.00000  1.0000
  S   S12       1.0  0.10400  0.97800  0.00000  1.0000
  S   S13       1.0  0.24700  0.11100  0.50000  1.0000
  S   S14       1.0  0.61600  0.11200  0.50000  1.0000
  S   S15       1.0  0.78600  0.18200  0.50000  1.0000
  S   S16       1.0  0.01990  0.19100  0.50000  1.0000
  S   S17       1.0  0.91500  0.40500  0.50000  1.0000
  S   S18       1.0  0.39600  0.47800  0.50000  1.0000
  S   S19       1.0  0.60400  0.52200  0.50000  1.0000
  S   S20       1.0  0.08520  0.59500  0.50000  1.0000
  S   S21       1.0  0.98000  0.80900  0.50000  1.0000
  S   S22       1.0  0.21400  0.81800  0.50000  1.0000
  S   S23       1.0  0.38400  0.88800  0.50000  1.0000
  S   S24       1.0  0.75300  0.88900  0.50000  1.0000
  Sm  Sm1       1.0  0.72300  0.04080  0.00000  1.0000
  Sm  Sm2       1.0  0.14600  0.18800  0.00000  1.0000
  Sm  Sm3       1.0  0.89400  0.25200  0.00000  1.0000
  Sm  Sm4       1.0  0.10600  0.74800  0.00000  1.0000
  Sm  Sm5       1.0  0.85400  0.81200  0.00000  1.0000
  Sm  Sm6       1.0  0.27700  0.95900  0.00000  1.0000
  Sm  Sm7       1.0  0.39400  0.24800  0.50000  1.0000
  Sm  Sm8       1.0  0.64600  0.31200  0.50000  1.0000
  Sm  Sm9       1.0  0.22300  0.45900  0.50000  1.0000
  Sm  Sm10      1.0  0.77700  0.54100  0.50000  1.0000
  Sm  Sm11      1.0  0.35400  0.68800  0.50000  1.0000
  Sm  Sm12      1.0  0.60600  0.75200  0.50000  1.0000
