data_image0
_chemical_formula_structural       Al2Ga2Nd
_chemical_formula_sum              "Al2 Ga2 Nd1"
_cell_length_a       4.22236
_cell_length_b       4.22236
_cell_length_c       6.34073
_cell_angle_alpha    109.448
_cell_angle_beta     109.448
_cell_angle_gamma    90

_space_group_name_H-M_alt    "P 1"
_space_group_IT_number       1

loop_
  _space_group_symop_operation_xyz
  'x, y, z'

loop_
  _atom_site_type_symbol
  _atom_site_label
  _atom_site_symmetry_multiplicity
  _atom_site_fract_x
  _atom_site_fract_y
  _atom_site_fract_z
  _atom_site_occupancy
  Al  Al1       1.0  0.75000  0.25000  0.50000  1.0000
  Al  Al2       1.0  0.25000  0.75000  0.50000  1.0000
  Ga  Ga1       1.0  0.61200  0.61200  0.22500  1.0000
  Ga  Ga2       1.0  0.38800  0.38800  0.77500  1.0000
  Nd  Nd1       1.0  0.00000  0.00000  0.00000  1.0000
