data_image0
_chemical_formula_structural       Mn2P8
_chemical_formula_sum              "Mn2 P8"
_cell_length_a       5.85603
_cell_length_b       5.09951
_cell_length_c       5.8178
_cell_angle_alpha    93.7628
_cell_angle_beta     107.38
_cell_angle_gamma    115.882

_space_group_name_H-M_alt    "P 1"
_space_group_IT_number       1

loop_
  _space_group_symop_operation_xyz
  'x, y, z'

loop_
  _atom_site_type_symbol
  _atom_site_label
  _atom_site_symmetry_multiplicity
  _atom_site_fract_x
  _atom_site_fract_y
  _atom_site_fract_z
  _atom_site_occupancy
  Mn  Mn1       1.0  0.78400  0.78700  0.27600  1.0000
  Mn  Mn2       1.0  0.21600  0.21300  0.72400  1.0000
  P   P1        1.0  0.42200  0.30400  0.15100  1.0000
  P   P2        1.0  0.04460  0.60300  0.19700  1.0000
  P   P3        1.0  0.49000  0.94000  0.30500  1.0000
  P   P4        1.0  0.12000  0.24600  0.33100  1.0000
  P   P5        1.0  0.88000  0.75400  0.66900  1.0000
  P   P6        1.0  0.51000  0.06040  0.69500  1.0000
  P   P7        1.0  0.95500  0.39700  0.80300  1.0000
  P   P8        1.0  0.57800  0.69600  0.84900  1.0000
