data_image0
_chemical_formula_structural       B4Fe12O24
_chemical_formula_sum              "B4 Fe12 O24"
_cell_length_a       10.0667
_cell_length_b       8.56289
_cell_length_c       4.45942
_cell_angle_alpha    90
_cell_angle_beta     90
_cell_angle_gamma    90

_space_group_name_H-M_alt    "P 1"
_space_group_IT_number       1

loop_
  _space_group_symop_operation_xyz
  'x, y, z'

loop_
  _atom_site_type_symbol
  _atom_site_label
  _atom_site_symmetry_multiplicity
  _atom_site_fract_x
  _atom_site_fract_y
  _atom_site_fract_z
  _atom_site_occupancy
  B   B1        1.0  0.71800  0.25000  0.08880  1.0000
  B   B2        1.0  0.21800  0.25000  0.41100  1.0000
  B   B3        1.0  0.78200  0.75000  0.58900  1.0000
  B   B4        1.0  0.28200  0.75000  0.91100  1.0000
  Fe  Fe1       1.0  0.59000  0.75000  0.01860  1.0000
  Fe  Fe2       1.0  0.87100  0.56600  0.02020  1.0000
  Fe  Fe3       1.0  0.87100  0.93400  0.02020  1.0000
  Fe  Fe4       1.0  0.37100  0.56600  0.48000  1.0000
  Fe  Fe5       1.0  0.37100  0.93400  0.48000  1.0000
  Fe  Fe6       1.0  0.09040  0.75000  0.48100  1.0000
  Fe  Fe7       1.0  0.91000  0.25000  0.51900  1.0000
  Fe  Fe8       1.0  0.62900  0.06650  0.52000  1.0000
  Fe  Fe9       1.0  0.62900  0.43400  0.52000  1.0000
  Fe  Fe10      1.0  0.12900  0.06650  0.98000  1.0000
  Fe  Fe11      1.0  0.12900  0.43400  0.98000  1.0000
  Fe  Fe12      1.0  0.41000  0.25000  0.98100  1.0000
  O   O1        1.0  0.58200  0.25000  0.22400  1.0000
  O   O2        1.0  0.78600  0.11200  0.23400  1.0000
  O   O3        1.0  0.78600  0.38800  0.23400  1.0000
  O   O4        1.0  0.28100  0.75000  0.23500  1.0000
  O   O5        1.0  0.03510  0.58000  0.23700  1.0000
  O   O6        1.0  0.03510  0.92000  0.23700  1.0000
  O   O7        1.0  0.53500  0.58000  0.26300  1.0000
  O   O8        1.0  0.53500  0.92000  0.26300  1.0000
  O   O9        1.0  0.78100  0.75000  0.26500  1.0000
  O   O10       1.0  0.28600  0.11200  0.26600  1.0000
  O   O11       1.0  0.28600  0.38800  0.26600  1.0000
  O   O12       1.0  0.08160  0.25000  0.27600  1.0000
  O   O13       1.0  0.91800  0.75000  0.72400  1.0000
  O   O14       1.0  0.71400  0.61200  0.73400  1.0000
  O   O15       1.0  0.71400  0.88800  0.73400  1.0000
  O   O16       1.0  0.21900  0.25000  0.73500  1.0000
  O   O17       1.0  0.46500  0.08020  0.73700  1.0000
  O   O18       1.0  0.46500  0.42000  0.73700  1.0000
  O   O19       1.0  0.96500  0.08020  0.76300  1.0000
  O   O20       1.0  0.96500  0.42000  0.76300  1.0000
  O   O21       1.0  0.71900  0.25000  0.76500  1.0000
  O   O22       1.0  0.21400  0.61200  0.76600  1.0000
  O   O23       1.0  0.21400  0.88800  0.76600  1.0000
  O   O24       1.0  0.41800  0.75000  0.77600  1.0000
