data_image0
_chemical_formula_structural       O24P8Tl8
_chemical_formula_sum              "O24 P8 Tl8"
_cell_length_a       7.56639
_cell_length_b       7.56639
_cell_length_c       10.9594
_cell_angle_alpha    90
_cell_angle_beta     90
_cell_angle_gamma    90

_space_group_name_H-M_alt    "P 1"
_space_group_IT_number       1

loop_
  _space_group_symop_operation_xyz
  'x, y, z'

loop_
  _atom_site_type_symbol
  _atom_site_label
  _atom_site_symmetry_multiplicity
  _atom_site_fract_x
  _atom_site_fract_y
  _atom_site_fract_z
  _atom_site_occupancy
  O   O1        1.0  0.30600  0.11300  0.03680  1.0000
  O   O2        1.0  0.69400  0.88700  0.03680  1.0000
  O   O3        1.0  0.30100  0.44200  0.05540  1.0000
  O   O4        1.0  0.69900  0.55800  0.05540  1.0000
  O   O5        1.0  0.70000  0.26800  0.15900  1.0000
  O   O6        1.0  0.30000  0.73200  0.15900  1.0000
  O   O7        1.0  0.20000  0.23200  0.34100  1.0000
  O   O8        1.0  0.80000  0.76800  0.34100  1.0000
  O   O9        1.0  0.80100  0.05770  0.44500  1.0000
  O   O10       1.0  0.19900  0.94200  0.44500  1.0000
  O   O11       1.0  0.80600  0.38700  0.46300  1.0000
  O   O12       1.0  0.19400  0.61300  0.46300  1.0000
  O   O13       1.0  0.38700  0.19400  0.53700  1.0000
  O   O14       1.0  0.61300  0.80600  0.53700  1.0000
  O   O15       1.0  0.05770  0.19900  0.55500  1.0000
  O   O16       1.0  0.94200  0.80100  0.55500  1.0000
  O   O17       1.0  0.76800  0.20000  0.65900  1.0000
  O   O18       1.0  0.23200  0.80000  0.65900  1.0000
  O   O19       1.0  0.26800  0.30000  0.84100  1.0000
  O   O20       1.0  0.73200  0.70000  0.84100  1.0000
  O   O21       1.0  0.55800  0.30100  0.94500  1.0000
  O   O22       1.0  0.44200  0.69900  0.94500  1.0000
  O   O23       1.0  0.88700  0.30600  0.96300  1.0000
  O   O24       1.0  0.11300  0.69400  0.96300  1.0000
  P   P1        1.0  0.72300  0.34500  0.03350  1.0000
  P   P2        1.0  0.27700  0.65500  0.03350  1.0000
  P   P3        1.0  0.22300  0.15500  0.46700  1.0000
  P   P4        1.0  0.77700  0.84500  0.46700  1.0000
  P   P5        1.0  0.84500  0.22300  0.53300  1.0000
  P   P6        1.0  0.15500  0.77700  0.53300  1.0000
  P   P7        1.0  0.34500  0.27700  0.96700  1.0000
  P   P8        1.0  0.65500  0.72300  0.96700  1.0000
  Tl  Tl1       1.0  0.00000  0.00000  0.16800  1.0000
  Tl  Tl2       1.0  0.50000  0.00000  0.23300  1.0000
  Tl  Tl3       1.0  0.00000  0.50000  0.26700  1.0000
  Tl  Tl4       1.0  0.50000  0.50000  0.33200  1.0000
  Tl  Tl5       1.0  0.50000  0.50000  0.66800  1.0000
  Tl  Tl6       1.0  0.50000  0.00000  0.73300  1.0000
  Tl  Tl7       1.0  0.00000  0.50000  0.76700  1.0000
  Tl  Tl8       1.0  0.00000  0.00000  0.83200  1.0000
