data_image0
_chemical_formula_structural       O16Rb16Zn8
_chemical_formula_sum              "O16 Rb16 Zn8"
_cell_length_a       9.53172
_cell_length_b       6.31338
_cell_length_c       15.953
_cell_angle_alpha    90
_cell_angle_beta     119.329
_cell_angle_gamma    90

_space_group_name_H-M_alt    "P 1"
_space_group_IT_number       1

loop_
  _space_group_symop_operation_xyz
  'x, y, z'

loop_
  _atom_site_type_symbol
  _atom_site_label
  _atom_site_symmetry_multiplicity
  _atom_site_fract_x
  _atom_site_fract_y
  _atom_site_fract_z
  _atom_site_occupancy
  O   O1        1.0  0.25300  0.27900  0.02740  1.0000
  O   O2        1.0  0.63800  0.13500  0.07430  1.0000
  O   O3        1.0  0.38400  0.89400  0.14300  1.0000
  O   O4        1.0  0.14100  0.19300  0.20200  1.0000
  O   O5        1.0  0.85900  0.69300  0.29800  1.0000
  O   O6        1.0  0.61600  0.39400  0.35700  1.0000
  O   O7        1.0  0.36200  0.63500  0.42600  1.0000
  O   O8        1.0  0.74700  0.77900  0.47300  1.0000
  O   O9        1.0  0.25300  0.22100  0.52700  1.0000
  O   O10       1.0  0.63800  0.36500  0.57400  1.0000
  O   O11       1.0  0.38400  0.60600  0.64300  1.0000
  O   O12       1.0  0.14100  0.30700  0.70200  1.0000
  O   O13       1.0  0.85900  0.80700  0.79800  1.0000
  O   O14       1.0  0.61600  0.10600  0.85700  1.0000
  O   O15       1.0  0.36200  0.86500  0.92600  1.0000
  O   O16       1.0  0.74700  0.72100  0.97300  1.0000
  Rb  Rb1       1.0  0.86000  0.32300  0.02770  1.0000
  Rb  Rb2       1.0  0.56700  0.56300  0.12100  1.0000
  Rb  Rb3       1.0  0.92500  0.86400  0.16400  1.0000
  Rb  Rb4       1.0  0.31600  0.58400  0.23800  1.0000
  Rb  Rb5       1.0  0.68400  0.08390  0.26200  1.0000
  Rb  Rb6       1.0  0.07520  0.36400  0.33600  1.0000
  Rb  Rb7       1.0  0.43300  0.06350  0.37900  1.0000
  Rb  Rb8       1.0  0.14000  0.82300  0.47200  1.0000
  Rb  Rb9       1.0  0.86000  0.17700  0.52800  1.0000
  Rb  Rb10      1.0  0.56700  0.93700  0.62100  1.0000
  Rb  Rb11      1.0  0.92500  0.63600  0.66400  1.0000
  Rb  Rb12      1.0  0.31600  0.91600  0.73800  1.0000
  Rb  Rb13      1.0  0.68400  0.41600  0.76200  1.0000
  Rb  Rb14      1.0  0.07520  0.13600  0.83600  1.0000
  Rb  Rb15      1.0  0.43300  0.43700  0.87900  1.0000
  Rb  Rb16      1.0  0.14000  0.67700  0.97200  1.0000
  Zn  Zn1       1.0  0.41200  0.05260  0.03970  1.0000
  Zn  Zn2       1.0  0.24100  0.12500  0.13100  1.0000
  Zn  Zn3       1.0  0.75900  0.62500  0.36900  1.0000
  Zn  Zn4       1.0  0.58800  0.55300  0.46000  1.0000
  Zn  Zn5       1.0  0.41200  0.44700  0.54000  1.0000
  Zn  Zn6       1.0  0.24100  0.37500  0.63100  1.0000
  Zn  Zn7       1.0  0.75900  0.87500  0.86900  1.0000
  Zn  Zn8       1.0  0.58800  0.94700  0.96000  1.0000
