data_image0
_chemical_formula_structural       S24Sc4U12
_chemical_formula_sum              "S24 Sc4 U12"
_cell_length_a       16.3056
_cell_length_b       13.3349
_cell_length_c       3.75551
_cell_angle_alpha    90
_cell_angle_beta     90
_cell_angle_gamma    90

_space_group_name_H-M_alt    "P 1"
_space_group_IT_number       1

loop_
  _space_group_symop_operation_xyz
  'x, y, z'

loop_
  _atom_site_type_symbol
  _atom_site_label
  _atom_site_symmetry_multiplicity
  _atom_site_fract_x
  _atom_site_fract_y
  _atom_site_fract_z
  _atom_site_occupancy
  S   S1        1.0  0.39300  0.02550  0.00000  1.0000
  S   S2        1.0  0.92100  0.09340  0.00000  1.0000
  S   S3        1.0  0.02390  0.31000  0.00000  1.0000
  S   S4        1.0  0.78700  0.31400  0.00000  1.0000
  S   S5        1.0  0.60800  0.37300  0.00000  1.0000
  S   S6        1.0  0.25400  0.40000  0.00000  1.0000
  S   S7        1.0  0.74600  0.60000  0.00000  1.0000
  S   S8        1.0  0.39200  0.62700  0.00000  1.0000
  S   S9        1.0  0.21300  0.68600  0.00000  1.0000
  S   S10       1.0  0.97600  0.69000  0.00000  1.0000
  S   S11       1.0  0.07860  0.90700  0.00000  1.0000
  S   S12       1.0  0.60700  0.97500  0.00000  1.0000
  S   S13       1.0  0.75400  0.09960  0.50000  1.0000
  S   S14       1.0  0.10800  0.12700  0.50000  1.0000
  S   S15       1.0  0.28700  0.18600  0.50000  1.0000
  S   S16       1.0  0.52400  0.19000  0.50000  1.0000
  S   S17       1.0  0.42100  0.40700  0.50000  1.0000
  S   S18       1.0  0.89300  0.47500  0.50000  1.0000
  S   S19       1.0  0.10700  0.52500  0.50000  1.0000
  S   S20       1.0  0.57900  0.59300  0.50000  1.0000
  S   S21       1.0  0.47600  0.81000  0.50000  1.0000
  S   S22       1.0  0.71300  0.81400  0.50000  1.0000
  S   S23       1.0  0.89200  0.87300  0.50000  1.0000
  S   S24       1.0  0.24600  0.90000  0.50000  1.0000
  Sc  Sc1       1.0  0.00000  0.50000  0.00000  1.0000
  Sc  Sc2       1.0  0.50000  0.50000  0.00000  1.0000
  Sc  Sc3       1.0  0.00000  0.00000  0.50000  1.0000
  Sc  Sc4       1.0  0.50000  0.00000  0.50000  1.0000
  U   U1        1.0  0.21600  0.05080  0.00000  1.0000
  U   U2        1.0  0.65100  0.17900  0.00000  1.0000
  U   U3        1.0  0.40100  0.24800  0.00000  1.0000
  U   U4        1.0  0.59900  0.75200  0.00000  1.0000
  U   U5        1.0  0.34900  0.82100  0.00000  1.0000
  U   U6        1.0  0.78400  0.94900  0.00000  1.0000
  U   U7        1.0  0.90100  0.25200  0.50000  1.0000
  U   U8        1.0  0.15100  0.32100  0.50000  1.0000
  U   U9        1.0  0.71600  0.44900  0.50000  1.0000
  U   U10       1.0  0.28400  0.55100  0.50000  1.0000
  U   U11       1.0  0.84900  0.67900  0.50000  1.0000
  U   U12       1.0  0.09900  0.74800  0.50000  1.0000
