data_image0
_chemical_formula_structural       Au2Si2Y
_chemical_formula_sum              "Au2 Si2 Y1"
_cell_length_a       4.27429
_cell_length_b       4.27429
_cell_length_c       5.94437
_cell_angle_alpha    111.071
_cell_angle_beta     111.071
_cell_angle_gamma    90

_space_group_name_H-M_alt    "P 1"
_space_group_IT_number       1

loop_
  _space_group_symop_operation_xyz
  'x, y, z'

loop_
  _atom_site_type_symbol
  _atom_site_label
  _atom_site_symmetry_multiplicity
  _atom_site_fract_x
  _atom_site_fract_y
  _atom_site_fract_z
  _atom_site_occupancy
  Au  Au1       1.0  0.75000  0.25000  0.50000  1.0000
  Au  Au2       1.0  0.25000  0.75000  0.50000  1.0000
  Si  Si1       1.0  0.61200  0.61200  0.22400  1.0000
  Si  Si2       1.0  0.38800  0.38800  0.77600  1.0000
  Y   Y1        1.0  0.00000  0.00000  0.00000  1.0000
