data_image0
_chemical_formula_structural       Cs16O16Zn8
_chemical_formula_sum              "Cs16 O16 Zn8"
_cell_length_a       9.85482
_cell_length_b       6.61398
_cell_length_c       16.3589
_cell_angle_alpha    90
_cell_angle_beta     117.536
_cell_angle_gamma    90

_space_group_name_H-M_alt    "P 1"
_space_group_IT_number       1

loop_
  _space_group_symop_operation_xyz
  'x, y, z'

loop_
  _atom_site_type_symbol
  _atom_site_label
  _atom_site_symmetry_multiplicity
  _atom_site_fract_x
  _atom_site_fract_y
  _atom_site_fract_z
  _atom_site_occupancy
  Cs  Cs1       1.0  0.85700  0.32500  0.02390  1.0000
  Cs  Cs2       1.0  0.57300  0.57400  0.12100  1.0000
  Cs  Cs3       1.0  0.92800  0.86000  0.16200  1.0000
  Cs  Cs4       1.0  0.32000  0.59000  0.24000  1.0000
  Cs  Cs5       1.0  0.68000  0.09040  0.26000  1.0000
  Cs  Cs6       1.0  0.07170  0.36000  0.33800  1.0000
  Cs  Cs7       1.0  0.42700  0.07440  0.37900  1.0000
  Cs  Cs8       1.0  0.14300  0.82500  0.47600  1.0000
  Cs  Cs9       1.0  0.85700  0.17500  0.52400  1.0000
  Cs  Cs10      1.0  0.57300  0.92600  0.62100  1.0000
  Cs  Cs11      1.0  0.92800  0.64000  0.66200  1.0000
  Cs  Cs12      1.0  0.32000  0.91000  0.74000  1.0000
  Cs  Cs13      1.0  0.68000  0.41000  0.76000  1.0000
  Cs  Cs14      1.0  0.07170  0.14000  0.83800  1.0000
  Cs  Cs15      1.0  0.42700  0.42600  0.87900  1.0000
  Cs  Cs16      1.0  0.14300  0.67500  0.97600  1.0000
  O   O1        1.0  0.26900  0.28000  0.03110  1.0000
  O   O2        1.0  0.63300  0.12300  0.07030  1.0000
  O   O3        1.0  0.38200  0.91200  0.14100  1.0000
  O   O4        1.0  0.14000  0.19500  0.19500  1.0000
  O   O5        1.0  0.86000  0.69500  0.30500  1.0000
  O   O6        1.0  0.61800  0.41200  0.35900  1.0000
  O   O7        1.0  0.36700  0.62300  0.43000  1.0000
  O   O8        1.0  0.73100  0.78000  0.46900  1.0000
  O   O9        1.0  0.26900  0.22000  0.53100  1.0000
  O   O10       1.0  0.63300  0.37700  0.57000  1.0000
  O   O11       1.0  0.38200  0.58800  0.64100  1.0000
  O   O12       1.0  0.14000  0.30500  0.69500  1.0000
  O   O13       1.0  0.86000  0.80500  0.80500  1.0000
  O   O14       1.0  0.61800  0.08790  0.85900  1.0000
  O   O15       1.0  0.36700  0.87700  0.93000  1.0000
  O   O16       1.0  0.73100  0.72000  0.96900  1.0000
  Zn  Zn1       1.0  0.41500  0.05570  0.04010  1.0000
  Zn  Zn2       1.0  0.24400  0.13500  0.12800  1.0000
  Zn  Zn3       1.0  0.75600  0.63500  0.37200  1.0000
  Zn  Zn4       1.0  0.58500  0.55600  0.46000  1.0000
  Zn  Zn5       1.0  0.41500  0.44400  0.54000  1.0000
  Zn  Zn6       1.0  0.24400  0.36500  0.62800  1.0000
  Zn  Zn7       1.0  0.75600  0.86500  0.87200  1.0000
  Zn  Zn8       1.0  0.58500  0.94400  0.96000  1.0000
