data_image0
_chemical_formula_structural       Eu6H26Mg7
_chemical_formula_sum              "Eu6 H26 Mg7"
_cell_length_a       5.46058
_cell_length_b       9.14421
_cell_length_c       9.30546
_cell_angle_alpha    95.3119
_cell_angle_beta     107.062
_cell_angle_gamma    107.372

_space_group_name_H-M_alt    "P 1"
_space_group_IT_number       1

loop_
  _space_group_symop_operation_xyz
  'x, y, z'

loop_
  _atom_site_type_symbol
  _atom_site_label
  _atom_site_symmetry_multiplicity
  _atom_site_fract_x
  _atom_site_fract_y
  _atom_site_fract_z
  _atom_site_occupancy
  Eu  Eu1       1.0  0.73900  0.38300  0.09380  1.0000
  Eu  Eu2       1.0  0.49300  0.64000  0.34600  1.0000
  Eu  Eu3       1.0  0.74300  0.08170  0.40400  1.0000
  Eu  Eu4       1.0  0.25700  0.91800  0.59600  1.0000
  Eu  Eu5       1.0  0.50700  0.36000  0.65400  1.0000
  Eu  Eu6       1.0  0.26100  0.61700  0.90600  1.0000
  H   H1        1.0  0.98800  0.90000  0.07540  1.0000
  H   H2        1.0  0.48500  0.88400  0.08540  1.0000
  H   H3        1.0  0.11800  0.62300  0.11900  1.0000
  H   H4        1.0  0.62400  0.62300  0.11900  1.0000
  H   H5        1.0  0.28100  0.40200  0.15900  1.0000
  H   H6        1.0  0.45600  0.15600  0.18100  1.0000
  H   H7        1.0  0.88100  0.15600  0.18100  1.0000
  H   H8        1.0  0.95800  0.58900  0.32700  1.0000
  H   H9        1.0  0.34600  0.85700  0.35800  1.0000
  H   H10       1.0  0.86900  0.85700  0.35800  1.0000
  H   H11       1.0  0.14700  0.36300  0.41600  1.0000
  H   H12       1.0  0.63200  0.36300  0.41600  1.0000
  H   H13       1.0  0.27200  0.11700  0.42600  1.0000
  H   H14       1.0  0.72800  0.88300  0.57400  1.0000
  H   H15       1.0  0.36800  0.63700  0.58400  1.0000
  H   H16       1.0  0.85300  0.63700  0.58400  1.0000
  H   H17       1.0  0.13100  0.14300  0.64200  1.0000
  H   H18       1.0  0.65400  0.14300  0.64200  1.0000
  H   H19       1.0  0.04160  0.41100  0.67300  1.0000
  H   H20       1.0  0.11900  0.84400  0.81900  1.0000
  H   H21       1.0  0.54400  0.84400  0.81900  1.0000
  H   H22       1.0  0.71900  0.59800  0.84100  1.0000
  H   H23       1.0  0.37600  0.37700  0.88100  1.0000
  H   H24       1.0  0.88200  0.37700  0.88100  1.0000
  H   H25       1.0  0.51500  0.11600  0.91500  1.0000
  H   H26       1.0  0.01230  0.10000  0.92500  1.0000
  Mg  Mg1       1.0  0.25900  0.00000  0.00000  1.0000
  Mg  Mg2       1.0  0.74100  0.00000  0.00000  1.0000
  Mg  Mg3       1.0  0.98800  0.76600  0.21000  1.0000
  Mg  Mg4       1.0  0.26100  0.24600  0.27600  1.0000
  Mg  Mg5       1.0  0.00000  0.50000  0.50000  1.0000
  Mg  Mg6       1.0  0.73900  0.75400  0.72400  1.0000
  Mg  Mg7       1.0  0.01210  0.23400  0.79000  1.0000
