data_image0
_chemical_formula_structural       Ga2O8
_chemical_formula_sum              "Ga2 O8"
_cell_length_a       3.88364
_cell_length_b       9.46919
_cell_length_c       9.50973
_cell_angle_alpha    152.387
_cell_angle_beta     74.4561
_cell_angle_gamma    124.927

_space_group_name_H-M_alt    "P 1"
_space_group_IT_number       1

loop_
  _space_group_symop_operation_xyz
  'x, y, z'

loop_
  _atom_site_type_symbol
  _atom_site_label
  _atom_site_symmetry_multiplicity
  _atom_site_fract_x
  _atom_site_fract_y
  _atom_site_fract_z
  _atom_site_occupancy
  Ga  Ga1       1.0  0.87700  0.03110  0.04150  1.0000
  Ga  Ga2       1.0  0.87300  0.46800  0.20800  1.0000
  O   O1        1.0  0.40000  0.05520  0.05790  1.0000
  O   O2        1.0  0.35100  0.44400  0.19200  1.0000
  O   O3        1.0  0.30400  0.96500  0.28500  1.0000
  O   O4        1.0  0.41400  0.97200  0.40200  1.0000
  O   O5        1.0  0.30000  0.46600  0.52200  1.0000
  O   O6        1.0  0.45100  0.03370  0.72800  1.0000
  O   O7        1.0  0.33500  0.52900  0.84900  1.0000
  O   O8        1.0  0.44600  0.53600  0.96600  1.0000
