data_image0
_chemical_formula_structural       F28In8K4
_chemical_formula_sum              "F28 In8 K4"
_cell_length_a       10.5659
_cell_length_b       8.0071
_cell_length_c       6.58154
_cell_angle_alpha    90
_cell_angle_beta     90.3841
_cell_angle_gamma    90

_space_group_name_H-M_alt    "P 1"
_space_group_IT_number       1

loop_
  _space_group_symop_operation_xyz
  'x, y, z'

loop_
  _atom_site_type_symbol
  _atom_site_label
  _atom_site_symmetry_multiplicity
  _atom_site_fract_x
  _atom_site_fract_y
  _atom_site_fract_z
  _atom_site_occupancy
  F   F1        1.0  0.89100  0.53000  0.06260  1.0000
  F   F2        1.0  0.89100  0.97000  0.06260  1.0000
  F   F3        1.0  0.61000  0.52300  0.06380  1.0000
  F   F4        1.0  0.61000  0.97700  0.06380  1.0000
  F   F5        1.0  0.50300  0.25000  0.24900  1.0000
  F   F6        1.0  0.39400  0.75000  0.24900  1.0000
  F   F7        1.0  0.99400  0.25000  0.25000  1.0000
  F   F8        1.0  0.25000  0.08150  0.25000  1.0000
  F   F9        1.0  0.25000  0.41900  0.25000  1.0000
  F   F10       1.0  0.10800  0.75000  0.25200  1.0000
  F   F11       1.0  0.89100  0.52800  0.43700  1.0000
  F   F12       1.0  0.89100  0.97200  0.43700  1.0000
  F   F13       1.0  0.60900  0.52600  0.43800  1.0000
  F   F14       1.0  0.60900  0.97400  0.43800  1.0000
  F   F15       1.0  0.39100  0.02560  0.56200  1.0000
  F   F16       1.0  0.39100  0.47400  0.56200  1.0000
  F   F17       1.0  0.10900  0.02820  0.56300  1.0000
  F   F18       1.0  0.10900  0.47200  0.56300  1.0000
  F   F19       1.0  0.89200  0.25000  0.74800  1.0000
  F   F20       1.0  0.75000  0.58100  0.75000  1.0000
  F   F21       1.0  0.75000  0.91900  0.75000  1.0000
  F   F22       1.0  0.00585  0.75000  0.75000  1.0000
  F   F23       1.0  0.60600  0.25000  0.75100  1.0000
  F   F24       1.0  0.49700  0.75000  0.75100  1.0000
  F   F25       1.0  0.39000  0.02270  0.93600  1.0000
  F   F26       1.0  0.39000  0.47700  0.93600  1.0000
  F   F27       1.0  0.10900  0.03000  0.93700  1.0000
  F   F28       1.0  0.10900  0.47000  0.93700  1.0000
  In  In1       1.0  0.44000  0.00438  0.25000  1.0000
  In  In2       1.0  0.44000  0.49600  0.25000  1.0000
  In  In3       1.0  0.05960  0.00424  0.25000  1.0000
  In  In4       1.0  0.05960  0.49600  0.25000  1.0000
  In  In5       1.0  0.94000  0.50400  0.75000  1.0000
  In  In6       1.0  0.94000  0.99600  0.75000  1.0000
  In  In7       1.0  0.56000  0.50400  0.75000  1.0000
  In  In8       1.0  0.56000  0.99600  0.75000  1.0000
  K   K1        1.0  0.74900  0.75000  0.25100  1.0000
  K   K2        1.0  0.74900  0.25000  0.25300  1.0000
  K   K3        1.0  0.25100  0.75000  0.74700  1.0000
  K   K4        1.0  0.25100  0.25000  0.74900  1.0000
