data_image0
_chemical_formula_structural       Ba4Co8Nd4O23
_chemical_formula_sum              "Ba4 Co8 Nd4 O23"
_cell_length_a       7.86765
_cell_length_b       7.78683
_cell_length_c       7.58567
_cell_angle_alpha    90
_cell_angle_beta     90
_cell_angle_gamma    90

_space_group_name_H-M_alt    "P 1"
_space_group_IT_number       1

loop_
  _space_group_symop_operation_xyz
  'x, y, z'

loop_
  _atom_site_type_symbol
  _atom_site_label
  _atom_site_symmetry_multiplicity
  _atom_site_fract_x
  _atom_site_fract_y
  _atom_site_fract_z
  _atom_site_occupancy
  Ba  Ba1       1.0  0.25000  0.25000  0.00000  1.0000
  Ba  Ba2       1.0  0.75000  0.25000  0.00000  1.0000
  Ba  Ba3       1.0  0.25000  0.75000  0.00000  1.0000
  Ba  Ba4       1.0  0.75000  0.75000  0.00000  1.0000
  Co  Co1       1.0  0.50000  0.50000  0.25000  1.0000
  Co  Co2       1.0  0.50000  0.00000  0.25200  1.0000
  Co  Co3       1.0  0.00000  0.50000  0.25500  1.0000
  Co  Co4       1.0  0.00000  0.00000  0.25700  1.0000
  Co  Co5       1.0  0.00000  0.00000  0.74300  1.0000
  Co  Co6       1.0  0.00000  0.50000  0.74500  1.0000
  Co  Co7       1.0  0.50000  0.00000  0.74800  1.0000
  Co  Co8       1.0  0.50000  0.50000  0.75000  1.0000
  Nd  Nd1       1.0  0.26300  0.25900  0.50000  1.0000
  Nd  Nd2       1.0  0.73700  0.25900  0.50000  1.0000
  Nd  Nd3       1.0  0.26300  0.74100  0.50000  1.0000
  Nd  Nd4       1.0  0.73700  0.74100  0.50000  1.0000
  O   O1        1.0  0.00000  0.00000  0.00000  1.0000
  O   O2        1.0  0.50000  0.00000  0.00000  1.0000
  O   O3        1.0  0.00000  0.50000  0.00000  1.0000
  O   O4        1.0  0.50000  0.50000  0.00000  1.0000
  O   O5        1.0  0.50000  0.25500  0.27000  1.0000
  O   O6        1.0  0.50000  0.74500  0.27000  1.0000
  O   O7        1.0  0.25000  0.50000  0.27200  1.0000
  O   O8        1.0  0.75000  0.50000  0.27200  1.0000
  O   O9        1.0  0.24000  0.00000  0.29400  1.0000
  O   O10       1.0  0.76000  0.00000  0.29400  1.0000
  O   O11       1.0  0.00000  0.22900  0.29800  1.0000
  O   O12       1.0  0.00000  0.77100  0.29800  1.0000
  O   O13       1.0  0.50000  0.00000  0.50000  1.0000
  O   O14       1.0  0.00000  0.50000  0.50000  1.0000
  O   O15       1.0  0.50000  0.50000  0.50000  1.0000
  O   O16       1.0  0.00000  0.22900  0.70200  1.0000
  O   O17       1.0  0.00000  0.77100  0.70200  1.0000
  O   O18       1.0  0.24000  0.00000  0.70600  1.0000
  O   O19       1.0  0.76000  0.00000  0.70600  1.0000
  O   O20       1.0  0.25000  0.50000  0.72800  1.0000
  O   O21       1.0  0.75000  0.50000  0.72800  1.0000
  O   O22       1.0  0.50000  0.25500  0.73000  1.0000
  O   O23       1.0  0.50000  0.74500  0.73000  1.0000
