data_image0
_chemical_formula_structural       B8Nb4O24Tl4
_chemical_formula_sum              "B8 Nb4 O24 Tl4"
_cell_length_a       7.7463
_cell_length_b       9.38389
_cell_length_c       7.36183
_cell_angle_alpha    90
_cell_angle_beta     90
_cell_angle_gamma    90

_space_group_name_H-M_alt    "P 1"
_space_group_IT_number       1

loop_
  _space_group_symop_operation_xyz
  'x, y, z'

loop_
  _atom_site_type_symbol
  _atom_site_label
  _atom_site_symmetry_multiplicity
  _atom_site_fract_x
  _atom_site_fract_y
  _atom_site_fract_z
  _atom_site_occupancy
  B   B1        1.0  0.29200  0.92100  0.07800  1.0000
  B   B2        1.0  0.72900  0.92500  0.09150  1.0000
  B   B3        1.0  0.22900  0.92500  0.40900  1.0000
  B   B4        1.0  0.79200  0.92100  0.42200  1.0000
  B   B5        1.0  0.20800  0.42100  0.57800  1.0000
  B   B6        1.0  0.77100  0.42500  0.59100  1.0000
  B   B7        1.0  0.27100  0.42500  0.90900  1.0000
  B   B8        1.0  0.70800  0.42100  0.92200  1.0000
  Nb  Nb1       1.0  0.15100  0.63400  0.23800  1.0000
  Nb  Nb2       1.0  0.65100  0.63400  0.26200  1.0000
  Nb  Nb3       1.0  0.34900  0.13400  0.73800  1.0000
  Nb  Nb4       1.0  0.84900  0.13400  0.76200  1.0000
  O   O1        1.0  0.23100  0.78700  0.05240  1.0000
  O   O2        1.0  0.62900  0.49700  0.05770  1.0000
  O   O3        1.0  0.22600  0.48600  0.06720  1.0000
  O   O4        1.0  0.63700  0.80200  0.09210  1.0000
  O   O5        1.0  0.92400  0.63500  0.17500  1.0000
  O   O6        1.0  0.28300  0.99000  0.24700  1.0000
  O   O7        1.0  0.78300  0.99000  0.25300  1.0000
  O   O8        1.0  0.42400  0.63500  0.32500  1.0000
  O   O9        1.0  0.13700  0.80200  0.40800  1.0000
  O   O10       1.0  0.72600  0.48600  0.43300  1.0000
  O   O11       1.0  0.12900  0.49700  0.44200  1.0000
  O   O12       1.0  0.73100  0.78700  0.44800  1.0000
  O   O13       1.0  0.26900  0.28700  0.55200  1.0000
  O   O14       1.0  0.87100  0.99700  0.55800  1.0000
  O   O15       1.0  0.27400  0.98600  0.56700  1.0000
  O   O16       1.0  0.86300  0.30200  0.59200  1.0000
  O   O17       1.0  0.57600  0.13500  0.67500  1.0000
  O   O18       1.0  0.21700  0.49000  0.74700  1.0000
  O   O19       1.0  0.71700  0.49000  0.75300  1.0000
  O   O20       1.0  0.07650  0.13500  0.82500  1.0000
  O   O21       1.0  0.36300  0.30200  0.90800  1.0000
  O   O22       1.0  0.77400  0.98600  0.93300  1.0000
  O   O23       1.0  0.37100  0.99700  0.94200  1.0000
  O   O24       1.0  0.76900  0.28700  0.94800  1.0000
  Tl  Tl1       1.0  0.50100  0.24200  0.24800  1.0000
  Tl  Tl2       1.0  0.00104  0.24200  0.25200  1.0000
  Tl  Tl3       1.0  0.99900  0.74200  0.74800  1.0000
  Tl  Tl4       1.0  0.49900  0.74200  0.75200  1.0000
