data_image0
_chemical_formula_structural       O2Pu6
_chemical_formula_sum              "O2 Pu6"
_cell_length_a       7.93232
_cell_length_b       7.93232
_cell_length_c       3.53254
_cell_angle_alpha    90
_cell_angle_beta     90
_cell_angle_gamma    120

_space_group_name_H-M_alt    "P 1"
_space_group_IT_number       1

loop_
  _space_group_symop_operation_xyz
  'x, y, z'

loop_
  _atom_site_type_symbol
  _atom_site_label
  _atom_site_symmetry_multiplicity
  _atom_site_fract_x
  _atom_site_fract_y
  _atom_site_fract_z
  _atom_site_occupancy
  O   O1        1.0  0.33300  0.66700  0.75000  1.0000
  O   O2        1.0  0.66700  0.33300  0.25000  1.0000
  Pu  Pu1       1.0  0.19800  0.39500  0.25000  1.0000
  Pu  Pu2       1.0  0.60500  0.80200  0.25000  1.0000
  Pu  Pu3       1.0  0.19800  0.80200  0.25000  1.0000
  Pu  Pu4       1.0  0.80200  0.60500  0.75000  1.0000
  Pu  Pu5       1.0  0.39500  0.19800  0.75000  1.0000
  Pu  Pu6       1.0  0.80200  0.19800  0.75000  1.0000
