data_image0
_chemical_formula_structural       Ba2ClP
_chemical_formula_sum              "Ba2 Cl1 P1"
_cell_length_a       4.65331
_cell_length_b       4.65331
_cell_length_c       8.1463
_cell_angle_alpha    106.595
_cell_angle_beta     90
_cell_angle_gamma    60

_space_group_name_H-M_alt    "P 1"
_space_group_IT_number       1

loop_
  _space_group_symop_operation_xyz
  'x, y, z'

loop_
  _atom_site_type_symbol
  _atom_site_label
  _atom_site_symmetry_multiplicity
  _atom_site_fract_x
  _atom_site_fract_y
  _atom_site_fract_z
  _atom_site_occupancy
  Ba  Ba1       1.0  0.24100  0.51800  0.27800  1.0000
  Ba  Ba2       1.0  0.75900  0.48200  0.72200  1.0000
  Cl  Cl1       1.0  0.00000  0.00000  0.00000  1.0000
  P   P1        1.0  0.50000  0.00000  0.50000  1.0000
