data_image0
_chemical_formula_structural       Cu2Ge2Tm
_chemical_formula_sum              "Cu2 Ge2 Tm1"
_cell_length_a       4.04116
_cell_length_b       4.04116
_cell_length_c       5.87814
_cell_angle_alpha    110.105
_cell_angle_beta     110.105
_cell_angle_gamma    90

_space_group_name_H-M_alt    "P 1"
_space_group_IT_number       1

loop_
  _space_group_symop_operation_xyz
  'x, y, z'

loop_
  _atom_site_type_symbol
  _atom_site_label
  _atom_site_symmetry_multiplicity
  _atom_site_fract_x
  _atom_site_fract_y
  _atom_site_fract_z
  _atom_site_occupancy
  Cu  Cu1       1.0  0.75000  0.25000  0.50000  1.0000
  Cu  Cu2       1.0  0.25000  0.75000  0.50000  1.0000
  Ge  Ge1       1.0  0.61900  0.61900  0.23800  1.0000
  Ge  Ge2       1.0  0.38100  0.38100  0.76200  1.0000
  Tm  Tm1       1.0  0.00000  0.00000  0.00000  1.0000
