data_image0
_chemical_formula_structural       B4F16H16N4
_chemical_formula_sum              "B4 F16 H16 N4"
_cell_length_a       6.70764
_cell_length_b       8.17465
_cell_length_c       5.46632
_cell_angle_alpha    90
_cell_angle_beta     90
_cell_angle_gamma    90

_space_group_name_H-M_alt    "P 1"
_space_group_IT_number       1

loop_
  _space_group_symop_operation_xyz
  'x, y, z'

loop_
  _atom_site_type_symbol
  _atom_site_label
  _atom_site_symmetry_multiplicity
  _atom_site_fract_x
  _atom_site_fract_y
  _atom_site_fract_z
  _atom_site_occupancy
  B   B1        1.0  0.69900  0.08330  0.25000  1.0000
  B   B2        1.0  0.80100  0.58300  0.25000  1.0000
  B   B3        1.0  0.19900  0.41700  0.75000  1.0000
  B   B4        1.0  0.30100  0.91700  0.75000  1.0000
  F   F1        1.0  0.82100  0.08150  0.04090  1.0000
  F   F2        1.0  0.67900  0.58100  0.04090  1.0000
  F   F3        1.0  0.58400  0.22800  0.25000  1.0000
  F   F4        1.0  0.92700  0.44600  0.25000  1.0000
  F   F5        1.0  0.91600  0.72800  0.25000  1.0000
  F   F6        1.0  0.57300  0.94600  0.25000  1.0000
  F   F7        1.0  0.82100  0.08150  0.45900  1.0000
  F   F8        1.0  0.67900  0.58100  0.45900  1.0000
  F   F9        1.0  0.32100  0.41900  0.54100  1.0000
  F   F10       1.0  0.17900  0.91900  0.54100  1.0000
  F   F11       1.0  0.42700  0.05390  0.75000  1.0000
  F   F12       1.0  0.08410  0.27200  0.75000  1.0000
  F   F13       1.0  0.07310  0.55400  0.75000  1.0000
  F   F14       1.0  0.41600  0.77200  0.75000  1.0000
  F   F15       1.0  0.32100  0.41900  0.95900  1.0000
  F   F16       1.0  0.17900  0.91900  0.95900  1.0000
  H   H1        1.0  0.13700  0.11800  0.09820  1.0000
  H   H2        1.0  0.36300  0.61800  0.09820  1.0000
  H   H3        1.0  0.33000  0.20200  0.25000  1.0000
  H   H4        1.0  0.10800  0.29500  0.25000  1.0000
  H   H5        1.0  0.17000  0.70200  0.25000  1.0000
  H   H6        1.0  0.39200  0.79500  0.25000  1.0000
  H   H7        1.0  0.13700  0.11800  0.40200  1.0000
  H   H8        1.0  0.36300  0.61800  0.40200  1.0000
  H   H9        1.0  0.63700  0.38200  0.59800  1.0000
  H   H10       1.0  0.86300  0.88200  0.59800  1.0000
  H   H11       1.0  0.60800  0.20500  0.75000  1.0000
  H   H12       1.0  0.83000  0.29800  0.75000  1.0000
  H   H13       1.0  0.89200  0.70500  0.75000  1.0000
  H   H14       1.0  0.67000  0.79800  0.75000  1.0000
  H   H15       1.0  0.63700  0.38200  0.90200  1.0000
  H   H16       1.0  0.86300  0.88200  0.90200  1.0000
  N   N1        1.0  0.17800  0.18400  0.25000  1.0000
  N   N2        1.0  0.32200  0.68400  0.25000  1.0000
  N   N3        1.0  0.67800  0.31600  0.75000  1.0000
  N   N4        1.0  0.82200  0.81600  0.75000  1.0000
