data_image0
_chemical_formula_structural       Ce8P24Si8
_chemical_formula_sum              "Ce8 P24 Si8"
_cell_length_a       5.92368
_cell_length_b       5.75254
_cell_length_c       25.6285
_cell_angle_alpha    90
_cell_angle_beta     90
_cell_angle_gamma    90

_space_group_name_H-M_alt    "P 1"
_space_group_IT_number       1

loop_
  _space_group_symop_operation_xyz
  'x, y, z'

loop_
  _atom_site_type_symbol
  _atom_site_label
  _atom_site_symmetry_multiplicity
  _atom_site_fract_x
  _atom_site_fract_y
  _atom_site_fract_z
  _atom_site_occupancy
  Ce  Ce1       1.0  0.02530  0.75700  0.09000  1.0000
  Ce  Ce2       1.0  0.52500  0.25600  0.09820  1.0000
  Ce  Ce3       1.0  0.02520  0.25600  0.40200  1.0000
  Ce  Ce4       1.0  0.52500  0.75700  0.41000  1.0000
  Ce  Ce5       1.0  0.47500  0.25700  0.59000  1.0000
  Ce  Ce6       1.0  0.97500  0.75600  0.59800  1.0000
  Ce  Ce7       1.0  0.47500  0.75600  0.90200  1.0000
  Ce  Ce8       1.0  0.97500  0.25700  0.91000  1.0000
  P   P1        1.0  0.31400  0.06060  0.00197  1.0000
  P   P2        1.0  0.31600  0.46000  0.00220  1.0000
  P   P3        1.0  0.02870  0.25400  0.12400  1.0000
  P   P4        1.0  0.51800  0.75400  0.12800  1.0000
  P   P5        1.0  0.97900  0.72600  0.21100  1.0000
  P   P6        1.0  0.58400  0.22400  0.21600  1.0000
  P   P7        1.0  0.08400  0.22400  0.28400  1.0000
  P   P8        1.0  0.47900  0.72600  0.28900  1.0000
  P   P9        1.0  0.01810  0.75400  0.37200  1.0000
  P   P10       1.0  0.52900  0.25400  0.37600  1.0000
  P   P11       1.0  0.81600  0.46000  0.49800  1.0000
  P   P12       1.0  0.81400  0.06060  0.49800  1.0000
  P   P13       1.0  0.18600  0.56100  0.50200  1.0000
  P   P14       1.0  0.18400  0.96000  0.50200  1.0000
  P   P15       1.0  0.47100  0.75400  0.62400  1.0000
  P   P16       1.0  0.98200  0.25400  0.62800  1.0000
  P   P17       1.0  0.52100  0.22600  0.71100  1.0000
  P   P18       1.0  0.91600  0.72400  0.71600  1.0000
  P   P19       1.0  0.41600  0.72400  0.78400  1.0000
  P   P20       1.0  0.02060  0.22600  0.78900  1.0000
  P   P21       1.0  0.48200  0.25400  0.87200  1.0000
  P   P22       1.0  0.97100  0.75400  0.87600  1.0000
  P   P23       1.0  0.68400  0.96000  0.99800  1.0000
  P   P24       1.0  0.68600  0.56100  0.99800  1.0000
  Si  Si1       1.0  0.94400  0.33600  0.20600  1.0000
  Si  Si2       1.0  0.61600  0.83300  0.20900  1.0000
  Si  Si3       1.0  0.11600  0.83300  0.29100  1.0000
  Si  Si4       1.0  0.44400  0.33600  0.29400  1.0000
  Si  Si5       1.0  0.55600  0.83600  0.70600  1.0000
  Si  Si6       1.0  0.88400  0.33300  0.70900  1.0000
  Si  Si7       1.0  0.38400  0.33300  0.79100  1.0000
  Si  Si8       1.0  0.05590  0.83600  0.79400  1.0000
