data_image0
_chemical_formula_structural       H16MnN2O16P4
_chemical_formula_sum              "H16 Mn1 N2 O16 P4"
_cell_length_a       6.85707
_cell_length_b       7.21072
_cell_length_c       7.6872
_cell_angle_alpha    78.8713
_cell_angle_beta     70.4396
_cell_angle_gamma    86.489

_space_group_name_H-M_alt    "P 1"
_space_group_IT_number       1

loop_
  _space_group_symop_operation_xyz
  'x, y, z'

loop_
  _atom_site_type_symbol
  _atom_site_label
  _atom_site_symmetry_multiplicity
  _atom_site_fract_x
  _atom_site_fract_y
  _atom_site_fract_z
  _atom_site_occupancy
  H   H1        1.0  0.25100  0.97700  0.02070  1.0000
  H   H2        1.0  0.56000  0.30700  0.09380  1.0000
  H   H3        1.0  0.32300  0.40000  0.17700  1.0000
  H   H4        1.0  0.34900  0.16300  0.19000  1.0000
  H   H5        1.0  0.88100  0.15700  0.21500  1.0000
  H   H6        1.0  0.43300  0.26900  0.32900  1.0000
  H   H7        1.0  0.88800  0.29200  0.35700  1.0000
  H   H8        1.0  0.41100  0.72700  0.43800  1.0000
  H   H9        1.0  0.58900  0.27300  0.56200  1.0000
  H   H10       1.0  0.11200  0.70800  0.64300  1.0000
  H   H11       1.0  0.56700  0.73100  0.67100  1.0000
  H   H12       1.0  0.11900  0.84300  0.78500  1.0000
  H   H13       1.0  0.65100  0.83700  0.81000  1.0000
  H   H14       1.0  0.67700  0.60000  0.82300  1.0000
  H   H15       1.0  0.44000  0.69300  0.90600  1.0000
  H   H16       1.0  0.74900  0.02320  0.97900  1.0000
  Mn  Mn1       1.0  0.00000  0.50000  0.00000  1.0000
  N   N1        1.0  0.41700  0.28500  0.19700  1.0000
  N   N2        1.0  0.58300  0.71500  0.80300  1.0000
  O   O1        1.0  0.20200  0.61600  0.11800  1.0000
  O   O2        1.0  0.76500  0.99600  0.15000  1.0000
  O   O3        1.0  0.73400  0.64200  0.16100  1.0000
  O   O4        1.0  0.26200  0.93900  0.16400  1.0000
  O   O5        1.0  0.95700  0.26400  0.23000  1.0000
  O   O6        1.0  0.91900  0.76700  0.36000  1.0000
  O   O7        1.0  0.23600  0.66000  0.42900  1.0000
  O   O8        1.0  0.54600  0.78600  0.45000  1.0000
  O   O9        1.0  0.45400  0.21400  0.55000  1.0000
  O   O10       1.0  0.76400  0.34000  0.57100  1.0000
  O   O11       1.0  0.08110  0.23300  0.64000  1.0000
  O   O12       1.0  0.04320  0.73600  0.77000  1.0000
  O   O13       1.0  0.73800  0.06060  0.83600  1.0000
  O   O14       1.0  0.26600  0.35800  0.83900  1.0000
  O   O15       1.0  0.23500  0.00434  0.85000  1.0000
  O   O16       1.0  0.79800  0.38400  0.88200  1.0000
  P   P1        1.0  0.16400  0.74100  0.26400  1.0000
  P   P2        1.0  0.73700  0.79600  0.26700  1.0000
  P   P3        1.0  0.26300  0.20400  0.73300  1.0000
  P   P4        1.0  0.83600  0.25900  0.73600  1.0000
