data_image0
_chemical_formula_structural       Cd6Gd2
_chemical_formula_sum              "Cd6 Gd2"
_cell_length_a       6.61829
_cell_length_b       6.61839
_cell_length_c       4.96132
_cell_angle_alpha    90
_cell_angle_beta     90
_cell_angle_gamma    120

_space_group_name_H-M_alt    "P 1"
_space_group_IT_number       1

loop_
  _space_group_symop_operation_xyz
  'x, y, z'

loop_
  _atom_site_type_symbol
  _atom_site_label
  _atom_site_symmetry_multiplicity
  _atom_site_fract_x
  _atom_site_fract_y
  _atom_site_fract_z
  _atom_site_occupancy
  Cd  Cd1       1.0  0.32300  0.16200  0.25000  1.0000
  Cd  Cd2       1.0  0.83800  0.16200  0.25000  1.0000
  Cd  Cd3       1.0  0.83800  0.67700  0.25000  1.0000
  Cd  Cd4       1.0  0.16200  0.32300  0.75000  1.0000
  Cd  Cd5       1.0  0.16200  0.83800  0.75000  1.0000
  Cd  Cd6       1.0  0.67700  0.83800  0.75000  1.0000
  Gd  Gd1       1.0  0.33300  0.66700  0.25000  1.0000
  Gd  Gd2       1.0  0.66700  0.33300  0.75000  1.0000
