data_image0
_chemical_formula_structural       Ba8Bi8Se24
_chemical_formula_sum              "Ba8 Bi8 Se24"
_cell_length_a       17.1739
_cell_length_b       16.4149
_cell_length_c       4.4009
_cell_angle_alpha    90
_cell_angle_beta     90
_cell_angle_gamma    90

_space_group_name_H-M_alt    "P 1"
_space_group_IT_number       1

loop_
  _space_group_symop_operation_xyz
  'x, y, z'

loop_
  _atom_site_type_symbol
  _atom_site_label
  _atom_site_symmetry_multiplicity
  _atom_site_fract_x
  _atom_site_fract_y
  _atom_site_fract_z
  _atom_site_occupancy
  Ba  Ba1       1.0  0.91800  0.71100  0.00461  1.0000
  Ba  Ba2       1.0  0.15800  0.85300  0.02800  1.0000
  Ba  Ba3       1.0  0.84200  0.35300  0.47200  1.0000
  Ba  Ba4       1.0  0.08210  0.21100  0.49500  1.0000
  Ba  Ba5       1.0  0.58200  0.28900  0.50500  1.0000
  Ba  Ba6       1.0  0.34200  0.14700  0.52800  1.0000
  Ba  Ba7       1.0  0.65800  0.64700  0.97200  1.0000
  Ba  Ba8       1.0  0.41800  0.78900  0.99500  1.0000
  Bi  Bi1       1.0  0.78000  0.11900  0.00221  1.0000
  Bi  Bi2       1.0  0.54400  0.03170  0.00886  1.0000
  Bi  Bi3       1.0  0.45600  0.53200  0.49100  1.0000
  Bi  Bi4       1.0  0.22000  0.61900  0.49800  1.0000
  Bi  Bi5       1.0  0.72000  0.88100  0.50200  1.0000
  Bi  Bi6       1.0  0.95600  0.96800  0.50900  1.0000
  Bi  Bi7       1.0  0.04360  0.46800  0.99100  1.0000
  Bi  Bi8       1.0  0.28000  0.38100  0.99800  1.0000
  Se  Se1       1.0  0.22200  0.22500  0.01380  1.0000
  Se  Se2       1.0  0.48000  0.18500  0.01390  1.0000
  Se  Se3       1.0  0.11600  0.64800  0.02100  1.0000
  Se  Se4       1.0  0.34600  0.57000  0.04160  1.0000
  Se  Se5       1.0  0.56800  0.46100  0.07610  1.0000
  Se  Se6       1.0  0.30900  0.98800  0.08700  1.0000
  Se  Se7       1.0  0.69100  0.48800  0.41300  1.0000
  Se  Se8       1.0  0.43200  0.96100  0.42400  1.0000
  Se  Se9       1.0  0.65400  0.06970  0.45800  1.0000
  Se  Se10      1.0  0.88400  0.14800  0.47900  1.0000
  Se  Se11      1.0  0.52000  0.68500  0.48600  1.0000
  Se  Se12      1.0  0.77800  0.72500  0.48600  1.0000
  Se  Se13      1.0  0.27800  0.77500  0.51400  1.0000
  Se  Se14      1.0  0.02030  0.81500  0.51400  1.0000
  Se  Se15      1.0  0.38400  0.35200  0.52100  1.0000
  Se  Se16      1.0  0.15400  0.43000  0.54200  1.0000
  Se  Se17      1.0  0.93200  0.53900  0.57600  1.0000
  Se  Se18      1.0  0.19100  0.01230  0.58700  1.0000
  Se  Se19      1.0  0.80900  0.51200  0.91300  1.0000
  Se  Se20      1.0  0.06840  0.03920  0.92400  1.0000
  Se  Se21      1.0  0.84600  0.93000  0.95800  1.0000
  Se  Se22      1.0  0.61600  0.85200  0.97900  1.0000
  Se  Se23      1.0  0.98000  0.31500  0.98600  1.0000
  Se  Se24      1.0  0.72200  0.27500  0.98600  1.0000
