data_image0
_chemical_formula_structural       Nd8Re12Si20
_chemical_formula_sum              "Nd8 Re12 Si20"
_cell_length_a       11.0402
_cell_length_b       11.0402
_cell_length_c       5.70758
_cell_angle_alpha    90
_cell_angle_beta     90
_cell_angle_gamma    90

_space_group_name_H-M_alt    "P 1"
_space_group_IT_number       1

loop_
  _space_group_symop_operation_xyz
  'x, y, z'

loop_
  _atom_site_type_symbol
  _atom_site_label
  _atom_site_symmetry_multiplicity
  _atom_site_fract_x
  _atom_site_fract_y
  _atom_site_fract_z
  _atom_site_occupancy
  Nd  Nd1       1.0  0.76300  0.07710  0.00000  1.0000
  Nd  Nd2       1.0  0.07710  0.23700  0.00000  1.0000
  Nd  Nd3       1.0  0.92300  0.76300  0.00000  1.0000
  Nd  Nd4       1.0  0.23700  0.92300  0.00000  1.0000
  Nd  Nd5       1.0  0.57700  0.26300  0.50000  1.0000
  Nd  Nd6       1.0  0.26300  0.42300  0.50000  1.0000
  Nd  Nd7       1.0  0.73700  0.57700  0.50000  1.0000
  Nd  Nd8       1.0  0.42300  0.73700  0.50000  1.0000
  Re  Re1       1.0  0.37500  0.35200  0.00000  1.0000
  Re  Re2       1.0  0.64800  0.37500  0.00000  1.0000
  Re  Re3       1.0  0.35200  0.62500  0.00000  1.0000
  Re  Re4       1.0  0.62500  0.64800  0.00000  1.0000
  Re  Re5       1.0  0.50000  0.00000  0.25000  1.0000
  Re  Re6       1.0  0.00000  0.50000  0.25000  1.0000
  Re  Re7       1.0  0.14800  0.12500  0.50000  1.0000
  Re  Re8       1.0  0.87500  0.14800  0.50000  1.0000
  Re  Re9       1.0  0.12500  0.85200  0.50000  1.0000
  Re  Re10      1.0  0.85200  0.87500  0.50000  1.0000
  Re  Re11      1.0  0.50000  0.00000  0.75000  1.0000
  Re  Re12      1.0  0.00000  0.50000  0.75000  1.0000
  Si  Si1       1.0  0.52400  0.18400  0.00000  1.0000
  Si  Si2       1.0  0.18400  0.47600  0.00000  1.0000
  Si  Si3       1.0  0.81600  0.52400  0.00000  1.0000
  Si  Si4       1.0  0.47600  0.81600  0.00000  1.0000
  Si  Si5       1.0  0.50000  0.50000  0.23900  1.0000
  Si  Si6       1.0  0.32800  0.17200  0.25000  1.0000
  Si  Si7       1.0  0.82800  0.32800  0.25000  1.0000
  Si  Si8       1.0  0.17200  0.67200  0.25000  1.0000
  Si  Si9       1.0  0.67200  0.82800  0.25000  1.0000
  Si  Si10      1.0  0.00000  0.00000  0.26100  1.0000
  Si  Si11      1.0  0.68400  0.02420  0.50000  1.0000
  Si  Si12      1.0  0.02420  0.31600  0.50000  1.0000
  Si  Si13      1.0  0.97600  0.68400  0.50000  1.0000
  Si  Si14      1.0  0.31600  0.97600  0.50000  1.0000
  Si  Si15      1.0  0.00000  0.00000  0.73900  1.0000
  Si  Si16      1.0  0.32800  0.17200  0.75000  1.0000
  Si  Si17      1.0  0.82800  0.32800  0.75000  1.0000
  Si  Si18      1.0  0.17200  0.67200  0.75000  1.0000
  Si  Si19      1.0  0.67200  0.82800  0.75000  1.0000
  Si  Si20      1.0  0.50000  0.50000  0.76100  1.0000
