data_image0
_chemical_formula_structural       H8N8Na8O16
_chemical_formula_sum              "H8 N8 Na8 O16"
_cell_length_a       6.2982
_cell_length_b       9.57498
_cell_length_c       6.52421
_cell_angle_alpha    90
_cell_angle_beta     90
_cell_angle_gamma    90

_space_group_name_H-M_alt    "P 1"
_space_group_IT_number       1

loop_
  _space_group_symop_operation_xyz
  'x, y, z'

loop_
  _atom_site_type_symbol
  _atom_site_label
  _atom_site_symmetry_multiplicity
  _atom_site_fract_x
  _atom_site_fract_y
  _atom_site_fract_z
  _atom_site_occupancy
  H   H1        1.0  0.82600  0.27800  0.10800  1.0000
  H   H2        1.0  0.17400  0.77800  0.10800  1.0000
  H   H3        1.0  0.82600  0.27800  0.39200  1.0000
  H   H4        1.0  0.17400  0.77800  0.39200  1.0000
  H   H5        1.0  0.82600  0.22200  0.60800  1.0000
  H   H6        1.0  0.17400  0.72200  0.60800  1.0000
  H   H7        1.0  0.82600  0.22200  0.89200  1.0000
  H   H8        1.0  0.17400  0.72200  0.89200  1.0000
  N   N1        1.0  0.61100  0.02700  0.25000  1.0000
  N   N2        1.0  0.57900  0.47500  0.25000  1.0000
  N   N3        1.0  0.38900  0.52700  0.25000  1.0000
  N   N4        1.0  0.42100  0.97500  0.25000  1.0000
  N   N5        1.0  0.57900  0.02470  0.75000  1.0000
  N   N6        1.0  0.61100  0.47300  0.75000  1.0000
  N   N7        1.0  0.42100  0.52500  0.75000  1.0000
  N   N8        1.0  0.38900  0.97300  0.75000  1.0000
  Na  Na1       1.0  0.00000  0.00000  0.00000  1.0000
  Na  Na2       1.0  0.33300  0.25000  0.00000  1.0000
  Na  Na3       1.0  0.00000  0.50000  0.00000  1.0000
  Na  Na4       1.0  0.66700  0.75000  0.00000  1.0000
  Na  Na5       1.0  0.00000  0.00000  0.50000  1.0000
  Na  Na6       1.0  0.33300  0.25000  0.50000  1.0000
  Na  Na7       1.0  0.00000  0.50000  0.50000  1.0000
  Na  Na8       1.0  0.66700  0.75000  0.50000  1.0000
  O   O1        1.0  0.92900  0.25000  0.00000  1.0000
  O   O2        1.0  0.07140  0.75000  0.00000  1.0000
  O   O3        1.0  0.25800  0.06150  0.25000  1.0000
  O   O4        1.0  0.61300  0.33900  0.25000  1.0000
  O   O5        1.0  0.23800  0.42800  0.25000  1.0000
  O   O6        1.0  0.74200  0.56100  0.25000  1.0000
  O   O7        1.0  0.38700  0.83900  0.25000  1.0000
  O   O8        1.0  0.76200  0.92800  0.25000  1.0000
  O   O9        1.0  0.92900  0.25000  0.50000  1.0000
  O   O10       1.0  0.07140  0.75000  0.50000  1.0000
  O   O11       1.0  0.23800  0.07170  0.75000  1.0000
  O   O12       1.0  0.61300  0.16100  0.75000  1.0000
  O   O13       1.0  0.25800  0.43900  0.75000  1.0000
  O   O14       1.0  0.76200  0.57200  0.75000  1.0000
  O   O15       1.0  0.38700  0.66100  0.75000  1.0000
  O   O16       1.0  0.74200  0.93900  0.75000  1.0000
