data_image0
_chemical_formula_structural       H6La2O24Se6
_chemical_formula_sum              "H6 La2 O24 Se6"
_cell_length_a       10.3857
_cell_length_b       10.479
_cell_length_c       5.12265
_cell_angle_alpha    90
_cell_angle_beta     90
_cell_angle_gamma    121.629

_space_group_name_H-M_alt    "P 1"
_space_group_IT_number       1

loop_
  _space_group_symop_operation_xyz
  'x, y, z'

loop_
  _atom_site_type_symbol
  _atom_site_label
  _atom_site_symmetry_multiplicity
  _atom_site_fract_x
  _atom_site_fract_y
  _atom_site_fract_z
  _atom_site_occupancy
  H   H1        1.0  0.29200  0.01880  0.25000  1.0000
  H   H2        1.0  0.84200  0.18900  0.25000  1.0000
  H   H3        1.0  0.70600  0.70900  0.25000  1.0000
  H   H4        1.0  0.29400  0.29100  0.75000  1.0000
  H   H5        1.0  0.15800  0.81100  0.75000  1.0000
  H   H6        1.0  0.70800  0.98100  0.75000  1.0000
  La  La1       1.0  0.64400  0.32300  0.25000  1.0000
  La  La2       1.0  0.35600  0.67700  0.75000  1.0000
  O   O1        1.0  0.75300  0.55800  0.00682  1.0000
  O   O2        1.0  0.40500  0.17500  0.01140  1.0000
  O   O3        1.0  0.84300  0.21800  0.01730  1.0000
  O   O4        1.0  0.56600  0.04780  0.25000  1.0000
  O   O5        1.0  0.47200  0.42800  0.25000  1.0000
  O   O6        1.0  0.93700  0.49300  0.25000  1.0000
  O   O7        1.0  0.07230  0.51500  0.25000  1.0000
  O   O8        1.0  0.50400  0.56100  0.25000  1.0000
  O   O9        1.0  0.43400  0.93000  0.25000  1.0000
  O   O10       1.0  0.84300  0.21800  0.48300  1.0000
  O   O11       1.0  0.40500  0.17500  0.48900  1.0000
  O   O12       1.0  0.75300  0.55800  0.49300  1.0000
  O   O13       1.0  0.24700  0.44200  0.50700  1.0000
  O   O14       1.0  0.59500  0.82500  0.51100  1.0000
  O   O15       1.0  0.15700  0.78200  0.51700  1.0000
  O   O16       1.0  0.56600  0.06960  0.75000  1.0000
  O   O17       1.0  0.49600  0.43900  0.75000  1.0000
  O   O18       1.0  0.92800  0.48500  0.75000  1.0000
  O   O19       1.0  0.06280  0.50700  0.75000  1.0000
  O   O20       1.0  0.52800  0.57200  0.75000  1.0000
  O   O21       1.0  0.43400  0.95200  0.75000  1.0000
  O   O22       1.0  0.15700  0.78200  0.98300  1.0000
  O   O23       1.0  0.59500  0.82500  0.98900  1.0000
  O   O24       1.0  0.24700  0.44200  0.99300  1.0000
  Se  Se1       1.0  0.13500  0.35800  0.25000  1.0000
  Se  Se2       1.0  0.70800  0.85800  0.25000  1.0000
  Se  Se3       1.0  0.13300  0.87200  0.25000  1.0000
  Se  Se4       1.0  0.86700  0.12800  0.75000  1.0000
  Se  Se5       1.0  0.29200  0.14200  0.75000  1.0000
  Se  Se6       1.0  0.86500  0.64200  0.75000  1.0000
