data_image0
_chemical_formula_structural       Ba8Sb8Te24
_chemical_formula_sum              "Ba8 Sb8 Te24"
_cell_length_a       18.3443
_cell_length_b       17.3121
_cell_length_c       4.61625
_cell_angle_alpha    90
_cell_angle_beta     90
_cell_angle_gamma    90

_space_group_name_H-M_alt    "P 1"
_space_group_IT_number       1

loop_
  _space_group_symop_operation_xyz
  'x, y, z'

loop_
  _atom_site_type_symbol
  _atom_site_label
  _atom_site_symmetry_multiplicity
  _atom_site_fract_x
  _atom_site_fract_y
  _atom_site_fract_z
  _atom_site_occupancy
  Ba  Ba1       1.0  0.91600  0.71000  0.00756  1.0000
  Ba  Ba2       1.0  0.15500  0.85400  0.01370  1.0000
  Ba  Ba3       1.0  0.84500  0.35400  0.48600  1.0000
  Ba  Ba4       1.0  0.08360  0.21000  0.49200  1.0000
  Ba  Ba5       1.0  0.58400  0.29000  0.50800  1.0000
  Ba  Ba6       1.0  0.34500  0.14600  0.51400  1.0000
  Ba  Ba7       1.0  0.65500  0.64600  0.98600  1.0000
  Ba  Ba8       1.0  0.41600  0.79000  0.99200  1.0000
  Sb  Sb1       1.0  0.77900  0.11700  0.02060  1.0000
  Sb  Sb2       1.0  0.55000  0.03170  0.02510  1.0000
  Sb  Sb3       1.0  0.45000  0.53200  0.47500  1.0000
  Sb  Sb4       1.0  0.22100  0.61700  0.47900  1.0000
  Sb  Sb5       1.0  0.72100  0.88300  0.52100  1.0000
  Sb  Sb6       1.0  0.95000  0.96800  0.52500  1.0000
  Sb  Sb7       1.0  0.05030  0.46800  0.97500  1.0000
  Sb  Sb8       1.0  0.27900  0.38300  0.97900  1.0000
  Te  Te1       1.0  0.22500  0.22500  0.00331  1.0000
  Te  Te2       1.0  0.48300  0.18400  0.01070  1.0000
  Te  Te3       1.0  0.11800  0.64700  0.01100  1.0000
  Te  Te4       1.0  0.34200  0.57000  0.02850  1.0000
  Te  Te5       1.0  0.30900  0.98700  0.03940  1.0000
  Te  Te6       1.0  0.55800  0.46200  0.05640  1.0000
  Te  Te7       1.0  0.44200  0.96200  0.44400  1.0000
  Te  Te8       1.0  0.69100  0.48700  0.46100  1.0000
  Te  Te9       1.0  0.65800  0.06960  0.47100  1.0000
  Te  Te10      1.0  0.88200  0.14700  0.48900  1.0000
  Te  Te11      1.0  0.51700  0.68400  0.48900  1.0000
  Te  Te12      1.0  0.77500  0.72500  0.49700  1.0000
  Te  Te13      1.0  0.27500  0.77500  0.50300  1.0000
  Te  Te14      1.0  0.01740  0.81600  0.51100  1.0000
  Te  Te15      1.0  0.38200  0.35300  0.51100  1.0000
  Te  Te16      1.0  0.15800  0.43000  0.52900  1.0000
  Te  Te17      1.0  0.19100  0.01320  0.53900  1.0000
  Te  Te18      1.0  0.94200  0.53800  0.55600  1.0000
  Te  Te19      1.0  0.05810  0.03830  0.94400  1.0000
  Te  Te20      1.0  0.80900  0.51300  0.96100  1.0000
  Te  Te21      1.0  0.84200  0.93000  0.97100  1.0000
  Te  Te22      1.0  0.61800  0.85300  0.98900  1.0000
  Te  Te23      1.0  0.98300  0.31600  0.98900  1.0000
  Te  Te24      1.0  0.72500  0.27500  0.99700  1.0000
