data_image0
_chemical_formula_structural       H8Hg6O22S4
_chemical_formula_sum              "H8 Hg6 O22 S4"
_cell_length_a       5.69047
_cell_length_b       5.69047
_cell_length_c       14.3891
_cell_angle_alpha    95.6096
_cell_angle_beta     95.6096
_cell_angle_gamma    103.759

_space_group_name_H-M_alt    "P 1"
_space_group_IT_number       1

loop_
  _space_group_symop_operation_xyz
  'x, y, z'

loop_
  _atom_site_type_symbol
  _atom_site_label
  _atom_site_symmetry_multiplicity
  _atom_site_fract_x
  _atom_site_fract_y
  _atom_site_fract_z
  _atom_site_occupancy
  H   H1        1.0  0.28400  0.89400  0.15200  1.0000
  H   H2        1.0  0.66500  0.14300  0.21100  1.0000
  H   H3        1.0  0.85700  0.33500  0.28900  1.0000
  H   H4        1.0  0.10600  0.71600  0.34800  1.0000
  H   H5        1.0  0.89400  0.28400  0.65200  1.0000
  H   H6        1.0  0.14300  0.66500  0.71100  1.0000
  H   H7        1.0  0.33500  0.85700  0.78900  1.0000
  H   H8        1.0  0.71600  0.10600  0.84800  1.0000
  Hg  Hg1       1.0  0.50000  0.00000  0.00000  1.0000
  Hg  Hg2       1.0  0.18000  0.30900  0.15300  1.0000
  Hg  Hg3       1.0  0.69100  0.82000  0.34700  1.0000
  Hg  Hg4       1.0  0.00000  0.50000  0.50000  1.0000
  Hg  Hg5       1.0  0.30900  0.18000  0.65300  1.0000
  Hg  Hg6       1.0  0.82000  0.69100  0.84700  1.0000
  O   O1        1.0  0.75200  0.42300  0.02960  1.0000
  O   O2        1.0  0.85800  0.86500  0.06210  1.0000
  O   O3        1.0  0.39400  0.05240  0.14100  1.0000
  O   O4        1.0  0.05700  0.63800  0.16200  1.0000
  O   O5        1.0  0.62400  0.61800  0.16800  1.0000
  O   O6        1.0  0.82800  0.17200  0.25000  1.0000
  O   O7        1.0  0.38200  0.37600  0.33200  1.0000
  O   O8        1.0  0.36200  0.94300  0.33800  1.0000
  O   O9        1.0  0.94800  0.60600  0.35900  1.0000
  O   O10       1.0  0.13500  0.14200  0.43800  1.0000
  O   O11       1.0  0.57700  0.24800  0.47000  1.0000
  O   O12       1.0  0.42300  0.75200  0.53000  1.0000
  O   O13       1.0  0.86500  0.85800  0.56200  1.0000
  O   O14       1.0  0.05240  0.39400  0.64100  1.0000
  O   O15       1.0  0.63800  0.05700  0.66200  1.0000
  O   O16       1.0  0.61800  0.62400  0.66800  1.0000
  O   O17       1.0  0.17200  0.82800  0.75000  1.0000
  O   O18       1.0  0.37600  0.38200  0.83200  1.0000
  O   O19       1.0  0.94300  0.36200  0.83800  1.0000
  O   O20       1.0  0.60600  0.94800  0.85900  1.0000
  O   O21       1.0  0.14200  0.13500  0.93800  1.0000
  O   O22       1.0  0.24800  0.57700  0.97000  1.0000
  S   S1        1.0  0.81100  0.63200  0.10400  1.0000
  S   S2        1.0  0.36800  0.18900  0.39600  1.0000
  S   S3        1.0  0.63200  0.81100  0.60400  1.0000
  S   S4        1.0  0.18900  0.36800  0.89600  1.0000
