data_image0
_chemical_formula_structural       Cr2NdSi2
_chemical_formula_sum              "Cr2 Nd1 Si2"
_cell_length_a       3.92961
_cell_length_b       3.92961
_cell_length_c       6.07954
_cell_angle_alpha    108.856
_cell_angle_beta     108.856
_cell_angle_gamma    90

_space_group_name_H-M_alt    "P 1"
_space_group_IT_number       1

loop_
  _space_group_symop_operation_xyz
  'x, y, z'

loop_
  _atom_site_type_symbol
  _atom_site_label
  _atom_site_symmetry_multiplicity
  _atom_site_fract_x
  _atom_site_fract_y
  _atom_site_fract_z
  _atom_site_occupancy
  Cr  Cr1       1.0  0.75000  0.25000  0.50000  1.0000
  Cr  Cr2       1.0  0.25000  0.75000  0.50000  1.0000
  Nd  Nd1       1.0  0.00000  0.00000  0.00000  1.0000
  Si  Si1       1.0  0.61900  0.61900  0.23900  1.0000
  Si  Si2       1.0  0.38100  0.38100  0.76100  1.0000
