data_image0
_chemical_formula_structural       Cl4N20S16
_chemical_formula_sum              "Cl4 N20 S16"
_cell_length_a       17.4253
_cell_length_b       7.78353
_cell_length_c       4.80152
_cell_angle_alpha    90
_cell_angle_beta     90
_cell_angle_gamma    90

_space_group_name_H-M_alt    "P 1"
_space_group_IT_number       1

loop_
  _space_group_symop_operation_xyz
  'x, y, z'

loop_
  _atom_site_type_symbol
  _atom_site_label
  _atom_site_symmetry_multiplicity
  _atom_site_fract_x
  _atom_site_fract_y
  _atom_site_fract_z
  _atom_site_occupancy
  Cl  Cl1       1.0  0.36900  0.25000  0.07470  1.0000
  Cl  Cl2       1.0  0.86900  0.25000  0.42500  1.0000
  Cl  Cl3       1.0  0.13100  0.75000  0.57500  1.0000
  Cl  Cl4       1.0  0.63100  0.75000  0.92500  1.0000
  N   N1        1.0  0.36900  0.75000  0.12200  1.0000
  N   N2        1.0  0.19600  0.08140  0.19700  1.0000
  N   N3        1.0  0.19600  0.41900  0.19700  1.0000
  N   N4        1.0  0.54200  0.08400  0.24800  1.0000
  N   N5        1.0  0.54200  0.41600  0.24800  1.0000
  N   N6        1.0  0.04200  0.08400  0.25200  1.0000
  N   N7        1.0  0.04200  0.41600  0.25200  1.0000
  N   N8        1.0  0.69600  0.08140  0.30300  1.0000
  N   N9        1.0  0.69600  0.41900  0.30300  1.0000
  N   N10       1.0  0.86900  0.75000  0.37800  1.0000
  N   N11       1.0  0.13100  0.25000  0.62200  1.0000
  N   N12       1.0  0.30400  0.58100  0.69700  1.0000
  N   N13       1.0  0.30400  0.91900  0.69700  1.0000
  N   N14       1.0  0.95800  0.58400  0.74800  1.0000
  N   N15       1.0  0.95800  0.91600  0.74800  1.0000
  N   N16       1.0  0.45800  0.58400  0.75200  1.0000
  N   N17       1.0  0.45800  0.91600  0.75200  1.0000
  N   N18       1.0  0.80400  0.58100  0.80300  1.0000
  N   N19       1.0  0.80400  0.91900  0.80300  1.0000
  N   N20       1.0  0.63100  0.25000  0.87800  1.0000
  S   S1        1.0  0.54700  0.25000  0.02240  1.0000
  S   S2        1.0  0.70600  0.25000  0.08740  1.0000
  S   S3        1.0  0.11700  0.51100  0.15900  1.0000
  S   S4        1.0  0.11700  0.98900  0.15900  1.0000
  S   S5        1.0  0.61700  0.51100  0.34100  1.0000
  S   S6        1.0  0.61700  0.98900  0.34100  1.0000
  S   S7        1.0  0.20600  0.25000  0.41300  1.0000
  S   S8        1.0  0.04710  0.25000  0.47800  1.0000
  S   S9        1.0  0.95300  0.75000  0.52200  1.0000
  S   S10       1.0  0.79400  0.75000  0.58700  1.0000
  S   S11       1.0  0.38300  0.01140  0.65900  1.0000
  S   S12       1.0  0.38300  0.48900  0.65900  1.0000
  S   S13       1.0  0.88300  0.01140  0.84100  1.0000
  S   S14       1.0  0.88300  0.48900  0.84100  1.0000
  S   S15       1.0  0.29400  0.75000  0.91300  1.0000
  S   S16       1.0  0.45300  0.75000  0.97800  1.0000
