data_image0
_chemical_formula_structural       F8Mg12O16Si4
_chemical_formula_sum              "F8 Mg12 O16 Si4"
_cell_length_a       4.6865
_cell_length_b       10.1728
_cell_length_c       8.65925
_cell_angle_alpha    90
_cell_angle_beta     90
_cell_angle_gamma    90

_space_group_name_H-M_alt    "P 1"
_space_group_IT_number       1

loop_
  _space_group_symop_operation_xyz
  'x, y, z'

loop_
  _atom_site_type_symbol
  _atom_site_label
  _atom_site_symmetry_multiplicity
  _atom_site_fract_x
  _atom_site_fract_y
  _atom_site_fract_z
  _atom_site_occupancy
  F   F1        1.0  0.77000  0.46700  0.08410  1.0000
  F   F2        1.0  0.73000  0.96700  0.08410  1.0000
  F   F3        1.0  0.77000  0.46700  0.41600  1.0000
  F   F4        1.0  0.73000  0.96700  0.41600  1.0000
  F   F5        1.0  0.27000  0.03300  0.58400  1.0000
  F   F6        1.0  0.23000  0.53300  0.58400  1.0000
  F   F7        1.0  0.27000  0.03300  0.91600  1.0000
  F   F8        1.0  0.23000  0.53300  0.91600  1.0000
  Mg  Mg1       1.0  0.50900  0.13200  0.07000  1.0000
  Mg  Mg2       1.0  0.99100  0.63200  0.07000  1.0000
  Mg  Mg3       1.0  0.50600  0.40600  0.25000  1.0000
  Mg  Mg4       1.0  0.99400  0.90600  0.25000  1.0000
  Mg  Mg5       1.0  0.50900  0.13200  0.43000  1.0000
  Mg  Mg6       1.0  0.99100  0.63200  0.43000  1.0000
  Mg  Mg7       1.0  0.00885  0.36800  0.57000  1.0000
  Mg  Mg8       1.0  0.49100  0.86800  0.57000  1.0000
  Mg  Mg9       1.0  0.00614  0.09400  0.75000  1.0000
  Mg  Mg10      1.0  0.49400  0.59400  0.75000  1.0000
  Mg  Mg11      1.0  0.00885  0.36800  0.93000  1.0000
  Mg  Mg12      1.0  0.49100  0.86800  0.93000  1.0000
  O   O1        1.0  0.23400  0.29200  0.10200  1.0000
  O   O2        1.0  0.26600  0.79200  0.10200  1.0000
  O   O3        1.0  0.22500  0.07220  0.25000  1.0000
  O   O4        1.0  0.73400  0.22100  0.25000  1.0000
  O   O5        1.0  0.27500  0.57200  0.25000  1.0000
  O   O6        1.0  0.76600  0.72100  0.25000  1.0000
  O   O7        1.0  0.23400  0.29200  0.39800  1.0000
  O   O8        1.0  0.26600  0.79200  0.39800  1.0000
  O   O9        1.0  0.73400  0.20800  0.60200  1.0000
  O   O10       1.0  0.76600  0.70800  0.60200  1.0000
  O   O11       1.0  0.23400  0.27900  0.75000  1.0000
  O   O12       1.0  0.72500  0.42800  0.75000  1.0000
  O   O13       1.0  0.26600  0.77900  0.75000  1.0000
  O   O14       1.0  0.77500  0.92800  0.75000  1.0000
  O   O15       1.0  0.73400  0.20800  0.89800  1.0000
  O   O16       1.0  0.76600  0.70800  0.89800  1.0000
  Si  Si1       1.0  0.07970  0.22000  0.25000  1.0000
  Si  Si2       1.0  0.42000  0.72000  0.25000  1.0000
  Si  Si3       1.0  0.58000  0.28000  0.75000  1.0000
  Si  Si4       1.0  0.92000  0.78000  0.75000  1.0000
