data_image0
_chemical_formula_structural       Ba8CoNb6O24
_chemical_formula_sum              "Ba8 Co1 Nb6 O24"
_cell_length_a       5.80916
_cell_length_b       5.8113
_cell_length_c       18.96
_cell_angle_alpha    90.0148
_cell_angle_beta     89.9722
_cell_angle_gamma    119.96

_space_group_name_H-M_alt    "P 1"
_space_group_IT_number       1

loop_
  _space_group_symop_operation_xyz
  'x, y, z'

loop_
  _atom_site_type_symbol
  _atom_site_label
  _atom_site_symmetry_multiplicity
  _atom_site_fract_x
  _atom_site_fract_y
  _atom_site_fract_z
  _atom_site_occupancy
  Ba  Ba1       1.0  0.33300  0.66800  0.06130  1.0000
  Ba  Ba2       1.0  0.00000  0.00014  0.18600  1.0000
  Ba  Ba3       1.0  0.66700  0.33300  0.31800  1.0000
  Ba  Ba4       1.0  0.33300  0.66700  0.45600  1.0000
  Ba  Ba5       1.0  0.66700  0.33300  0.54400  1.0000
  Ba  Ba6       1.0  0.33300  0.66700  0.68200  1.0000
  Ba  Ba7       1.0  1.00000  1.00000  0.81400  1.0000
  Ba  Ba8       1.0  0.66700  0.33200  0.93900  1.0000
  Co  Co1       1.0  0.00000  0.00000  0.00000  1.0000
  Nb  Nb1       1.0  0.66700  0.33400  0.12100  1.0000
  Nb  Nb2       1.0  0.33300  0.66700  0.25400  1.0000
  Nb  Nb3       1.0  0.00000  0.00000  0.38600  1.0000
  Nb  Nb4       1.0  0.00000  0.00000  0.61400  1.0000
  Nb  Nb5       1.0  0.66700  0.33300  0.74600  1.0000
  Nb  Nb6       1.0  0.33300  0.66600  0.87900  1.0000
  O   O1        1.0  0.82900  0.17000  0.06470  1.0000
  O   O2        1.0  0.34200  0.17000  0.06490  1.0000
  O   O3        1.0  0.83000  0.65800  0.06490  1.0000
  O   O4        1.0  0.49900  0.50100  0.18700  1.0000
  O   O5        1.0  0.00234  0.50100  0.18700  1.0000
  O   O6        1.0  0.49900  0.99800  0.18700  1.0000
  O   O7        1.0  0.16800  0.33500  0.30800  1.0000
  O   O8        1.0  0.66500  0.83200  0.30800  1.0000
  O   O9        1.0  0.16800  0.83200  0.30800  1.0000
  O   O10       1.0  0.33200  0.16600  0.43000  1.0000
  O   O11       1.0  0.83400  0.66900  0.43000  1.0000
  O   O12       1.0  0.83400  0.16600  0.43000  1.0000
  O   O13       1.0  0.16600  0.83400  0.57000  1.0000
  O   O14       1.0  0.16600  0.33100  0.57000  1.0000
  O   O15       1.0  0.66800  0.83400  0.57000  1.0000
  O   O16       1.0  0.83200  0.16800  0.69200  1.0000
  O   O17       1.0  0.33500  0.16800  0.69200  1.0000
  O   O18       1.0  0.83200  0.66500  0.69200  1.0000
  O   O19       1.0  0.50100  0.00240  0.81300  1.0000
  O   O20       1.0  0.99800  0.49900  0.81300  1.0000
  O   O21       1.0  0.50100  0.49900  0.81300  1.0000
  O   O22       1.0  0.17000  0.34200  0.93500  1.0000
  O   O23       1.0  0.65800  0.83000  0.93500  1.0000
  O   O24       1.0  0.17100  0.83000  0.93500  1.0000
