data_image0
_chemical_formula_structural       CeIrSi3
_chemical_formula_sum              "Ce1 Ir1 Si3"
_cell_length_a       4.29726
_cell_length_b       4.29726
_cell_length_c       5.8003
_cell_angle_alpha    111.742
_cell_angle_beta     111.742
_cell_angle_gamma    90

_space_group_name_H-M_alt    "P 1"
_space_group_IT_number       1

loop_
  _space_group_symop_operation_xyz
  'x, y, z'

loop_
  _atom_site_type_symbol
  _atom_site_label
  _atom_site_symmetry_multiplicity
  _atom_site_fract_x
  _atom_site_fract_y
  _atom_site_fract_z
  _atom_site_occupancy
  Ce  Ce1       1.0  0.00291  0.00291  0.00582  1.0000
  Ir  Ir1       1.0  0.65800  0.65800  0.31600  1.0000
  Si  Si1       1.0  0.76600  0.26600  0.53200  1.0000
  Si  Si2       1.0  0.26600  0.76600  0.53200  1.0000
  Si  Si3       1.0  0.41600  0.41600  0.83200  1.0000
