data_image0
_chemical_formula_structural       Br12N12S16
_chemical_formula_sum              "Br12 N12 S16"
_cell_length_a       6.14237
_cell_length_b       8.85135
_cell_length_c       18.0929
_cell_angle_alpha    90
_cell_angle_beta     91.2698
_cell_angle_gamma    90

_space_group_name_H-M_alt    "P 1"
_space_group_IT_number       1

loop_
  _space_group_symop_operation_xyz
  'x, y, z'

loop_
  _atom_site_type_symbol
  _atom_site_label
  _atom_site_symmetry_multiplicity
  _atom_site_fract_x
  _atom_site_fract_y
  _atom_site_fract_z
  _atom_site_occupancy
  Br  Br1       1.0  0.92300  0.02070  0.10300  1.0000
  Br  Br2       1.0  0.21700  0.21000  0.12600  1.0000
  Br  Br3       1.0  0.52700  0.41300  0.15000  1.0000
  Br  Br4       1.0  0.47300  0.91300  0.35000  1.0000
  Br  Br5       1.0  0.78300  0.71000  0.37400  1.0000
  Br  Br6       1.0  0.07700  0.52100  0.39700  1.0000
  Br  Br7       1.0  0.92300  0.47900  0.60300  1.0000
  Br  Br8       1.0  0.21700  0.29000  0.62600  1.0000
  Br  Br9       1.0  0.52700  0.08710  0.65000  1.0000
  Br  Br10      1.0  0.47300  0.58700  0.85000  1.0000
  Br  Br11      1.0  0.78300  0.79000  0.87400  1.0000
  Br  Br12      1.0  0.07700  0.97900  0.89700  1.0000
  N   N1        1.0  0.15800  0.64700  0.03420  1.0000
  N   N2        1.0  0.47100  0.81300  0.09970  1.0000
  N   N3        1.0  0.05430  0.65200  0.17800  1.0000
  N   N4        1.0  0.94600  0.15200  0.32200  1.0000
  N   N5        1.0  0.52900  0.31300  0.40000  1.0000
  N   N6        1.0  0.84200  0.14700  0.46600  1.0000
  N   N7        1.0  0.15800  0.85300  0.53400  1.0000
  N   N8        1.0  0.47100  0.68700  0.60000  1.0000
  N   N9        1.0  0.05430  0.84800  0.67800  1.0000
  N   N10       1.0  0.94600  0.34800  0.82200  1.0000
  N   N11       1.0  0.52900  0.18700  0.90000  1.0000
  N   N12       1.0  0.84200  0.35300  0.96600  1.0000
  S   S1        1.0  0.37200  0.74500  0.02750  1.0000
  S   S2        1.0  0.00121  0.59800  0.09840  1.0000
  S   S3        1.0  0.46900  0.84500  0.18500  1.0000
  S   S4        1.0  0.20000  0.74000  0.23600  1.0000
  S   S5        1.0  0.80000  0.24000  0.26400  1.0000
  S   S6        1.0  0.53100  0.34500  0.31500  1.0000
  S   S7        1.0  0.99900  0.09760  0.40200  1.0000
  S   S8        1.0  0.62800  0.24500  0.47300  1.0000
  S   S9        1.0  0.37200  0.75500  0.52700  1.0000
  S   S10       1.0  0.00121  0.90200  0.59800  1.0000
  S   S11       1.0  0.46900  0.65500  0.68500  1.0000
  S   S12       1.0  0.20000  0.76000  0.73600  1.0000
  S   S13       1.0  0.80000  0.26000  0.76400  1.0000
  S   S14       1.0  0.53100  0.15500  0.81500  1.0000
  S   S15       1.0  0.99900  0.40200  0.90200  1.0000
  S   S16       1.0  0.62800  0.25500  0.97300  1.0000
