data_image0
_chemical_formula_structural       O14P4Si2
_chemical_formula_sum              "O14 P4 Si2"
_cell_length_a       4.65872
_cell_length_b       4.6587
_cell_length_c       12.0064
_cell_angle_alpha    90
_cell_angle_beta     90
_cell_angle_gamma    120.005

_space_group_name_H-M_alt    "P 1"
_space_group_IT_number       1

loop_
  _space_group_symop_operation_xyz
  'x, y, z'

loop_
  _atom_site_type_symbol
  _atom_site_label
  _atom_site_symmetry_multiplicity
  _atom_site_fract_x
  _atom_site_fract_y
  _atom_site_fract_z
  _atom_site_occupancy
  O   O1        1.0  0.72100  0.67200  0.09720  1.0000
  O   O2        1.0  0.95100  0.27900  0.09720  1.0000
  O   O3        1.0  0.32800  0.04920  0.09720  1.0000
  O   O4        1.0  0.66700  0.33300  0.26000  1.0000
  O   O5        1.0  0.95100  0.28000  0.42400  1.0000
  O   O6        1.0  0.32800  0.04880  0.42400  1.0000
  O   O7        1.0  0.72000  0.67200  0.42400  1.0000
  O   O8        1.0  0.27900  0.32800  0.59700  1.0000
  O   O9        1.0  0.04910  0.72100  0.59700  1.0000
  O   O10       1.0  0.67200  0.95100  0.59700  1.0000
  O   O11       1.0  0.33300  0.66700  0.76000  1.0000
  O   O12       1.0  0.04870  0.72000  0.92400  1.0000
  O   O13       1.0  0.67200  0.95100  0.92400  1.0000
  O   O14       1.0  0.28000  0.32800  0.92400  1.0000
  P   P1        1.0  0.66700  0.33300  0.13100  1.0000
  P   P2        1.0  0.66700  0.33300  0.39000  1.0000
  P   P3        1.0  0.33300  0.66700  0.63100  1.0000
  P   P4        1.0  0.33300  0.66700  0.89000  1.0000
  Si  Si1       1.0  0.00000  0.00000  0.01040  1.0000
  Si  Si2       1.0  1.00000  0.00000  0.51000  1.0000
