data_image0
_chemical_formula_structural       Al10Na2O24Ti4
_chemical_formula_sum              "Al10 Na2 O24 Ti4"
_cell_length_a       9.08508
_cell_length_b       15.3111
_cell_length_c       2.92076
_cell_angle_alpha    90
_cell_angle_beta     90
_cell_angle_gamma    90

_space_group_name_H-M_alt    "P 1"
_space_group_IT_number       1

loop_
  _space_group_symop_operation_xyz
  'x, y, z'

loop_
  _atom_site_type_symbol
  _atom_site_label
  _atom_site_symmetry_multiplicity
  _atom_site_fract_x
  _atom_site_fract_y
  _atom_site_fract_z
  _atom_site_occupancy
  Al  Al1       1.0  0.00000  0.00000  0.00000  1.0000
  Al  Al2       1.0  0.51500  0.19700  0.00000  1.0000
  Al  Al3       1.0  0.01470  0.30300  0.00000  1.0000
  Al  Al4       1.0  0.50000  0.50000  0.00000  1.0000
  Al  Al5       1.0  0.98500  0.69700  0.00000  1.0000
  Al  Al6       1.0  0.48500  0.80300  0.00000  1.0000
  Al  Al7       1.0  0.81300  0.14700  0.50000  1.0000
  Al  Al8       1.0  0.31300  0.35300  0.50000  1.0000
  Al  Al9       1.0  0.68700  0.64700  0.50000  1.0000
  Al  Al10      1.0  0.18700  0.85300  0.50000  1.0000
  Na  Na1       1.0  0.50000  0.00000  0.50000  1.0000
  Na  Na2       1.0  0.00000  0.50000  0.50000  1.0000
  O   O1        1.0  0.86900  0.09420  0.00000  1.0000
  O   O2        1.0  0.37100  0.10300  0.00000  1.0000
  O   O3        1.0  0.14300  0.20700  0.00000  1.0000
  O   O4        1.0  0.64300  0.29300  0.00000  1.0000
  O   O5        1.0  0.87100  0.39700  0.00000  1.0000
  O   O6        1.0  0.36900  0.40600  0.00000  1.0000
  O   O7        1.0  0.63100  0.59400  0.00000  1.0000
  O   O8        1.0  0.12900  0.60300  0.00000  1.0000
  O   O9        1.0  0.35700  0.70700  0.00000  1.0000
  O   O10       1.0  0.85700  0.79300  0.00000  1.0000
  O   O11       1.0  0.62900  0.89700  0.00000  1.0000
  O   O12       1.0  0.13100  0.90600  0.00000  1.0000
  O   O13       1.0  0.10800  0.05020  0.50000  1.0000
  O   O14       1.0  0.61700  0.14500  0.50000  1.0000
  O   O15       1.0  0.39700  0.24700  0.50000  1.0000
  O   O16       1.0  0.89700  0.25300  0.50000  1.0000
  O   O17       1.0  0.11700  0.35500  0.50000  1.0000
  O   O18       1.0  0.60800  0.45000  0.50000  1.0000
  O   O19       1.0  0.39200  0.55000  0.50000  1.0000
  O   O20       1.0  0.88300  0.64500  0.50000  1.0000
  O   O21       1.0  0.10300  0.74700  0.50000  1.0000
  O   O22       1.0  0.60300  0.75300  0.50000  1.0000
  O   O23       1.0  0.38300  0.85500  0.50000  1.0000
  O   O24       1.0  0.89200  0.95000  0.50000  1.0000
  Ti  Ti1       1.0  0.23500  0.14300  0.50000  1.0000
  Ti  Ti2       1.0  0.73500  0.35700  0.50000  1.0000
  Ti  Ti3       1.0  0.26500  0.64300  0.50000  1.0000
  Ti  Ti4       1.0  0.76500  0.85700  0.50000  1.0000
