data_image0
_chemical_formula_structural       ClO3Rb
_chemical_formula_sum              "Cl1 O3 Rb1"
_cell_length_a       4.38027
_cell_length_b       4.38027
_cell_length_c       4.38027
_cell_angle_alpha    93.0592
_cell_angle_beta     93.0592
_cell_angle_gamma    86.9408

_space_group_name_H-M_alt    "P 1"
_space_group_IT_number       1

loop_
  _space_group_symop_operation_xyz
  'x, y, z'

loop_
  _atom_site_type_symbol
  _atom_site_label
  _atom_site_symmetry_multiplicity
  _atom_site_fract_x
  _atom_site_fract_y
  _atom_site_fract_z
  _atom_site_occupancy
  Cl  Cl1       1.0  0.53100  0.53100  0.46900  1.0000
  O   O1        1.0  0.46900  0.46900  0.13000  1.0000
  O   O2        1.0  0.46900  0.87000  0.53100  1.0000
  O   O3        1.0  0.87000  0.46900  0.53100  1.0000
  Rb  Rb1       1.0  0.00007  0.00007  0.00000  1.0000
