data_image0
_chemical_formula_structural       MoNi4
_chemical_formula_sum              "Mo1 Ni4"
_cell_length_a       3.56148
_cell_length_b       4.40561
_cell_length_c       4.40561
_cell_angle_alpha    99.4029
_cell_angle_beta     66.1592
_cell_angle_gamma    113.841

_space_group_name_H-M_alt    "P 1"
_space_group_IT_number       1

loop_
  _space_group_symop_operation_xyz
  'x, y, z'

loop_
  _atom_site_type_symbol
  _atom_site_label
  _atom_site_symmetry_multiplicity
  _atom_site_fract_x
  _atom_site_fract_y
  _atom_site_fract_z
  _atom_site_occupancy
  Mo  Mo1       1.0  0.00000  0.00000  0.00000  1.0000
  Ni  Ni1       1.0  0.60000  0.40100  0.20100  1.0000
  Ni  Ni2       1.0  0.19900  0.79900  0.40100  1.0000
  Ni  Ni3       1.0  0.80100  0.20100  0.59900  1.0000
  Ni  Ni4       1.0  0.40000  0.59900  0.79900  1.0000
