data_image0
_chemical_formula_structural       As2CeLi2
_chemical_formula_sum              "As2 Ce1 Li2"
_cell_length_a       4.31331
_cell_length_b       4.31315
_cell_length_c       7.02181
_cell_angle_alpha    90.003
_cell_angle_beta     90
_cell_angle_gamma    120.001

_space_group_name_H-M_alt    "P 1"
_space_group_IT_number       1

loop_
  _space_group_symop_operation_xyz
  'x, y, z'

loop_
  _atom_site_type_symbol
  _atom_site_label
  _atom_site_symmetry_multiplicity
  _atom_site_fract_x
  _atom_site_fract_y
  _atom_site_fract_z
  _atom_site_occupancy
  As  As1       1.0  0.33300  0.66700  0.24900  1.0000
  As  As2       1.0  0.66700  0.33300  0.75100  1.0000
  Ce  Ce1       1.0  0.00000  0.00000  0.00000  1.0000
  Li  Li1       1.0  0.66700  0.33300  0.37600  1.0000
  Li  Li2       1.0  0.33300  0.66700  0.62400  1.0000
