data_image0
_chemical_formula_structural       Au24Na8Si8
_chemical_formula_sum              "Au24 Na8 Si8"
_cell_length_a       9.04353
_cell_length_b       9.04353
_cell_length_c       9.04353
_cell_angle_alpha    90
_cell_angle_beta     90
_cell_angle_gamma    90

_space_group_name_H-M_alt    "P 1"
_space_group_IT_number       1

loop_
  _space_group_symop_operation_xyz
  'x, y, z'

loop_
  _atom_site_type_symbol
  _atom_site_label
  _atom_site_symmetry_multiplicity
  _atom_site_fract_x
  _atom_site_fract_y
  _atom_site_fract_z
  _atom_site_occupancy
  Au  Au1       1.0  0.72700  0.12900  0.09330  1.0000
  Au  Au2       1.0  0.77300  0.62900  0.09330  1.0000
  Au  Au3       1.0  0.40700  0.22700  0.12900  1.0000
  Au  Au4       1.0  0.09330  0.72700  0.12900  1.0000
  Au  Au5       1.0  0.12900  0.40700  0.22700  1.0000
  Au  Au6       1.0  0.37100  0.90700  0.22700  1.0000
  Au  Au7       1.0  0.62900  0.40700  0.27300  1.0000
  Au  Au8       1.0  0.87100  0.90700  0.27300  1.0000
  Au  Au9       1.0  0.90700  0.22700  0.37100  1.0000
  Au  Au10      1.0  0.59300  0.72700  0.37100  1.0000
  Au  Au11      1.0  0.22700  0.12900  0.40700  1.0000
  Au  Au12      1.0  0.27300  0.62900  0.40700  1.0000
  Au  Au13      1.0  0.72700  0.37100  0.59300  1.0000
  Au  Au14      1.0  0.77300  0.87100  0.59300  1.0000
  Au  Au15      1.0  0.40700  0.27300  0.62900  1.0000
  Au  Au16      1.0  0.09330  0.77300  0.62900  1.0000
  Au  Au17      1.0  0.12900  0.09330  0.72700  1.0000
  Au  Au18      1.0  0.37100  0.59300  0.72700  1.0000
  Au  Au19      1.0  0.62900  0.09330  0.77300  1.0000
  Au  Au20      1.0  0.87100  0.59300  0.77300  1.0000
  Au  Au21      1.0  0.90700  0.27300  0.87100  1.0000
  Au  Au22      1.0  0.59300  0.77300  0.87100  1.0000
  Au  Au23      1.0  0.22700  0.37100  0.90700  1.0000
  Au  Au24      1.0  0.27300  0.87100  0.90700  1.0000
  Na  Na1       1.0  0.09710  0.09710  0.09710  1.0000
  Na  Na2       1.0  0.40300  0.59700  0.09710  1.0000
  Na  Na3       1.0  0.59700  0.09710  0.40300  1.0000
  Na  Na4       1.0  0.90300  0.59700  0.40300  1.0000
  Na  Na5       1.0  0.09710  0.40300  0.59700  1.0000
  Na  Na6       1.0  0.40300  0.90300  0.59700  1.0000
  Na  Na7       1.0  0.59700  0.40300  0.90300  1.0000
  Na  Na8       1.0  0.90300  0.90300  0.90300  1.0000
  Si  Si1       1.0  0.87600  0.37600  0.12400  1.0000
  Si  Si2       1.0  0.62400  0.87600  0.12400  1.0000
  Si  Si3       1.0  0.37600  0.37600  0.37600  1.0000
  Si  Si4       1.0  0.12400  0.87600  0.37600  1.0000
  Si  Si5       1.0  0.87600  0.12400  0.62400  1.0000
  Si  Si6       1.0  0.62400  0.62400  0.62400  1.0000
  Si  Si7       1.0  0.37600  0.12400  0.87600  1.0000
  Si  Si8       1.0  0.12400  0.62400  0.87600  1.0000
