data_image0
_chemical_formula_structural       Ag8O24P8
_chemical_formula_sum              "Ag8 O24 P8"
_cell_length_a       11.8186
_cell_length_b       6.01703
_cell_length_c       7.30776
_cell_angle_alpha    90
_cell_angle_beta     94.1321
_cell_angle_gamma    90

_space_group_name_H-M_alt    "P 1"
_space_group_IT_number       1

loop_
  _space_group_symop_operation_xyz
  'x, y, z'

loop_
  _atom_site_type_symbol
  _atom_site_label
  _atom_site_symmetry_multiplicity
  _atom_site_fract_x
  _atom_site_fract_y
  _atom_site_fract_z
  _atom_site_occupancy
  Ag  Ag1       1.0  0.62400  0.17300  0.10900  1.0000
  Ag  Ag2       1.0  0.96400  0.09160  0.23400  1.0000
  Ag  Ag3       1.0  0.53600  0.59200  0.26600  1.0000
  Ag  Ag4       1.0  0.87600  0.67300  0.39100  1.0000
  Ag  Ag5       1.0  0.12400  0.32700  0.60900  1.0000
  Ag  Ag6       1.0  0.46400  0.40800  0.73400  1.0000
  Ag  Ag7       1.0  0.03640  0.90800  0.76600  1.0000
  Ag  Ag8       1.0  0.37600  0.82700  0.89100  1.0000
  O   O1        1.0  0.37600  0.45100  0.01170  1.0000
  O   O2        1.0  0.16000  0.46100  0.01920  1.0000
  O   O3        1.0  0.05360  0.80500  0.07550  1.0000
  O   O4        1.0  0.75300  0.85800  0.13600  1.0000
  O   O5        1.0  0.45600  0.97400  0.19900  1.0000
  O   O6        1.0  0.27200  0.19100  0.21400  1.0000
  O   O7        1.0  0.22800  0.69100  0.28600  1.0000
  O   O8        1.0  0.04360  0.47400  0.30100  1.0000
  O   O9        1.0  0.74700  0.35800  0.36400  1.0000
  O   O10       1.0  0.44600  0.30500  0.42500  1.0000
  O   O11       1.0  0.34000  0.96100  0.48100  1.0000
  O   O12       1.0  0.12400  0.95100  0.48800  1.0000
  O   O13       1.0  0.87600  0.04890  0.51200  1.0000
  O   O14       1.0  0.66000  0.03950  0.51900  1.0000
  O   O15       1.0  0.55400  0.69500  0.57500  1.0000
  O   O16       1.0  0.25300  0.64200  0.63600  1.0000
  O   O17       1.0  0.95600  0.52600  0.69900  1.0000
  O   O18       1.0  0.77200  0.30900  0.71400  1.0000
  O   O19       1.0  0.72800  0.80900  0.78600  1.0000
  O   O20       1.0  0.54400  0.02630  0.80100  1.0000
  O   O21       1.0  0.24700  0.14200  0.86400  1.0000
  O   O22       1.0  0.94600  0.19500  0.92500  1.0000
  O   O23       1.0  0.84000  0.53900  0.98100  1.0000
  O   O24       1.0  0.62400  0.54900  0.98800  1.0000
  P   P1        1.0  0.27100  0.30800  0.01440  1.0000
  P   P2        1.0  0.11000  0.61300  0.17400  1.0000
  P   P3        1.0  0.39000  0.11300  0.32600  1.0000
  P   P4        1.0  0.22900  0.80800  0.48600  1.0000
  P   P5        1.0  0.77100  0.19200  0.51400  1.0000
  P   P6        1.0  0.61000  0.88700  0.67400  1.0000
  P   P7        1.0  0.89000  0.38700  0.82600  1.0000
  P   P8        1.0  0.72900  0.69200  0.98600  1.0000
