data_image0
_chemical_formula_structural       Bi2CaMg2
_chemical_formula_sum              "Bi2 Ca1 Mg2"
_cell_length_a       4.76357
_cell_length_b       4.76382
_cell_length_c       7.68731
_cell_angle_alpha    90
_cell_angle_beta     89.9981
_cell_angle_gamma    120.002

_space_group_name_H-M_alt    "P 1"
_space_group_IT_number       1

loop_
  _space_group_symop_operation_xyz
  'x, y, z'

loop_
  _atom_site_type_symbol
  _atom_site_label
  _atom_site_symmetry_multiplicity
  _atom_site_fract_x
  _atom_site_fract_y
  _atom_site_fract_z
  _atom_site_occupancy
  Bi  Bi1       1.0  0.33300  0.66700  0.24000  1.0000
  Bi  Bi2       1.0  0.66700  0.33300  0.76000  1.0000
  Ca  Ca1       1.0  0.00000  0.00000  0.00000  1.0000
  Mg  Mg1       1.0  0.66700  0.33300  0.37000  1.0000
  Mg  Mg2       1.0  0.33300  0.66700  0.63000  1.0000
