data_image0
_chemical_formula_structural       Hf4I16
_chemical_formula_sum              "Hf4 I16"
_cell_length_a       7.86954
_cell_length_b       7.99402
_cell_length_c       16.1226
_cell_angle_alpha    86.0134
_cell_angle_beta     92.111
_cell_angle_gamma    92.0303

_space_group_name_H-M_alt    "P 1"
_space_group_IT_number       1

loop_
  _space_group_symop_operation_xyz
  'x, y, z'

loop_
  _atom_site_type_symbol
  _atom_site_label
  _atom_site_symmetry_multiplicity
  _atom_site_fract_x
  _atom_site_fract_y
  _atom_site_fract_z
  _atom_site_occupancy
  Hf  Hf1       1.0  0.12000  0.86800  0.11400  1.0000
  Hf  Hf2       1.0  0.88000  0.13200  0.88600  1.0000
  Hf  Hf3       1.0  0.35900  0.13100  0.31200  1.0000
  Hf  Hf4       1.0  0.64100  0.86900  0.68800  1.0000
  I   I1        1.0  0.65500  0.31500  0.30700  1.0000
  I   I2        1.0  0.34500  0.68500  0.69300  1.0000
  I   I3        1.0  0.30300  0.20500  0.13700  1.0000
  I   I4        1.0  0.69700  0.79500  0.86300  1.0000
  I   I5        1.0  0.03810  0.91500  0.28200  1.0000
  I   I6        1.0  0.96200  0.08520  0.71800  1.0000
  I   I7        1.0  0.92000  0.58700  0.10900  1.0000
  I   I8        1.0  0.07990  0.41300  0.89100  1.0000
  I   I9        1.0  0.18300  0.32000  0.40800  1.0000
  I   I10       1.0  0.81700  0.68000  0.59200  1.0000
  I   I11       1.0  0.48400  0.85300  0.39300  1.0000
  I   I12       1.0  0.51600  0.14700  0.60700  1.0000
  I   I13       1.0  0.42200  0.71700  0.14200  1.0000
  I   I14       1.0  0.57800  0.28300  0.85800  1.0000
  I   I15       1.0  0.81900  0.07810  0.06120  1.0000
  I   I16       1.0  0.18100  0.92200  0.93900  1.0000
