data_image0
_chemical_formula_structural       Eu10S24Sn6
_chemical_formula_sum              "Eu10 S24 Sn6"
_cell_length_a       4.06487
_cell_length_b       11.3237
_cell_length_c       20.1653
_cell_angle_alpha    90
_cell_angle_beta     90
_cell_angle_gamma    90

_space_group_name_H-M_alt    "P 1"
_space_group_IT_number       1

loop_
  _space_group_symop_operation_xyz
  'x, y, z'

loop_
  _atom_site_type_symbol
  _atom_site_label
  _atom_site_symmetry_multiplicity
  _atom_site_fract_x
  _atom_site_fract_y
  _atom_site_fract_z
  _atom_site_occupancy
  Eu  Eu1       1.0  0.00000  0.65600  0.09260  1.0000
  Eu  Eu2       1.0  0.00000  0.02390  0.09670  1.0000
  Eu  Eu3       1.0  0.00000  0.22600  0.27200  1.0000
  Eu  Eu4       1.0  0.00000  0.56300  0.38300  1.0000
  Eu  Eu5       1.0  0.00000  0.94600  0.41200  1.0000
  Eu  Eu6       1.0  0.00000  0.44600  0.58800  1.0000
  Eu  Eu7       1.0  0.00000  0.06300  0.61700  1.0000
  Eu  Eu8       1.0  0.00000  0.72600  0.72800  1.0000
  Eu  Eu9       1.0  0.00000  0.52400  0.90300  1.0000
  Eu  Eu10      1.0  0.00000  0.15600  0.90700  1.0000
  S   S1        1.0  0.50000  0.53200  0.01910  1.0000
  S   S2        1.0  0.00000  0.26700  0.03430  1.0000
  S   S3        1.0  0.50000  0.83100  0.12000  1.0000
  S   S4        1.0  0.50000  0.17700  0.16800  1.0000
  S   S5        1.0  0.00000  0.44800  0.17800  1.0000
  S   S6        1.0  0.00000  0.60700  0.23200  1.0000
  S   S7        1.0  0.00000  0.95000  0.25200  1.0000
  S   S8        1.0  0.50000  0.39900  0.32300  1.0000
  S   S9        1.0  0.50000  0.10600  0.35500  1.0000
  S   S10       1.0  0.50000  0.75500  0.35800  1.0000
  S   S11       1.0  0.50000  0.48200  0.48300  1.0000
  S   S12       1.0  0.00000  0.22000  0.49300  1.0000
  S   S13       1.0  0.00000  0.72000  0.50700  1.0000
  S   S14       1.0  0.50000  0.98200  0.51700  1.0000
  S   S15       1.0  0.50000  0.25500  0.64200  1.0000
  S   S16       1.0  0.50000  0.60600  0.64500  1.0000
  S   S17       1.0  0.50000  0.89900  0.67700  1.0000
  S   S18       1.0  0.00000  0.45000  0.74800  1.0000
  S   S19       1.0  0.00000  0.10700  0.76800  1.0000
  S   S20       1.0  0.00000  0.94800  0.82200  1.0000
  S   S21       1.0  0.50000  0.67700  0.83200  1.0000
  S   S22       1.0  0.50000  0.33100  0.88000  1.0000
  S   S23       1.0  0.00000  0.76700  0.96600  1.0000
  S   S24       1.0  0.50000  0.03160  0.98100  1.0000
  Sn  Sn1       1.0  0.50000  0.35300  0.09270  1.0000
  Sn  Sn2       1.0  0.50000  0.81700  0.24200  1.0000
  Sn  Sn3       1.0  0.50000  0.28400  0.42900  1.0000
  Sn  Sn4       1.0  0.50000  0.78400  0.57100  1.0000
  Sn  Sn5       1.0  0.50000  0.31700  0.75800  1.0000
  Sn  Sn6       1.0  0.50000  0.85300  0.90700  1.0000
