data_image0
_chemical_formula_structural       Cl8S28Te4
_chemical_formula_sum              "Cl8 S28 Te4"
_cell_length_a       9.02174
_cell_length_b       9.27671
_cell_length_c       13.6975
_cell_angle_alpha    90
_cell_angle_beta     90
_cell_angle_gamma    90

_space_group_name_H-M_alt    "P 1"
_space_group_IT_number       1

loop_
  _space_group_symop_operation_xyz
  'x, y, z'

loop_
  _atom_site_type_symbol
  _atom_site_label
  _atom_site_symmetry_multiplicity
  _atom_site_fract_x
  _atom_site_fract_y
  _atom_site_fract_z
  _atom_site_occupancy
  Cl  Cl1       1.0  0.25000  0.98400  0.03590  1.0000
  Cl  Cl2       1.0  0.75000  0.39300  0.22000  1.0000
  Cl  Cl3       1.0  0.75000  0.89300  0.28000  1.0000
  Cl  Cl4       1.0  0.25000  0.48400  0.46400  1.0000
  Cl  Cl5       1.0  0.75000  0.51600  0.53600  1.0000
  Cl  Cl6       1.0  0.25000  0.10700  0.72000  1.0000
  Cl  Cl7       1.0  0.25000  0.60700  0.78000  1.0000
  Cl  Cl8       1.0  0.75000  0.01560  0.96400  1.0000
  S   S1        1.0  0.53400  0.32000  0.03930  1.0000
  S   S2        1.0  0.96600  0.32000  0.03930  1.0000
  S   S3        1.0  0.53100  0.75700  0.09070  1.0000
  S   S4        1.0  0.96900  0.75700  0.09070  1.0000
  S   S5        1.0  0.06590  0.63100  0.20000  1.0000
  S   S6        1.0  0.43400  0.63100  0.20000  1.0000
  S   S7        1.0  0.25000  0.23200  0.24400  1.0000
  S   S8        1.0  0.25000  0.73200  0.25600  1.0000
  S   S9        1.0  0.06590  0.13100  0.30000  1.0000
  S   S10       1.0  0.43400  0.13100  0.30000  1.0000
  S   S11       1.0  0.53100  0.25700  0.40900  1.0000
  S   S12       1.0  0.96900  0.25700  0.40900  1.0000
  S   S13       1.0  0.53400  0.82000  0.46100  1.0000
  S   S14       1.0  0.96600  0.82000  0.46100  1.0000
  S   S15       1.0  0.03390  0.18000  0.53900  1.0000
  S   S16       1.0  0.46600  0.18000  0.53900  1.0000
  S   S17       1.0  0.03090  0.74300  0.59100  1.0000
  S   S18       1.0  0.46900  0.74300  0.59100  1.0000
  S   S19       1.0  0.56600  0.86900  0.70000  1.0000
  S   S20       1.0  0.93400  0.86900  0.70000  1.0000
  S   S21       1.0  0.75000  0.26800  0.74400  1.0000
  S   S22       1.0  0.75000  0.76800  0.75600  1.0000
  S   S23       1.0  0.56600  0.36900  0.80000  1.0000
  S   S24       1.0  0.93400  0.36900  0.80000  1.0000
  S   S25       1.0  0.03090  0.24300  0.90900  1.0000
  S   S26       1.0  0.46900  0.24300  0.90900  1.0000
  S   S27       1.0  0.03390  0.68000  0.96100  1.0000
  S   S28       1.0  0.46600  0.68000  0.96100  1.0000
  Te  Te1       1.0  0.75000  0.17900  0.10400  1.0000
  Te  Te2       1.0  0.75000  0.67900  0.39600  1.0000
  Te  Te3       1.0  0.25000  0.32100  0.60400  1.0000
  Te  Te4       1.0  0.25000  0.82100  0.89600  1.0000
