data_image0
_chemical_formula_structural       Mg4Mo8O28
_chemical_formula_sum              "Mg4 Mo8 O28"
_cell_length_a       8.13307
_cell_length_b       5.65041
_cell_length_c       14.732
_cell_angle_alpha    90
_cell_angle_beta     115.625
_cell_angle_gamma    90

_space_group_name_H-M_alt    "P 1"
_space_group_IT_number       1

loop_
  _space_group_symop_operation_xyz
  'x, y, z'

loop_
  _atom_site_type_symbol
  _atom_site_label
  _atom_site_symmetry_multiplicity
  _atom_site_fract_x
  _atom_site_fract_y
  _atom_site_fract_z
  _atom_site_occupancy
  Mg  Mg1       1.0  0.48000  0.62900  0.08830  1.0000
  Mg  Mg2       1.0  0.52000  0.12900  0.41200  1.0000
  Mg  Mg3       1.0  0.48000  0.87100  0.58800  1.0000
  Mg  Mg4       1.0  0.52000  0.37100  0.91200  1.0000
  Mo  Mo1       1.0  0.25100  0.13000  0.13300  1.0000
  Mo  Mo2       1.0  0.79500  0.13200  0.13400  1.0000
  Mo  Mo3       1.0  0.20500  0.63200  0.36600  1.0000
  Mo  Mo4       1.0  0.74900  0.63000  0.36700  1.0000
  Mo  Mo5       1.0  0.25100  0.37000  0.63300  1.0000
  Mo  Mo6       1.0  0.79500  0.36800  0.63400  1.0000
  Mo  Mo7       1.0  0.20500  0.86800  0.86600  1.0000
  Mo  Mo8       1.0  0.74900  0.87000  0.86700  1.0000
  O   O1        1.0  0.30000  0.89400  0.06990  1.0000
  O   O2        1.0  0.63600  0.36500  0.07070  1.0000
  O   O3        1.0  0.28900  0.39200  0.08240  1.0000
  O   O4        1.0  0.68000  0.86100  0.10200  1.0000
  O   O5        1.0  0.00720  0.12900  0.11100  1.0000
  O   O6        1.0  0.13600  0.67100  0.23800  1.0000
  O   O7        1.0  0.59700  0.61600  0.24000  1.0000
  O   O8        1.0  0.40300  0.11600  0.26000  1.0000
  O   O9        1.0  0.86400  0.17100  0.26200  1.0000
  O   O10       1.0  0.99300  0.62900  0.38900  1.0000
  O   O11       1.0  0.32000  0.36100  0.39800  1.0000
  O   O12       1.0  0.71100  0.89200  0.41800  1.0000
  O   O13       1.0  0.36400  0.86500  0.42900  1.0000
  O   O14       1.0  0.70000  0.39400  0.43000  1.0000
  O   O15       1.0  0.30000  0.60600  0.57000  1.0000
  O   O16       1.0  0.63600  0.13500  0.57100  1.0000
  O   O17       1.0  0.28900  0.10800  0.58200  1.0000
  O   O18       1.0  0.68000  0.63900  0.60200  1.0000
  O   O19       1.0  0.00720  0.37100  0.61100  1.0000
  O   O20       1.0  0.13600  0.82900  0.73800  1.0000
  O   O21       1.0  0.59700  0.88400  0.74000  1.0000
  O   O22       1.0  0.40300  0.38400  0.76000  1.0000
  O   O23       1.0  0.86400  0.32900  0.76200  1.0000
  O   O24       1.0  0.99300  0.87100  0.88900  1.0000
  O   O25       1.0  0.32000  0.13900  0.89800  1.0000
  O   O26       1.0  0.71100  0.60800  0.91800  1.0000
  O   O27       1.0  0.36400  0.63500  0.92900  1.0000
  O   O28       1.0  0.70000  0.10600  0.93000  1.0000
