data_image0
_chemical_formula_structural       As4F24I8S4
_chemical_formula_sum              "As4 F24 I8 S4"
_cell_length_a       7.6466
_cell_length_b       7.6466
_cell_length_c       12.8278
_cell_angle_alpha    92.7166
_cell_angle_beta     92.7166
_cell_angle_gamma    104.922

_space_group_name_H-M_alt    "P 1"
_space_group_IT_number       1

loop_
  _space_group_symop_operation_xyz
  'x, y, z'

loop_
  _atom_site_type_symbol
  _atom_site_label
  _atom_site_symmetry_multiplicity
  _atom_site_fract_x
  _atom_site_fract_y
  _atom_site_fract_z
  _atom_site_occupancy
  As  As1       1.0  0.50000  0.50000  0.00000  1.0000
  As  As2       1.0  0.81500  0.18500  0.25000  1.0000
  As  As3       1.0  0.50000  0.50000  0.50000  1.0000
  As  As4       1.0  0.18500  0.81500  0.75000  1.0000
  F   F1        1.0  0.27900  0.53400  0.00020  1.0000
  F   F2        1.0  0.59200  0.71700  0.06270  1.0000
  F   F3        1.0  0.46900  0.40500  0.12300  1.0000
  F   F4        1.0  0.71500  0.08720  0.12600  1.0000
  F   F5        1.0  0.03330  0.19700  0.20500  1.0000
  F   F6        1.0  0.82900  0.40500  0.20700  1.0000
  F   F7        1.0  0.59500  0.17100  0.29300  1.0000
  F   F8        1.0  0.80300  0.96700  0.29500  1.0000
  F   F9        1.0  0.91300  0.28500  0.37400  1.0000
  F   F10       1.0  0.59500  0.53100  0.37700  1.0000
  F   F11       1.0  0.28300  0.40800  0.43700  1.0000
  F   F12       1.0  0.46600  0.72100  0.50000  1.0000
  F   F13       1.0  0.53400  0.27900  0.50000  1.0000
  F   F14       1.0  0.71700  0.59200  0.56300  1.0000
  F   F15       1.0  0.40500  0.46900  0.62300  1.0000
  F   F16       1.0  0.08720  0.71500  0.62600  1.0000
  F   F17       1.0  0.19700  0.03330  0.70500  1.0000
  F   F18       1.0  0.40500  0.82900  0.70700  1.0000
  F   F19       1.0  0.17100  0.59500  0.79300  1.0000
  F   F20       1.0  0.96700  0.80300  0.79500  1.0000
  F   F21       1.0  0.28500  0.91300  0.87400  1.0000
  F   F22       1.0  0.53100  0.59500  0.87700  1.0000
  F   F23       1.0  0.40800  0.28300  0.93700  1.0000
  F   F24       1.0  0.72100  0.46600  1.00000  1.0000
  I   I1        1.0  0.00913  0.75700  0.07520  1.0000
  I   I2        1.0  0.31500  0.00293  0.11200  1.0000
  I   I3        1.0  0.99700  0.68500  0.38800  1.0000
  I   I4        1.0  0.24300  0.99100  0.42500  1.0000
  I   I5        1.0  0.75700  0.00913  0.57500  1.0000
  I   I6        1.0  0.00293  0.31500  0.61200  1.0000
  I   I7        1.0  0.68500  0.99700  0.88800  1.0000
  I   I8        1.0  0.99100  0.24300  0.92500  1.0000
  S   S1        1.0  0.21800  0.58200  0.24400  1.0000
  S   S2        1.0  0.41800  0.78200  0.25600  1.0000
  S   S3        1.0  0.58200  0.21800  0.74400  1.0000
  S   S4        1.0  0.78200  0.41800  0.75600  1.0000
