data_image0
_chemical_formula_structural       F8H16N4O8P4
_chemical_formula_sum              "F8 H16 N4 O8 P4"
_cell_length_a       7.68271
_cell_length_b       6.22706
_cell_length_c       7.50735
_cell_angle_alpha    90
_cell_angle_beta     90
_cell_angle_gamma    90

_space_group_name_H-M_alt    "P 1"
_space_group_IT_number       1

loop_
  _space_group_symop_operation_xyz
  'x, y, z'

loop_
  _atom_site_type_symbol
  _atom_site_label
  _atom_site_symmetry_multiplicity
  _atom_site_fract_x
  _atom_site_fract_y
  _atom_site_fract_z
  _atom_site_occupancy
  F   F1        1.0  0.23300  0.75000  0.03280  1.0000
  F   F2        1.0  0.54300  0.75000  0.03330  1.0000
  F   F3        1.0  0.04310  0.75000  0.46700  1.0000
  F   F4        1.0  0.73300  0.75000  0.46700  1.0000
  F   F5        1.0  0.26700  0.25000  0.53300  1.0000
  F   F6        1.0  0.95700  0.25000  0.53300  1.0000
  F   F7        1.0  0.45700  0.25000  0.96700  1.0000
  F   F8        1.0  0.76700  0.25000  0.96700  1.0000
  H   H1        1.0  0.15000  0.25000  0.00495  1.0000
  H   H2        1.0  0.05250  0.11500  0.17300  1.0000
  H   H3        1.0  0.05250  0.38500  0.17300  1.0000
  H   H4        1.0  0.24300  0.25000  0.20700  1.0000
  H   H5        1.0  0.74300  0.25000  0.29300  1.0000
  H   H6        1.0  0.55200  0.11500  0.32700  1.0000
  H   H7        1.0  0.55200  0.38500  0.32700  1.0000
  H   H8        1.0  0.65000  0.25000  0.49500  1.0000
  H   H9        1.0  0.35000  0.75000  0.50500  1.0000
  H   H10       1.0  0.44800  0.61500  0.67300  1.0000
  H   H11       1.0  0.44800  0.88500  0.67300  1.0000
  H   H12       1.0  0.25700  0.75000  0.70700  1.0000
  H   H13       1.0  0.75700  0.75000  0.79300  1.0000
  H   H14       1.0  0.94800  0.61500  0.82700  1.0000
  H   H15       1.0  0.94800  0.88500  0.82700  1.0000
  H   H16       1.0  0.85000  0.75000  0.99500  1.0000
  N   N1        1.0  0.12700  0.25000  0.14000  1.0000
  N   N2        1.0  0.62700  0.25000  0.36000  1.0000
  N   N3        1.0  0.37300  0.75000  0.64000  1.0000
  N   N4        1.0  0.87300  0.75000  0.86000  1.0000
  O   O1        1.0  0.88600  0.54400  0.23000  1.0000
  O   O2        1.0  0.88600  0.95600  0.23000  1.0000
  O   O3        1.0  0.38600  0.54400  0.27000  1.0000
  O   O4        1.0  0.38600  0.95600  0.27000  1.0000
  O   O5        1.0  0.61400  0.04380  0.73000  1.0000
  O   O6        1.0  0.61400  0.45600  0.73000  1.0000
  O   O7        1.0  0.11400  0.04380  0.77000  1.0000
  O   O8        1.0  0.11400  0.45600  0.77000  1.0000
  P   P1        1.0  0.38800  0.75000  0.17100  1.0000
  P   P2        1.0  0.88800  0.75000  0.32900  1.0000
  P   P3        1.0  0.11200  0.25000  0.67100  1.0000
  P   P4        1.0  0.61200  0.25000  0.82900  1.0000
