data_image0
_chemical_formula_structural       Be4K4O22Si6Zn4
_chemical_formula_sum              "Be4 K4 O22 Si6 Zn4"
_cell_length_a       6.75545
_cell_length_b       9.49356
_cell_length_c       9.49356
_cell_angle_alpha    103.212
_cell_angle_beta     110.842
_cell_angle_gamma    110.842

_space_group_name_H-M_alt    "P 1"
_space_group_IT_number       1

loop_
  _space_group_symop_operation_xyz
  'x, y, z'

loop_
  _atom_site_type_symbol
  _atom_site_label
  _atom_site_symmetry_multiplicity
  _atom_site_fract_x
  _atom_site_fract_y
  _atom_site_fract_z
  _atom_site_occupancy
  Be  Be1       1.0  0.17400  0.00000  0.00000  1.0000
  Be  Be2       1.0  0.82600  0.00000  0.00000  1.0000
  Be  Be3       1.0  0.32600  0.50000  0.50000  1.0000
  Be  Be4       1.0  0.67400  0.50000  0.50000  1.0000
  K   K1        1.0  0.25000  0.38900  0.11100  1.0000
  K   K2        1.0  0.75000  0.20000  0.30000  1.0000
  K   K3        1.0  0.25000  0.80000  0.70000  1.0000
  K   K4        1.0  0.75000  0.61100  0.88900  1.0000
  O   O1        1.0  0.23400  0.85500  0.01370  1.0000
  O   O2        1.0  0.63500  0.85500  0.01370  1.0000
  O   O3        1.0  0.75000  0.42600  0.07400  1.0000
  O   O4        1.0  0.11100  0.07580  0.14600  1.0000
  O   O5        1.0  0.50600  0.77900  0.23300  1.0000
  O   O6        1.0  0.00631  0.73300  0.27900  1.0000
  O   O7        1.0  0.13500  0.51400  0.35500  1.0000
  O   O8        1.0  0.73400  0.51400  0.35500  1.0000
  O   O9        1.0  0.04990  0.09010  0.41000  1.0000
  O   O10       1.0  0.45000  0.09010  0.41000  1.0000
  O   O11       1.0  0.38900  0.35400  0.42400  1.0000
  O   O12       1.0  0.61100  0.64600  0.57600  1.0000
  O   O13       1.0  0.55000  0.91000  0.59000  1.0000
  O   O14       1.0  0.95000  0.91000  0.59000  1.0000
  O   O15       1.0  0.26600  0.48600  0.64500  1.0000
  O   O16       1.0  0.86500  0.48600  0.64500  1.0000
  O   O17       1.0  0.99400  0.26700  0.72100  1.0000
  O   O18       1.0  0.49400  0.22100  0.76700  1.0000
  O   O19       1.0  0.88900  0.92400  0.85400  1.0000
  O   O20       1.0  0.25000  0.57400  0.92600  1.0000
  O   O21       1.0  0.36500  0.14500  0.98600  1.0000
  O   O22       1.0  0.76600  0.14500  0.98600  1.0000
  Si  Si1       1.0  0.40900  0.77400  0.04440  1.0000
  Si  Si2       1.0  0.90900  0.54400  0.27400  1.0000
  Si  Si3       1.0  0.25000  0.15300  0.34700  1.0000
  Si  Si4       1.0  0.75000  0.84700  0.65300  1.0000
  Si  Si5       1.0  0.09070  0.45600  0.72600  1.0000
  Si  Si6       1.0  0.59100  0.22600  0.95600  1.0000
  Zn  Zn1       1.0  0.34900  0.84900  0.34900  1.0000
  Zn  Zn2       1.0  0.84900  0.84900  0.34900  1.0000
  Zn  Zn3       1.0  0.15100  0.15100  0.65100  1.0000
  Zn  Zn4       1.0  0.65100  0.15100  0.65100  1.0000
