data_image0
_chemical_formula_structural       Br16N8P8
_chemical_formula_sum              "Br16 N8 P8"
_cell_length_a       11.3588
_cell_length_b       11.3588
_cell_length_c       6.29936
_cell_angle_alpha    90
_cell_angle_beta     90
_cell_angle_gamma    90

_space_group_name_H-M_alt    "P 1"
_space_group_IT_number       1

loop_
  _space_group_symop_operation_xyz
  'x, y, z'

loop_
  _atom_site_type_symbol
  _atom_site_label
  _atom_site_symmetry_multiplicity
  _atom_site_fract_x
  _atom_site_fract_y
  _atom_site_fract_z
  _atom_site_occupancy
  Br  Br1       1.0  0.94500  0.64300  0.13400  1.0000
  Br  Br2       1.0  0.55500  0.85700  0.13400  1.0000
  Br  Br3       1.0  0.30800  0.59500  0.16500  1.0000
  Br  Br4       1.0  0.19200  0.90500  0.16500  1.0000
  Br  Br5       1.0  0.59500  0.19200  0.33500  1.0000
  Br  Br6       1.0  0.90500  0.30800  0.33500  1.0000
  Br  Br7       1.0  0.64300  0.55500  0.36600  1.0000
  Br  Br8       1.0  0.85700  0.94500  0.36600  1.0000
  Br  Br9       1.0  0.14300  0.05500  0.63400  1.0000
  Br  Br10      1.0  0.35700  0.44500  0.63400  1.0000
  Br  Br11      1.0  0.09500  0.69200  0.66500  1.0000
  Br  Br12      1.0  0.40500  0.80800  0.66500  1.0000
  Br  Br13      1.0  0.80800  0.09500  0.83500  1.0000
  Br  Br14      1.0  0.69200  0.40500  0.83500  1.0000
  Br  Br15      1.0  0.44500  0.14300  0.86600  1.0000
  Br  Br16      1.0  0.05500  0.35700  0.86600  1.0000
  N   N1        1.0  0.11800  0.16000  0.16900  1.0000
  N   N2        1.0  0.38200  0.34000  0.16900  1.0000
  N   N3        1.0  0.34000  0.11800  0.33100  1.0000
  N   N4        1.0  0.16000  0.38200  0.33100  1.0000
  N   N5        1.0  0.84000  0.61800  0.66900  1.0000
  N   N6        1.0  0.66000  0.88200  0.66900  1.0000
  N   N7        1.0  0.61800  0.66000  0.83100  1.0000
  N   N8        1.0  0.88200  0.84000  0.83100  1.0000
  P   P1        1.0  0.41800  0.20500  0.19300  1.0000
  P   P2        1.0  0.08180  0.29500  0.19300  1.0000
  P   P3        1.0  0.20500  0.08180  0.30700  1.0000
  P   P4        1.0  0.29500  0.41800  0.30700  1.0000
  P   P5        1.0  0.70500  0.58200  0.69300  1.0000
  P   P6        1.0  0.79500  0.91800  0.69300  1.0000
  P   P7        1.0  0.91800  0.70500  0.80700  1.0000
  P   P8        1.0  0.58200  0.79500  0.80700  1.0000
