data_image0
_chemical_formula_structural       F4N12O8S16
_chemical_formula_sum              "F4 N12 O8 S16"
_cell_length_a       7.71904
_cell_length_b       5.22777
_cell_length_c       16.2095
_cell_angle_alpha    90
_cell_angle_beta     112.853
_cell_angle_gamma    90

_space_group_name_H-M_alt    "P 1"
_space_group_IT_number       1

loop_
  _space_group_symop_operation_xyz
  'x, y, z'

loop_
  _atom_site_type_symbol
  _atom_site_label
  _atom_site_symmetry_multiplicity
  _atom_site_fract_x
  _atom_site_fract_y
  _atom_site_fract_z
  _atom_site_occupancy
  F   F1        1.0  0.05000  0.84900  0.08980  1.0000
  F   F2        1.0  0.95000  0.34900  0.41000  1.0000
  F   F3        1.0  0.05000  0.65100  0.59000  1.0000
  F   F4        1.0  0.95000  0.15100  0.91000  1.0000
  N   N1        1.0  0.71900  0.99100  0.03950  1.0000
  N   N2        1.0  0.80000  0.04190  0.21700  1.0000
  N   N3        1.0  0.61100  0.64600  0.22200  1.0000
  N   N4        1.0  0.38900  0.14600  0.27800  1.0000
  N   N5        1.0  0.20000  0.54200  0.28300  1.0000
  N   N6        1.0  0.28100  0.49100  0.46000  1.0000
  N   N7        1.0  0.71900  0.50900  0.54000  1.0000
  N   N8        1.0  0.80000  0.45800  0.71700  1.0000
  N   N9        1.0  0.61100  0.85400  0.72200  1.0000
  N   N10       1.0  0.38900  0.35400  0.77800  1.0000
  N   N11       1.0  0.20000  0.95800  0.78300  1.0000
  N   N12       1.0  0.28100  0.00898  0.96000  1.0000
  O   O1        1.0  0.18400  0.33400  0.04390  1.0000
  O   O2        1.0  0.83200  0.55000  0.10800  1.0000
  O   O3        1.0  0.16800  0.05000  0.39200  1.0000
  O   O4        1.0  0.81600  0.83400  0.45600  1.0000
  O   O5        1.0  0.18400  0.16600  0.54400  1.0000
  O   O6        1.0  0.83200  0.95000  0.60800  1.0000
  O   O7        1.0  0.16800  0.45000  0.89200  1.0000
  O   O8        1.0  0.81600  0.66600  0.95600  1.0000
  S   S1        1.0  0.83900  0.73900  0.04480  1.0000
  S   S2        1.0  0.64300  0.07740  0.11500  1.0000
  S   S3        1.0  0.46100  0.76100  0.12900  1.0000
  S   S4        1.0  0.19800  0.28700  0.22800  1.0000
  S   S5        1.0  0.80200  0.78700  0.27200  1.0000
  S   S6        1.0  0.53900  0.26100  0.37100  1.0000
  S   S7        1.0  0.35700  0.57700  0.38500  1.0000
  S   S8        1.0  0.16100  0.23900  0.45500  1.0000
  S   S9        1.0  0.83900  0.76100  0.54500  1.0000
  S   S10       1.0  0.64300  0.42300  0.61500  1.0000
  S   S11       1.0  0.46100  0.73900  0.62900  1.0000
  S   S12       1.0  0.19800  0.21300  0.72800  1.0000
  S   S13       1.0  0.80200  0.71300  0.77200  1.0000
  S   S14       1.0  0.53900  0.23900  0.87100  1.0000
  S   S15       1.0  0.35700  0.92300  0.88500  1.0000
  S   S16       1.0  0.16100  0.26100  0.95500  1.0000
