data_image0
_chemical_formula_structural       Na6O24P6Sc4
_chemical_formula_sum              "Na6 O24 P6 Sc4"
_cell_length_a       9.02401
_cell_length_b       9.02401
_cell_length_c       8.95221
_cell_angle_alpha    120.266
_cell_angle_beta     59.7343
_cell_angle_gamma    120

_space_group_name_H-M_alt    "P 1"
_space_group_IT_number       1

loop_
  _space_group_symop_operation_xyz
  'x, y, z'

loop_
  _atom_site_type_symbol
  _atom_site_label
  _atom_site_symmetry_multiplicity
  _atom_site_fract_x
  _atom_site_fract_y
  _atom_site_fract_z
  _atom_site_occupancy
  Na  Na1       1.0  0.88100  0.75000  0.25000  1.0000
  Na  Na2       1.0  0.25000  0.38100  0.25000  1.0000
  Na  Na3       1.0  0.61900  0.11900  0.25000  1.0000
  Na  Na4       1.0  0.38100  0.88100  0.75000  1.0000
  Na  Na5       1.0  0.75000  0.61900  0.75000  1.0000
  Na  Na6       1.0  0.11900  0.25000  0.75000  1.0000
  O   O1        1.0  0.28100  0.87700  0.07870  1.0000
  O   O2        1.0  0.51700  0.71900  0.07870  1.0000
  O   O3        1.0  0.12300  0.48300  0.07870  1.0000
  O   O4        1.0  0.56900  0.58400  0.23400  1.0000
  O   O5        1.0  0.78200  0.43100  0.23400  1.0000
  O   O6        1.0  0.41600  0.21800  0.23400  1.0000
  O   O7        1.0  0.71800  0.91600  0.26600  1.0000
  O   O8        1.0  0.93100  0.28200  0.26600  1.0000
  O   O9        1.0  0.08410  0.06850  0.26600  1.0000
  O   O10       1.0  0.37700  0.78100  0.42100  1.0000
  O   O11       1.0  0.98300  0.62300  0.42100  1.0000
  O   O12       1.0  0.21900  0.01720  0.42100  1.0000
  O   O13       1.0  0.78100  0.98300  0.57900  1.0000
  O   O14       1.0  0.01720  0.37700  0.57900  1.0000
  O   O15       1.0  0.62300  0.21900  0.57900  1.0000
  O   O16       1.0  0.91600  0.93100  0.73400  1.0000
  O   O17       1.0  0.06850  0.71800  0.73400  1.0000
  O   O18       1.0  0.28200  0.08410  0.73400  1.0000
  O   O19       1.0  0.58400  0.78200  0.76600  1.0000
  O   O20       1.0  0.21800  0.56900  0.76600  1.0000
  O   O21       1.0  0.43100  0.41600  0.76600  1.0000
  O   O22       1.0  0.87700  0.51700  0.92100  1.0000
  O   O23       1.0  0.48300  0.28100  0.92100  1.0000
  O   O24       1.0  0.71900  0.12300  0.92100  1.0000
  P   P1        1.0  0.54500  0.75000  0.25000  1.0000
  P   P2        1.0  0.95500  0.45500  0.25000  1.0000
  P   P3        1.0  0.25000  0.04530  0.25000  1.0000
  P   P4        1.0  0.75000  0.95500  0.75000  1.0000
  P   P5        1.0  0.04530  0.54500  0.75000  1.0000
  P   P6        1.0  0.45500  0.25000  0.75000  1.0000
  Sc  Sc1       1.0  0.64600  0.35400  0.06090  1.0000
  Sc  Sc2       1.0  0.85400  0.14600  0.43900  1.0000
  Sc  Sc3       1.0  0.14600  0.85400  0.56100  1.0000
  Sc  Sc4       1.0  0.35400  0.64600  0.93900  1.0000
