data_image0
_chemical_formula_structural       F28K4Sb8
_chemical_formula_sum              "F28 K4 Sb8"
_cell_length_a       10.0883
_cell_length_b       7.36665
_cell_length_c       8.08115
_cell_angle_alpha    90
_cell_angle_beta     101.018
_cell_angle_gamma    90

_space_group_name_H-M_alt    "P 1"
_space_group_IT_number       1

loop_
  _space_group_symop_operation_xyz
  'x, y, z'

loop_
  _atom_site_type_symbol
  _atom_site_label
  _atom_site_symmetry_multiplicity
  _atom_site_fract_x
  _atom_site_fract_y
  _atom_site_fract_z
  _atom_site_occupancy
  F   F1        1.0  0.41400  0.15400  0.03790  1.0000
  F   F2        1.0  0.89100  0.43200  0.04680  1.0000
  F   F3        1.0  0.11300  0.89900  0.08000  1.0000
  F   F4        1.0  0.37800  0.49300  0.12500  1.0000
  F   F5        1.0  0.71900  0.20400  0.13000  1.0000
  F   F6        1.0  0.70000  0.61600  0.19600  1.0000
  F   F7        1.0  0.85400  0.90800  0.19900  1.0000
  F   F8        1.0  0.14600  0.40800  0.30100  1.0000
  F   F9        1.0  0.30000  0.11600  0.30400  1.0000
  F   F10       1.0  0.28100  0.70400  0.37000  1.0000
  F   F11       1.0  0.62200  0.99300  0.37500  1.0000
  F   F12       1.0  0.88700  0.39900  0.42000  1.0000
  F   F13       1.0  0.10900  0.93200  0.45300  1.0000
  F   F14       1.0  0.58600  0.65400  0.46200  1.0000
  F   F15       1.0  0.41400  0.34600  0.53800  1.0000
  F   F16       1.0  0.89100  0.06770  0.54700  1.0000
  F   F17       1.0  0.11300  0.60100  0.58000  1.0000
  F   F18       1.0  0.37800  0.00661  0.62500  1.0000
  F   F19       1.0  0.71900  0.29600  0.63000  1.0000
  F   F20       1.0  0.70000  0.88400  0.69600  1.0000
  F   F21       1.0  0.85400  0.59200  0.69900  1.0000
  F   F22       1.0  0.14600  0.09220  0.80100  1.0000
  F   F23       1.0  0.30000  0.38400  0.80400  1.0000
  F   F24       1.0  0.28100  0.79600  0.87000  1.0000
  F   F25       1.0  0.62200  0.50700  0.87500  1.0000
  F   F26       1.0  0.88700  0.10100  0.92000  1.0000
  F   F27       1.0  0.10900  0.56800  0.95300  1.0000
  F   F28       1.0  0.58600  0.84600  0.96200  1.0000
  K   K1        1.0  0.42600  0.83400  0.17600  1.0000
  K   K2        1.0  0.57400  0.33400  0.32400  1.0000
  K   K3        1.0  0.42600  0.66600  0.67600  1.0000
  K   K4        1.0  0.57400  0.16600  0.82400  1.0000
  Sb  Sb1       1.0  0.24800  0.30800  0.01980  1.0000
  Sb  Sb2       1.0  0.91400  0.17900  0.16400  1.0000
  Sb  Sb3       1.0  0.08580  0.67900  0.33600  1.0000
  Sb  Sb4       1.0  0.75200  0.80800  0.48000  1.0000
  Sb  Sb5       1.0  0.24800  0.19200  0.52000  1.0000
  Sb  Sb6       1.0  0.91400  0.32100  0.66400  1.0000
  Sb  Sb7       1.0  0.08580  0.82100  0.83600  1.0000
  Sb  Sb8       1.0  0.75200  0.69200  0.98000  1.0000
