data_image0
_chemical_formula_structural       C16N16S8
_chemical_formula_sum              "C16 N16 S8"
_cell_length_a       8.32019
_cell_length_b       6.64975
_cell_length_c       12.2745
_cell_angle_alpha    90
_cell_angle_beta     90
_cell_angle_gamma    90

_space_group_name_H-M_alt    "P 1"
_space_group_IT_number       1

loop_
  _space_group_symop_operation_xyz
  'x, y, z'

loop_
  _atom_site_type_symbol
  _atom_site_label
  _atom_site_symmetry_multiplicity
  _atom_site_fract_x
  _atom_site_fract_y
  _atom_site_fract_z
  _atom_site_occupancy
  C   C1        1.0  0.89800  0.38300  0.11000  1.0000
  C   C2        1.0  0.60200  0.88300  0.11000  1.0000
  C   C3        1.0  0.17700  0.25800  0.13500  1.0000
  C   C4        1.0  0.32300  0.75800  0.13500  1.0000
  C   C5        1.0  0.67700  0.25800  0.36500  1.0000
  C   C6        1.0  0.82300  0.75800  0.36500  1.0000
  C   C7        1.0  0.39800  0.38300  0.39000  1.0000
  C   C8        1.0  0.10200  0.88300  0.39000  1.0000
  C   C9        1.0  0.89800  0.11700  0.61000  1.0000
  C   C10       1.0  0.60200  0.61700  0.61000  1.0000
  C   C11       1.0  0.17700  0.24200  0.63500  1.0000
  C   C12       1.0  0.32300  0.74200  0.63500  1.0000
  C   C13       1.0  0.67700  0.24200  0.86500  1.0000
  C   C14       1.0  0.82300  0.74200  0.86500  1.0000
  C   C15       1.0  0.39800  0.11700  0.89000  1.0000
  C   C16       1.0  0.10200  0.61700  0.89000  1.0000
  N   N1        1.0  0.67200  0.03440  0.10200  1.0000
  N   N2        1.0  0.82800  0.53400  0.10200  1.0000
  N   N3        1.0  0.30700  0.32300  0.14400  1.0000
  N   N4        1.0  0.19300  0.82300  0.14400  1.0000
  N   N5        1.0  0.80700  0.32300  0.35600  1.0000
  N   N6        1.0  0.69300  0.82300  0.35600  1.0000
  N   N7        1.0  0.17200  0.03440  0.39800  1.0000
  N   N8        1.0  0.32800  0.53400  0.39800  1.0000
  N   N9        1.0  0.67200  0.46600  0.60200  1.0000
  N   N10       1.0  0.82800  0.96600  0.60200  1.0000
  N   N11       1.0  0.30700  0.17700  0.64400  1.0000
  N   N12       1.0  0.19300  0.67700  0.64400  1.0000
  N   N13       1.0  0.80700  0.17700  0.85600  1.0000
  N   N14       1.0  0.69300  0.67700  0.85600  1.0000
  N   N15       1.0  0.17200  0.46600  0.89800  1.0000
  N   N16       1.0  0.32800  0.96600  0.89800  1.0000
  S   S1        1.0  0.99100  0.15700  0.12300  1.0000
  S   S2        1.0  0.50900  0.65700  0.12300  1.0000
  S   S3        1.0  0.49100  0.15700  0.37700  1.0000
  S   S4        1.0  0.00937  0.65700  0.37700  1.0000
  S   S5        1.0  0.99100  0.34300  0.62300  1.0000
  S   S6        1.0  0.50900  0.84300  0.62300  1.0000
  S   S7        1.0  0.49100  0.34300  0.87700  1.0000
  S   S8        1.0  0.00937  0.84300  0.87700  1.0000
