data_image0
_chemical_formula_structural       Al9Fe2HO24Si4
_chemical_formula_sum              "Al9 Fe2 H1 O24 Si4"
_cell_length_a       5.66763
_cell_length_b       7.79618
_cell_length_c       9.12647
_cell_angle_alpha    64.7151
_cell_angle_beta     90.4223
_cell_angle_gamma    90.9886

_space_group_name_H-M_alt    "P 1"
_space_group_IT_number       1

loop_
  _space_group_symop_operation_xyz
  'x, y, z'

loop_
  _atom_site_type_symbol
  _atom_site_label
  _atom_site_symmetry_multiplicity
  _atom_site_fract_x
  _atom_site_fract_y
  _atom_site_fract_z
  _atom_site_occupancy
  Al  Al1       1.0  0.00000  0.00000  0.00000  1.0000
  Al  Al2       1.0  0.73700  0.14300  0.17500  1.0000
  Al  Al3       1.0  0.26300  0.68200  0.17500  1.0000
  Al  Al4       1.0  0.00000  0.33100  0.33900  1.0000
  Al  Al5       1.0  0.50000  0.32700  0.34500  1.0000
  Al  Al6       1.0  0.50000  0.67300  0.65500  1.0000
  Al  Al7       1.0  0.00000  0.66900  0.66100  1.0000
  Al  Al8       1.0  0.73700  0.31800  0.82500  1.0000
  Al  Al9       1.0  0.26300  0.85700  0.82500  1.0000
  Fe  Fe1       1.0  0.27200  0.35900  0.00000  1.0000
  Fe  Fe2       1.0  0.72800  0.64100  0.00000  1.0000
  H   H1        1.0  0.50000  0.00000  0.00000  1.0000
  O   O1        1.0  0.52600  0.17700  0.00000  1.0000
  O   O2        1.0  0.95800  0.22900  0.00000  1.0000
  O   O3        1.0  0.04170  0.77100  0.00000  1.0000
  O   O4        1.0  0.47400  0.82300  0.00000  1.0000
  O   O5        1.0  0.77800  0.90400  0.18500  1.0000
  O   O6        1.0  0.22200  0.91100  0.18500  1.0000
  O   O7        1.0  0.74300  0.37700  0.18800  1.0000
  O   O8        1.0  0.25700  0.43400  0.18800  1.0000
  O   O9        1.0  0.48000  0.09310  0.32300  1.0000
  O   O10       1.0  0.52000  0.58400  0.32300  1.0000
  O   O11       1.0  0.00918  0.09740  0.32500  1.0000
  O   O12       1.0  0.99100  0.57700  0.32500  1.0000
  O   O13       1.0  0.75100  0.23200  0.49500  1.0000
  O   O14       1.0  0.24900  0.27300  0.49500  1.0000
  O   O15       1.0  0.75100  0.72700  0.50500  1.0000
  O   O16       1.0  0.24900  0.76800  0.50500  1.0000
  O   O17       1.0  0.00918  0.42300  0.67500  1.0000
  O   O18       1.0  0.99100  0.90300  0.67500  1.0000
  O   O19       1.0  0.48000  0.41600  0.67700  1.0000
  O   O20       1.0  0.52000  0.90700  0.67700  1.0000
  O   O21       1.0  0.74300  0.56600  0.81200  1.0000
  O   O22       1.0  0.25700  0.62300  0.81200  1.0000
  O   O23       1.0  0.77800  0.08880  0.81500  1.0000
  O   O24       1.0  0.22200  0.09630  0.81500  1.0000
  Si  Si1       1.0  0.76200  0.69500  0.33800  1.0000
  Si  Si2       1.0  0.23800  0.96700  0.33800  1.0000
  Si  Si3       1.0  0.76200  0.03340  0.66200  1.0000
  Si  Si4       1.0  0.23800  0.30500  0.66200  1.0000
