data_image0
_chemical_formula_structural       Br4F32Sb4
_chemical_formula_sum              "Br4 F32 Sb4"
_cell_length_a       9.22658
_cell_length_b       5.49415
_cell_length_c       10.1752
_cell_angle_alpha    90
_cell_angle_beta     90
_cell_angle_gamma    90

_space_group_name_H-M_alt    "P 1"
_space_group_IT_number       1

loop_
  _space_group_symop_operation_xyz
  'x, y, z'

loop_
  _atom_site_type_symbol
  _atom_site_label
  _atom_site_symmetry_multiplicity
  _atom_site_fract_x
  _atom_site_fract_y
  _atom_site_fract_z
  _atom_site_occupancy
  Br  Br1       1.0  0.25000  0.50000  0.02470  1.0000
  Br  Br2       1.0  0.75000  0.50000  0.47500  1.0000
  Br  Br3       1.0  0.25000  0.50000  0.52500  1.0000
  Br  Br4       1.0  0.75000  0.50000  0.97500  1.0000
  F   F1        1.0  0.62600  0.37900  0.09040  1.0000
  F   F2        1.0  0.87400  0.62100  0.09040  1.0000
  F   F3        1.0  0.89300  0.11200  0.09170  1.0000
  F   F4        1.0  0.60700  0.88800  0.09170  1.0000
  F   F5        1.0  0.37200  0.13400  0.17800  1.0000
  F   F6        1.0  0.12800  0.86600  0.17800  1.0000
  F   F7        1.0  0.11600  0.36800  0.18400  1.0000
  F   F8        1.0  0.38400  0.63200  0.18400  1.0000
  F   F9        1.0  0.88400  0.36800  0.31600  1.0000
  F   F10       1.0  0.61600  0.63200  0.31600  1.0000
  F   F11       1.0  0.62800  0.13400  0.32200  1.0000
  F   F12       1.0  0.87200  0.86600  0.32200  1.0000
  F   F13       1.0  0.10700  0.11200  0.40800  1.0000
  F   F14       1.0  0.39300  0.88800  0.40800  1.0000
  F   F15       1.0  0.37400  0.37900  0.41000  1.0000
  F   F16       1.0  0.12600  0.62100  0.41000  1.0000
  F   F17       1.0  0.87400  0.37900  0.59000  1.0000
  F   F18       1.0  0.62600  0.62100  0.59000  1.0000
  F   F19       1.0  0.60700  0.11200  0.59200  1.0000
  F   F20       1.0  0.89300  0.88800  0.59200  1.0000
  F   F21       1.0  0.12800  0.13400  0.67800  1.0000
  F   F22       1.0  0.37200  0.86600  0.67800  1.0000
  F   F23       1.0  0.38400  0.36800  0.68400  1.0000
  F   F24       1.0  0.11600  0.63200  0.68400  1.0000
  F   F25       1.0  0.61600  0.36800  0.81600  1.0000
  F   F26       1.0  0.88400  0.63200  0.81600  1.0000
  F   F27       1.0  0.87200  0.13400  0.82200  1.0000
  F   F28       1.0  0.62800  0.86600  0.82200  1.0000
  F   F29       1.0  0.39300  0.11200  0.90800  1.0000
  F   F30       1.0  0.10700  0.88800  0.90800  1.0000
  F   F31       1.0  0.12600  0.37900  0.91000  1.0000
  F   F32       1.0  0.37400  0.62100  0.91000  1.0000
  Sb  Sb1       1.0  0.00000  0.09540  0.25000  1.0000
  Sb  Sb2       1.0  0.50000  0.90500  0.25000  1.0000
  Sb  Sb3       1.0  0.50000  0.09540  0.75000  1.0000
  Sb  Sb4       1.0  0.00000  0.90500  0.75000  1.0000
