data_image0
_chemical_formula_structural       Cd2Pr
_chemical_formula_sum              "Cd2 Pr1"
_cell_length_a       5.08014
_cell_length_b       5.07902
_cell_length_c       3.45089
_cell_angle_alpha    90
_cell_angle_beta     89.9972
_cell_angle_gamma    119.993

_space_group_name_H-M_alt    "P 1"
_space_group_IT_number       1

loop_
  _space_group_symop_operation_xyz
  'x, y, z'

loop_
  _atom_site_type_symbol
  _atom_site_label
  _atom_site_symmetry_multiplicity
  _atom_site_fract_x
  _atom_site_fract_y
  _atom_site_fract_z
  _atom_site_occupancy
  Cd  Cd1       1.0  0.66700  0.33300  0.49600  1.0000
  Cd  Cd2       1.0  0.33300  0.66700  0.50400  1.0000
  Pr  Pr1       1.0  0.00000  0.00000  0.00000  1.0000
