data_image0
_chemical_formula_structural       As8Mn4S20Tl8
_chemical_formula_sum              "As8 Mn4 S20 Tl8"
_cell_length_a       7.65243
_cell_length_b       8.67091
_cell_length_c       16.9327
_cell_angle_alpha    90
_cell_angle_beta     90
_cell_angle_gamma    63.815

_space_group_name_H-M_alt    "P 1"
_space_group_IT_number       1

loop_
  _space_group_symop_operation_xyz
  'x, y, z'

loop_
  _atom_site_type_symbol
  _atom_site_label
  _atom_site_symmetry_multiplicity
  _atom_site_fract_x
  _atom_site_fract_y
  _atom_site_fract_z
  _atom_site_occupancy
  As  As1       1.0  0.91700  0.23400  0.10600  1.0000
  As  As2       1.0  0.15100  0.76600  0.10600  1.0000
  As  As3       1.0  0.41700  0.23400  0.39400  1.0000
  As  As4       1.0  0.65100  0.76600  0.39400  1.0000
  As  As5       1.0  0.34900  0.23400  0.60600  1.0000
  As  As6       1.0  0.58300  0.76600  0.60600  1.0000
  As  As7       1.0  0.84900  0.23400  0.89400  1.0000
  As  As8       1.0  0.08320  0.76600  0.89400  1.0000
  Mn  Mn1       1.0  0.10400  0.50000  0.25000  1.0000
  Mn  Mn2       1.0  0.60400  0.50000  0.25000  1.0000
  Mn  Mn3       1.0  0.39600  0.50000  0.75000  1.0000
  Mn  Mn4       1.0  0.89600  0.50000  0.75000  1.0000
  S   S1        1.0  0.60900  0.44100  0.10300  1.0000
  S   S2        1.0  0.04920  0.55900  0.10300  1.0000
  S   S3        1.0  0.84400  0.00000  0.11700  1.0000
  S   S4        1.0  0.97200  0.27300  0.23500  1.0000
  S   S5        1.0  0.24500  0.72700  0.23500  1.0000
  S   S6        1.0  0.47200  0.27300  0.26500  1.0000
  S   S7        1.0  0.74500  0.72700  0.26500  1.0000
  S   S8        1.0  0.34400  0.00000  0.38300  1.0000
  S   S9        1.0  0.10900  0.44100  0.39700  1.0000
  S   S10       1.0  0.54900  0.55900  0.39700  1.0000
  S   S11       1.0  0.45100  0.44100  0.60300  1.0000
  S   S12       1.0  0.89100  0.55900  0.60300  1.0000
  S   S13       1.0  0.65600  0.00000  0.61700  1.0000
  S   S14       1.0  0.25500  0.27300  0.73500  1.0000
  S   S15       1.0  0.52800  0.72700  0.73500  1.0000
  S   S16       1.0  0.75500  0.27300  0.76500  1.0000
  S   S17       1.0  0.02800  0.72700  0.76500  1.0000
  S   S18       1.0  0.15600  0.00000  0.88300  1.0000
  S   S19       1.0  0.95100  0.44100  0.89700  1.0000
  S   S20       1.0  0.39100  0.55900  0.89700  1.0000
  Tl  Tl1       1.0  0.35300  0.29300  0.00000  1.0000
  Tl  Tl2       1.0  0.64700  0.70700  0.00000  1.0000
  Tl  Tl3       1.0  0.41200  0.00000  0.17900  1.0000
  Tl  Tl4       1.0  0.91200  0.00000  0.32100  1.0000
  Tl  Tl5       1.0  0.85300  0.29300  0.50000  1.0000
  Tl  Tl6       1.0  0.14700  0.70700  0.50000  1.0000
  Tl  Tl7       1.0  0.08800  0.00000  0.67900  1.0000
  Tl  Tl8       1.0  0.58800  0.00000  0.82100  1.0000
