data_image0
_chemical_formula_structural       Au24Ge8Na8
_chemical_formula_sum              "Au24 Ge8 Na8"
_cell_length_a       9.18903
_cell_length_b       9.18903
_cell_length_c       9.18903
_cell_angle_alpha    90
_cell_angle_beta     90
_cell_angle_gamma    90

_space_group_name_H-M_alt    "P 1"
_space_group_IT_number       1

loop_
  _space_group_symop_operation_xyz
  'x, y, z'

loop_
  _atom_site_type_symbol
  _atom_site_label
  _atom_site_symmetry_multiplicity
  _atom_site_fract_x
  _atom_site_fract_y
  _atom_site_fract_z
  _atom_site_occupancy
  Au  Au1       1.0  0.73100  0.14000  0.09010  1.0000
  Au  Au2       1.0  0.76900  0.64000  0.09010  1.0000
  Au  Au3       1.0  0.41000  0.23100  0.14000  1.0000
  Au  Au4       1.0  0.09010  0.73100  0.14000  1.0000
  Au  Au5       1.0  0.14000  0.41000  0.23100  1.0000
  Au  Au6       1.0  0.36000  0.91000  0.23100  1.0000
  Au  Au7       1.0  0.64000  0.41000  0.26900  1.0000
  Au  Au8       1.0  0.86000  0.91000  0.26900  1.0000
  Au  Au9       1.0  0.91000  0.23100  0.36000  1.0000
  Au  Au10      1.0  0.59000  0.73100  0.36000  1.0000
  Au  Au11      1.0  0.23100  0.14000  0.41000  1.0000
  Au  Au12      1.0  0.26900  0.64000  0.41000  1.0000
  Au  Au13      1.0  0.73100  0.36000  0.59000  1.0000
  Au  Au14      1.0  0.76900  0.86000  0.59000  1.0000
  Au  Au15      1.0  0.41000  0.26900  0.64000  1.0000
  Au  Au16      1.0  0.09010  0.76900  0.64000  1.0000
  Au  Au17      1.0  0.14000  0.09010  0.73100  1.0000
  Au  Au18      1.0  0.36000  0.59000  0.73100  1.0000
  Au  Au19      1.0  0.64000  0.09010  0.76900  1.0000
  Au  Au20      1.0  0.86000  0.59000  0.76900  1.0000
  Au  Au21      1.0  0.91000  0.26900  0.86000  1.0000
  Au  Au22      1.0  0.59000  0.76900  0.86000  1.0000
  Au  Au23      1.0  0.23100  0.36000  0.91000  1.0000
  Au  Au24      1.0  0.26900  0.86000  0.91000  1.0000
  Ge  Ge1       1.0  0.88800  0.38800  0.11200  1.0000
  Ge  Ge2       1.0  0.61200  0.88800  0.11200  1.0000
  Ge  Ge3       1.0  0.38800  0.38800  0.38800  1.0000
  Ge  Ge4       1.0  0.11200  0.88800  0.38800  1.0000
  Ge  Ge5       1.0  0.88800  0.11200  0.61200  1.0000
  Ge  Ge6       1.0  0.61200  0.61200  0.61200  1.0000
  Ge  Ge7       1.0  0.38800  0.11200  0.88800  1.0000
  Ge  Ge8       1.0  0.11200  0.61200  0.88800  1.0000
  Na  Na1       1.0  0.09880  0.09880  0.09880  1.0000
  Na  Na2       1.0  0.40100  0.59900  0.09880  1.0000
  Na  Na3       1.0  0.59900  0.09880  0.40100  1.0000
  Na  Na4       1.0  0.90100  0.59900  0.40100  1.0000
  Na  Na5       1.0  0.09880  0.40100  0.59900  1.0000
  Na  Na6       1.0  0.40100  0.90100  0.59900  1.0000
  Na  Na7       1.0  0.59900  0.40100  0.90100  1.0000
  Na  Na8       1.0  0.90100  0.90100  0.90100  1.0000
