data_image0
_chemical_formula_structural       Ni2P2Zr
_chemical_formula_sum              "Ni2 P2 Zr1"
_cell_length_a       3.71382
_cell_length_b       3.71382
_cell_length_c       5.42396
_cell_angle_alpha    110.02
_cell_angle_beta     110.02
_cell_angle_gamma    90

_space_group_name_H-M_alt    "P 1"
_space_group_IT_number       1

loop_
  _space_group_symop_operation_xyz
  'x, y, z'

loop_
  _atom_site_type_symbol
  _atom_site_label
  _atom_site_symmetry_multiplicity
  _atom_site_fract_x
  _atom_site_fract_y
  _atom_site_fract_z
  _atom_site_occupancy
  Ni  Ni1       1.0  0.75000  0.25000  0.50000  1.0000
  Ni  Ni2       1.0  0.25000  0.75000  0.50000  1.0000
  P   P1        1.0  0.61800  0.61800  0.23700  1.0000
  P   P2        1.0  0.38200  0.38200  0.76300  1.0000
  Zr  Zr1       1.0  0.00000  0.00000  0.00000  1.0000
