data_image0
_chemical_formula_structural       O24Pr6Sb10
_chemical_formula_sum              "O24 Pr6 Sb10"
_cell_length_a       9.52652
_cell_length_b       9.52652
_cell_length_c       9.52652
_cell_angle_alpha    109.471
_cell_angle_beta     109.471
_cell_angle_gamma    109.471

_space_group_name_H-M_alt    "P 1"
_space_group_IT_number       1

loop_
  _space_group_symop_operation_xyz
  'x, y, z'

loop_
  _atom_site_type_symbol
  _atom_site_label
  _atom_site_symmetry_multiplicity
  _atom_site_fract_x
  _atom_site_fract_y
  _atom_site_fract_z
  _atom_site_occupancy
  O   O1        1.0  0.48500  0.28500  0.00000  1.0000
  O   O2        1.0  0.28500  0.48500  0.00000  1.0000
  O   O3        1.0  0.80400  0.52900  0.00000  1.0000
  O   O4        1.0  0.52900  0.80400  0.00000  1.0000
  O   O5        1.0  0.72600  0.19600  0.19600  1.0000
  O   O6        1.0  0.19600  0.72600  0.19600  1.0000
  O   O7        1.0  0.71500  0.71500  0.20000  1.0000
  O   O8        1.0  0.47100  0.47100  0.27400  1.0000
  O   O9        1.0  0.48500  0.00000  0.28500  1.0000
  O   O10       1.0  0.00000  0.48500  0.28500  1.0000
  O   O11       1.0  0.47100  0.27400  0.47100  1.0000
  O   O12       1.0  0.27400  0.47100  0.47100  1.0000
  O   O13       1.0  0.28500  0.00000  0.48500  1.0000
  O   O14       1.0  0.00000  0.28500  0.48500  1.0000
  O   O15       1.0  0.80000  0.51500  0.51500  1.0000
  O   O16       1.0  0.51500  0.80000  0.51500  1.0000
  O   O17       1.0  0.80400  0.00000  0.52900  1.0000
  O   O18       1.0  0.00000  0.80400  0.52900  1.0000
  O   O19       1.0  0.71500  0.20000  0.71500  1.0000
  O   O20       1.0  0.20000  0.71500  0.71500  1.0000
  O   O21       1.0  0.19600  0.19600  0.72600  1.0000
  O   O22       1.0  0.51500  0.51500  0.80000  1.0000
  O   O23       1.0  0.52900  0.00000  0.80400  1.0000
  O   O24       1.0  0.00000  0.52900  0.80400  1.0000
  Pr  Pr1       1.0  0.75000  0.50000  0.25000  1.0000
  Pr  Pr2       1.0  0.50000  0.75000  0.25000  1.0000
  Pr  Pr3       1.0  0.75000  0.25000  0.50000  1.0000
  Pr  Pr4       1.0  0.25000  0.75000  0.50000  1.0000
  Pr  Pr5       1.0  0.50000  0.25000  0.75000  1.0000
  Pr  Pr6       1.0  0.25000  0.50000  0.75000  1.0000
  Sb  Sb1       1.0  0.48900  0.00000  0.00000  1.0000
  Sb  Sb2       1.0  0.27400  0.27400  0.00000  1.0000
  Sb  Sb3       1.0  0.00000  0.48900  0.00000  1.0000
  Sb  Sb4       1.0  0.72600  0.72600  0.00000  1.0000
  Sb  Sb5       1.0  0.27400  0.00000  0.27400  1.0000
  Sb  Sb6       1.0  0.00000  0.27400  0.27400  1.0000
  Sb  Sb7       1.0  0.00000  0.00000  0.48900  1.0000
  Sb  Sb8       1.0  0.51100  0.51100  0.51100  1.0000
  Sb  Sb9       1.0  0.72600  0.00000  0.72600  1.0000
  Sb  Sb10      1.0  0.00000  0.72600  0.72600  1.0000
