data_image0
_chemical_formula_structural       O24Sb10Yb6
_chemical_formula_sum              "O24 Sb10 Yb6"
_cell_length_a       8.97126
_cell_length_b       8.97126
_cell_length_c       8.97126
_cell_angle_alpha    109.471
_cell_angle_beta     109.471
_cell_angle_gamma    109.471

_space_group_name_H-M_alt    "P 1"
_space_group_IT_number       1

loop_
  _space_group_symop_operation_xyz
  'x, y, z'

loop_
  _atom_site_type_symbol
  _atom_site_label
  _atom_site_symmetry_multiplicity
  _atom_site_fract_x
  _atom_site_fract_y
  _atom_site_fract_z
  _atom_site_occupancy
  O   O1        1.0  0.46700  0.21700  0.00000  1.0000
  O   O2        1.0  0.21700  0.46700  0.00000  1.0000
  O   O3        1.0  0.78300  0.53300  0.00000  1.0000
  O   O4        1.0  0.53300  0.78300  0.00000  1.0000
  O   O5        1.0  0.75000  0.21700  0.21700  1.0000
  O   O6        1.0  0.21700  0.75000  0.21700  1.0000
  O   O7        1.0  0.46700  0.00000  0.21700  1.0000
  O   O8        1.0  0.00000  0.46700  0.21700  1.0000
  O   O9        1.0  0.78300  0.78300  0.25000  1.0000
  O   O10       1.0  0.46700  0.46700  0.25000  1.0000
  O   O11       1.0  0.46700  0.25000  0.46700  1.0000
  O   O12       1.0  0.25000  0.46700  0.46700  1.0000
  O   O13       1.0  0.21700  0.00000  0.46700  1.0000
  O   O14       1.0  0.00000  0.21700  0.46700  1.0000
  O   O15       1.0  0.75000  0.53300  0.53300  1.0000
  O   O16       1.0  0.53300  0.75000  0.53300  1.0000
  O   O17       1.0  0.78300  0.00000  0.53300  1.0000
  O   O18       1.0  0.00000  0.78300  0.53300  1.0000
  O   O19       1.0  0.21700  0.21700  0.75000  1.0000
  O   O20       1.0  0.53300  0.53300  0.75000  1.0000
  O   O21       1.0  0.78300  0.25000  0.78300  1.0000
  O   O22       1.0  0.25000  0.78300  0.78300  1.0000
  O   O23       1.0  0.53300  0.00000  0.78300  1.0000
  O   O24       1.0  0.00000  0.53300  0.78300  1.0000
  Sb  Sb1       1.0  0.50000  0.00000  0.00000  1.0000
  Sb  Sb2       1.0  0.25000  0.25000  0.00000  1.0000
  Sb  Sb3       1.0  0.00000  0.50000  0.00000  1.0000
  Sb  Sb4       1.0  0.75000  0.75000  0.00000  1.0000
  Sb  Sb5       1.0  0.25000  0.00000  0.25000  1.0000
  Sb  Sb6       1.0  0.00000  0.25000  0.25000  1.0000
  Sb  Sb7       1.0  0.00000  0.00000  0.50000  1.0000
  Sb  Sb8       1.0  0.50000  0.50000  0.50000  1.0000
  Sb  Sb9       1.0  0.75000  0.00000  0.75000  1.0000
  Sb  Sb10      1.0  0.00000  0.75000  0.75000  1.0000
  Yb  Yb1       1.0  0.75000  0.50000  0.25000  1.0000
  Yb  Yb2       1.0  0.50000  0.75000  0.25000  1.0000
  Yb  Yb3       1.0  0.75000  0.25000  0.50000  1.0000
  Yb  Yb4       1.0  0.25000  0.75000  0.50000  1.0000
  Yb  Yb5       1.0  0.50000  0.25000  0.75000  1.0000
  Yb  Yb6       1.0  0.25000  0.50000  0.75000  1.0000
