data_image0
_chemical_formula_structural       N8O20S12
_chemical_formula_sum              "N8 O20 S12"
_cell_length_a       7.97386
_cell_length_b       9.5815
_cell_length_c       7.55597
_cell_angle_alpha    90
_cell_angle_beta     112.578
_cell_angle_gamma    90

_space_group_name_H-M_alt    "P 1"
_space_group_IT_number       1

loop_
  _space_group_symop_operation_xyz
  'x, y, z'

loop_
  _atom_site_type_symbol
  _atom_site_label
  _atom_site_symmetry_multiplicity
  _atom_site_fract_x
  _atom_site_fract_y
  _atom_site_fract_z
  _atom_site_occupancy
  N   N1        1.0  0.78700  0.90800  0.08880  1.0000
  N   N2        1.0  0.27800  0.37500  0.09530  1.0000
  N   N3        1.0  0.72200  0.87500  0.40500  1.0000
  N   N4        1.0  0.21300  0.40800  0.41100  1.0000
  N   N5        1.0  0.78700  0.59200  0.58900  1.0000
  N   N6        1.0  0.27800  0.12500  0.59500  1.0000
  N   N7        1.0  0.72200  0.62500  0.90500  1.0000
  N   N8        1.0  0.21300  0.09160  0.91100  1.0000
  O   O1        1.0  0.38600  0.86900  0.01230  1.0000
  O   O2        1.0  0.94800  0.13000  0.07640  1.0000
  O   O3        1.0  0.80600  0.42400  0.13300  1.0000
  O   O4        1.0  0.47700  0.58600  0.16300  1.0000
  O   O5        1.0  0.16500  0.60900  0.17000  1.0000
  O   O6        1.0  0.83500  0.10900  0.33000  1.0000
  O   O7        1.0  0.52300  0.08590  0.33700  1.0000
  O   O8        1.0  0.19400  0.92400  0.36700  1.0000
  O   O9        1.0  0.05230  0.63000  0.42400  1.0000
  O   O10       1.0  0.61400  0.36900  0.48800  1.0000
  O   O11       1.0  0.38600  0.63100  0.51200  1.0000
  O   O12       1.0  0.94800  0.37000  0.57600  1.0000
  O   O13       1.0  0.80600  0.07560  0.63300  1.0000
  O   O14       1.0  0.47700  0.91400  0.66300  1.0000
  O   O15       1.0  0.16500  0.89100  0.67000  1.0000
  O   O16       1.0  0.83500  0.39100  0.83000  1.0000
  O   O17       1.0  0.52300  0.41400  0.83700  1.0000
  O   O18       1.0  0.19400  0.57600  0.86700  1.0000
  O   O19       1.0  0.05230  0.87000  0.92400  1.0000
  O   O20       1.0  0.61400  0.13100  0.98800  1.0000
  S   S1        1.0  0.29300  0.54300  0.06330  1.0000
  S   S2        1.0  0.79100  0.07860  0.10000  1.0000
  S   S3        1.0  0.75100  0.80900  0.23100  1.0000
  S   S4        1.0  0.24900  0.30900  0.26900  1.0000
  S   S5        1.0  0.20900  0.57900  0.40000  1.0000
  S   S6        1.0  0.70700  0.04300  0.43700  1.0000
  S   S7        1.0  0.29300  0.95700  0.56300  1.0000
  S   S8        1.0  0.79100  0.42100  0.60000  1.0000
  S   S9        1.0  0.75100  0.69100  0.73100  1.0000
  S   S10       1.0  0.24900  0.19100  0.76900  1.0000
  S   S11       1.0  0.20900  0.92100  0.90000  1.0000
  S   S12       1.0  0.70700  0.45700  0.93700  1.0000
