data_image0
_chemical_formula_structural       Cl8F24I4Sb4
_chemical_formula_sum              "Cl8 F24 I4 Sb4"
_cell_length_a       7.63818
_cell_length_b       7.63818
_cell_length_c       12.4966
_cell_angle_alpha    90
_cell_angle_beta     90
_cell_angle_gamma    83.0625

_space_group_name_H-M_alt    "P 1"
_space_group_IT_number       1

loop_
  _space_group_symop_operation_xyz
  'x, y, z'

loop_
  _atom_site_type_symbol
  _atom_site_label
  _atom_site_symmetry_multiplicity
  _atom_site_fract_x
  _atom_site_fract_y
  _atom_site_fract_z
  _atom_site_occupancy
  Cl  Cl1       1.0  0.61300  0.29200  0.13300  1.0000
  Cl  Cl2       1.0  0.29200  0.61300  0.13300  1.0000
  Cl  Cl3       1.0  0.79200  0.11300  0.36700  1.0000
  Cl  Cl4       1.0  0.11300  0.79200  0.36700  1.0000
  Cl  Cl5       1.0  0.88700  0.20800  0.63300  1.0000
  Cl  Cl6       1.0  0.20800  0.88700  0.63300  1.0000
  Cl  Cl7       1.0  0.70800  0.38700  0.86700  1.0000
  Cl  Cl8       1.0  0.38700  0.70800  0.86700  1.0000
  F   F1        1.0  0.64800  0.64800  0.00980  1.0000
  F   F2        1.0  0.29300  0.01940  0.03570  1.0000
  F   F3        1.0  0.01940  0.29300  0.03570  1.0000
  F   F4        1.0  0.95500  0.95500  0.12700  1.0000
  F   F5        1.0  0.88700  0.62400  0.16600  1.0000
  F   F6        1.0  0.62400  0.88700  0.16600  1.0000
  F   F7        1.0  0.38700  0.12400  0.33400  1.0000
  F   F8        1.0  0.12400  0.38700  0.33400  1.0000
  F   F9        1.0  0.45500  0.45500  0.37300  1.0000
  F   F10       1.0  0.79300  0.51900  0.46400  1.0000
  F   F11       1.0  0.51900  0.79300  0.46400  1.0000
  F   F12       1.0  0.14800  0.14800  0.49000  1.0000
  F   F13       1.0  0.85200  0.85200  0.51000  1.0000
  F   F14       1.0  0.48100  0.20700  0.53600  1.0000
  F   F15       1.0  0.20700  0.48100  0.53600  1.0000
  F   F16       1.0  0.54500  0.54500  0.62700  1.0000
  F   F17       1.0  0.87600  0.61300  0.66600  1.0000
  F   F18       1.0  0.61300  0.87600  0.66600  1.0000
  F   F19       1.0  0.37600  0.11300  0.83400  1.0000
  F   F20       1.0  0.11300  0.37600  0.83400  1.0000
  F   F21       1.0  0.04550  0.04550  0.87300  1.0000
  F   F22       1.0  0.98100  0.70700  0.96400  1.0000
  F   F23       1.0  0.70700  0.98100  0.96400  1.0000
  F   F24       1.0  0.35200  0.35200  0.99000  1.0000
  I   I1        1.0  0.83300  0.33300  0.25000  1.0000
  I   I2        1.0  0.33300  0.83300  0.25000  1.0000
  I   I3        1.0  0.66700  0.16700  0.75000  1.0000
  I   I4        1.0  0.16700  0.66700  0.75000  1.0000
  Sb  Sb1       1.0  0.80400  0.80400  0.06170  1.0000
  Sb  Sb2       1.0  0.30400  0.30400  0.43800  1.0000
  Sb  Sb3       1.0  0.69600  0.69600  0.56200  1.0000
  Sb  Sb4       1.0  0.19600  0.19600  0.93800  1.0000
