data_image0
_chemical_formula_structural       O28P8Sn4
_chemical_formula_sum              "O28 P8 Sn4"
_cell_length_a       8.22317
_cell_length_b       8.22317
_cell_length_c       8.22317
_cell_angle_alpha    90
_cell_angle_beta     90
_cell_angle_gamma    90

_space_group_name_H-M_alt    "P 1"
_space_group_IT_number       1

loop_
  _space_group_symop_operation_xyz
  'x, y, z'

loop_
  _atom_site_type_symbol
  _atom_site_label
  _atom_site_symmetry_multiplicity
  _atom_site_fract_x
  _atom_site_fract_y
  _atom_site_fract_z
  _atom_site_occupancy
  O   O1        1.0  0.50000  0.00000  0.00000  1.0000
  O   O2        1.0  0.00000  0.50000  0.00000  1.0000
  O   O3        1.0  0.71600  0.39500  0.04910  1.0000
  O   O4        1.0  0.78400  0.89500  0.04910  1.0000
  O   O5        1.0  0.95100  0.21600  0.10500  1.0000
  O   O6        1.0  0.54900  0.71600  0.10500  1.0000
  O   O7        1.0  0.39500  0.45100  0.21600  1.0000
  O   O8        1.0  0.10500  0.95100  0.21600  1.0000
  O   O9        1.0  0.89500  0.45100  0.28400  1.0000
  O   O10       1.0  0.60500  0.95100  0.28400  1.0000
  O   O11       1.0  0.45100  0.21600  0.39500  1.0000
  O   O12       1.0  0.04910  0.71600  0.39500  1.0000
  O   O13       1.0  0.21600  0.39500  0.45100  1.0000
  O   O14       1.0  0.28400  0.89500  0.45100  1.0000
  O   O15       1.0  0.00000  0.00000  0.50000  1.0000
  O   O16       1.0  0.50000  0.50000  0.50000  1.0000
  O   O17       1.0  0.71600  0.10500  0.54900  1.0000
  O   O18       1.0  0.78400  0.60500  0.54900  1.0000
  O   O19       1.0  0.95100  0.28400  0.60500  1.0000
  O   O20       1.0  0.54900  0.78400  0.60500  1.0000
  O   O21       1.0  0.39500  0.04910  0.71600  1.0000
  O   O22       1.0  0.10500  0.54900  0.71600  1.0000
  O   O23       1.0  0.89500  0.04910  0.78400  1.0000
  O   O24       1.0  0.60500  0.54900  0.78400  1.0000
  O   O25       1.0  0.45100  0.28400  0.89500  1.0000
  O   O26       1.0  0.04910  0.78400  0.89500  1.0000
  O   O27       1.0  0.21600  0.10500  0.95100  1.0000
  O   O28       1.0  0.28400  0.60500  0.95100  1.0000
  P   P1        1.0  0.88800  0.38800  0.11200  1.0000
  P   P2        1.0  0.61200  0.88800  0.11200  1.0000
  P   P3        1.0  0.38800  0.38800  0.38800  1.0000
  P   P4        1.0  0.11200  0.88800  0.38800  1.0000
  P   P5        1.0  0.88800  0.11200  0.61200  1.0000
  P   P6        1.0  0.61200  0.61200  0.61200  1.0000
  P   P7        1.0  0.38800  0.11200  0.88800  1.0000
  P   P8        1.0  0.11200  0.61200  0.88800  1.0000
  Sn  Sn1       1.0  0.00000  0.00000  0.00000  1.0000
  Sn  Sn2       1.0  0.50000  0.50000  0.00000  1.0000
  Sn  Sn3       1.0  0.50000  0.00000  0.50000  1.0000
  Sn  Sn4       1.0  0.00000  0.50000  0.50000  1.0000
