data_image0
_chemical_formula_structural       Cl8Cu4K8O16S4
_chemical_formula_sum              "Cl8 Cu4 K8 O16 S4"
_cell_length_a       7.65977
_cell_length_b       6.05693
_cell_length_c       16.2339
_cell_angle_alpha    90
_cell_angle_beta     90
_cell_angle_gamma    90

_space_group_name_H-M_alt    "P 1"
_space_group_IT_number       1

loop_
  _space_group_symop_operation_xyz
  'x, y, z'

loop_
  _atom_site_type_symbol
  _atom_site_label
  _atom_site_symmetry_multiplicity
  _atom_site_fract_x
  _atom_site_fract_y
  _atom_site_fract_z
  _atom_site_occupancy
  Cl  Cl1       1.0  0.10400  0.25000  0.05050  1.0000
  Cl  Cl2       1.0  0.65700  0.25000  0.05390  1.0000
  Cl  Cl3       1.0  0.15700  0.25000  0.44600  1.0000
  Cl  Cl4       1.0  0.60400  0.25000  0.45000  1.0000
  Cl  Cl5       1.0  0.39600  0.75000  0.55000  1.0000
  Cl  Cl6       1.0  0.84300  0.75000  0.55400  1.0000
  Cl  Cl7       1.0  0.34300  0.75000  0.94600  1.0000
  Cl  Cl8       1.0  0.89600  0.75000  0.95000  1.0000
  Cu  Cu1       1.0  0.12100  0.75000  0.03600  1.0000
  Cu  Cu2       1.0  0.62100  0.75000  0.46400  1.0000
  Cu  Cu3       1.0  0.37900  0.25000  0.53600  1.0000
  Cu  Cu4       1.0  0.87900  0.25000  0.96400  1.0000
  K   K1        1.0  0.62000  0.75000  0.09300  1.0000
  K   K2        1.0  0.88200  0.25000  0.21700  1.0000
  K   K3        1.0  0.38200  0.25000  0.28300  1.0000
  K   K4        1.0  0.12000  0.75000  0.40700  1.0000
  K   K5        1.0  0.88000  0.25000  0.59300  1.0000
  K   K6        1.0  0.61800  0.75000  0.71700  1.0000
  K   K7        1.0  0.11800  0.75000  0.78300  1.0000
  K   K8        1.0  0.38000  0.25000  0.90700  1.0000
  O   O1        1.0  0.27900  0.75000  0.13700  1.0000
  O   O2        1.0  0.97100  0.75000  0.14200  1.0000
  O   O3        1.0  0.13300  0.55000  0.25000  1.0000
  O   O4        1.0  0.13300  0.95000  0.25000  1.0000
  O   O5        1.0  0.63300  0.55000  0.25000  1.0000
  O   O6        1.0  0.63300  0.95000  0.25000  1.0000
  O   O7        1.0  0.47100  0.75000  0.35800  1.0000
  O   O8        1.0  0.77900  0.75000  0.36300  1.0000
  O   O9        1.0  0.22100  0.25000  0.63700  1.0000
  O   O10       1.0  0.52900  0.25000  0.64200  1.0000
  O   O11       1.0  0.36700  0.05020  0.75000  1.0000
  O   O12       1.0  0.36700  0.45000  0.75000  1.0000
  O   O13       1.0  0.86700  0.05020  0.75000  1.0000
  O   O14       1.0  0.86700  0.45000  0.75000  1.0000
  O   O15       1.0  0.02870  0.25000  0.85800  1.0000
  O   O16       1.0  0.72100  0.25000  0.86300  1.0000
  S   S1        1.0  0.13000  0.75000  0.19800  1.0000
  S   S2        1.0  0.63000  0.75000  0.30200  1.0000
  S   S3        1.0  0.37000  0.25000  0.69800  1.0000
  S   S4        1.0  0.87000  0.25000  0.80200  1.0000
