data_image0
_chemical_formula_structural       Fe12Sc8Si20
_chemical_formula_sum              "Fe12 Sc8 Si20"
_cell_length_a       10.1319
_cell_length_b       10.1319
_cell_length_c       5.26165
_cell_angle_alpha    90
_cell_angle_beta     90
_cell_angle_gamma    90

_space_group_name_H-M_alt    "P 1"
_space_group_IT_number       1

loop_
  _space_group_symop_operation_xyz
  'x, y, z'

loop_
  _atom_site_type_symbol
  _atom_site_label
  _atom_site_symmetry_multiplicity
  _atom_site_fract_x
  _atom_site_fract_y
  _atom_site_fract_z
  _atom_site_occupancy
  Fe  Fe1       1.0  0.37700  0.35700  0.00000  1.0000
  Fe  Fe2       1.0  0.64300  0.37700  0.00000  1.0000
  Fe  Fe3       1.0  0.35700  0.62300  0.00000  1.0000
  Fe  Fe4       1.0  0.62300  0.64300  0.00000  1.0000
  Fe  Fe5       1.0  0.50000  0.00000  0.25000  1.0000
  Fe  Fe6       1.0  0.00000  0.50000  0.25000  1.0000
  Fe  Fe7       1.0  0.14300  0.12300  0.50000  1.0000
  Fe  Fe8       1.0  0.87700  0.14300  0.50000  1.0000
  Fe  Fe9       1.0  0.12300  0.85700  0.50000  1.0000
  Fe  Fe10      1.0  0.85700  0.87700  0.50000  1.0000
  Fe  Fe11      1.0  0.50000  0.00000  0.75000  1.0000
  Fe  Fe12      1.0  0.00000  0.50000  0.75000  1.0000
  Sc  Sc1       1.0  0.76400  0.06810  0.00000  1.0000
  Sc  Sc2       1.0  0.06810  0.23600  0.00000  1.0000
  Sc  Sc3       1.0  0.93200  0.76400  0.00000  1.0000
  Sc  Sc4       1.0  0.23600  0.93200  0.00000  1.0000
  Sc  Sc5       1.0  0.56800  0.26400  0.50000  1.0000
  Sc  Sc6       1.0  0.26400  0.43200  0.50000  1.0000
  Sc  Sc7       1.0  0.73600  0.56800  0.50000  1.0000
  Sc  Sc8       1.0  0.43200  0.73600  0.50000  1.0000
  Si  Si1       1.0  0.52800  0.18100  0.00000  1.0000
  Si  Si2       1.0  0.18100  0.47200  0.00000  1.0000
  Si  Si3       1.0  0.81900  0.52800  0.00000  1.0000
  Si  Si4       1.0  0.47200  0.81900  0.00000  1.0000
  Si  Si5       1.0  0.00000  0.00000  0.24600  1.0000
  Si  Si6       1.0  0.32200  0.17800  0.25000  1.0000
  Si  Si7       1.0  0.82200  0.32200  0.25000  1.0000
  Si  Si8       1.0  0.17800  0.67800  0.25000  1.0000
  Si  Si9       1.0  0.67800  0.82200  0.25000  1.0000
  Si  Si10      1.0  0.50000  0.50000  0.25400  1.0000
  Si  Si11      1.0  0.68100  0.02840  0.50000  1.0000
  Si  Si12      1.0  0.02840  0.31900  0.50000  1.0000
  Si  Si13      1.0  0.97200  0.68100  0.50000  1.0000
  Si  Si14      1.0  0.31900  0.97200  0.50000  1.0000
  Si  Si15      1.0  0.50000  0.50000  0.74600  1.0000
  Si  Si16      1.0  0.32200  0.17800  0.75000  1.0000
  Si  Si17      1.0  0.82200  0.32200  0.75000  1.0000
  Si  Si18      1.0  0.17800  0.67800  0.75000  1.0000
  Si  Si19      1.0  0.67800  0.82200  0.75000  1.0000
  Si  Si20      1.0  0.00000  0.00000  0.75400  1.0000
