data_image0
_chemical_formula_structural       Br8S28Te4
_chemical_formula_sum              "Br8 S28 Te4"
_cell_length_a       9.14416
_cell_length_b       9.90525
_cell_length_c       13.6081
_cell_angle_alpha    90
_cell_angle_beta     90
_cell_angle_gamma    90

_space_group_name_H-M_alt    "P 1"
_space_group_IT_number       1

loop_
  _space_group_symop_operation_xyz
  'x, y, z'

loop_
  _atom_site_type_symbol
  _atom_site_label
  _atom_site_symmetry_multiplicity
  _atom_site_fract_x
  _atom_site_fract_y
  _atom_site_fract_z
  _atom_site_occupancy
  Br  Br1       1.0  0.25000  0.98800  0.03540  1.0000
  Br  Br2       1.0  0.75000  0.43300  0.20500  1.0000
  Br  Br3       1.0  0.75000  0.93300  0.29500  1.0000
  Br  Br4       1.0  0.25000  0.48800  0.46500  1.0000
  Br  Br5       1.0  0.75000  0.51200  0.53500  1.0000
  Br  Br6       1.0  0.25000  0.06750  0.70500  1.0000
  Br  Br7       1.0  0.25000  0.56700  0.79500  1.0000
  Br  Br8       1.0  0.75000  0.01230  0.96500  1.0000
  S   S1        1.0  0.53700  0.32700  0.01940  1.0000
  S   S2        1.0  0.96300  0.32700  0.01940  1.0000
  S   S3        1.0  0.52500  0.76200  0.10600  1.0000
  S   S4        1.0  0.97500  0.76200  0.10600  1.0000
  S   S5        1.0  0.06870  0.65500  0.22200  1.0000
  S   S6        1.0  0.43100  0.65500  0.22200  1.0000
  S   S7        1.0  0.25000  0.25600  0.22600  1.0000
  S   S8        1.0  0.25000  0.75600  0.27400  1.0000
  S   S9        1.0  0.06870  0.15500  0.27800  1.0000
  S   S10       1.0  0.43100  0.15500  0.27800  1.0000
  S   S11       1.0  0.52500  0.26200  0.39400  1.0000
  S   S12       1.0  0.97500  0.26200  0.39400  1.0000
  S   S13       1.0  0.53700  0.82700  0.48100  1.0000
  S   S14       1.0  0.96300  0.82700  0.48100  1.0000
  S   S15       1.0  0.03650  0.17300  0.51900  1.0000
  S   S16       1.0  0.46300  0.17300  0.51900  1.0000
  S   S17       1.0  0.02530  0.73800  0.60600  1.0000
  S   S18       1.0  0.47500  0.73800  0.60600  1.0000
  S   S19       1.0  0.56900  0.84500  0.72200  1.0000
  S   S20       1.0  0.93100  0.84500  0.72200  1.0000
  S   S21       1.0  0.75000  0.24400  0.72600  1.0000
  S   S22       1.0  0.75000  0.74400  0.77400  1.0000
  S   S23       1.0  0.56900  0.34500  0.77800  1.0000
  S   S24       1.0  0.93100  0.34500  0.77800  1.0000
  S   S25       1.0  0.02530  0.23800  0.89400  1.0000
  S   S26       1.0  0.47500  0.23800  0.89400  1.0000
  S   S27       1.0  0.03650  0.67300  0.98100  1.0000
  S   S28       1.0  0.46300  0.67300  0.98100  1.0000
  Te  Te1       1.0  0.75000  0.20300  0.09550  1.0000
  Te  Te2       1.0  0.75000  0.70300  0.40400  1.0000
  Te  Te3       1.0  0.25000  0.29700  0.59600  1.0000
  Te  Te4       1.0  0.25000  0.79700  0.90400  1.0000
