data_image0
_chemical_formula_structural       Al28Cu8Fe4
_chemical_formula_sum              "Al28 Cu8 Fe4"
_cell_length_a       6.317
_cell_length_b       6.317
_cell_length_c       14.7381
_cell_angle_alpha    90
_cell_angle_beta     90
_cell_angle_gamma    90

_space_group_name_H-M_alt    "P 1"
_space_group_IT_number       1

loop_
  _space_group_symop_operation_xyz
  'x, y, z'

loop_
  _atom_site_type_symbol
  _atom_site_label
  _atom_site_symmetry_multiplicity
  _atom_site_fract_x
  _atom_site_fract_y
  _atom_site_fract_z
  _atom_site_occupancy
  Al  Al1       1.0  0.58400  0.20600  0.09980  1.0000
  Al  Al2       1.0  0.20600  0.41600  0.09980  1.0000
  Al  Al3       1.0  0.79400  0.58400  0.09980  1.0000
  Al  Al4       1.0  0.41600  0.79400  0.09980  1.0000
  Al  Al5       1.0  0.00000  0.00000  0.13300  1.0000
  Al  Al6       1.0  0.33600  0.16400  0.25000  1.0000
  Al  Al7       1.0  0.83600  0.33600  0.25000  1.0000
  Al  Al8       1.0  0.16400  0.66400  0.25000  1.0000
  Al  Al9       1.0  0.66400  0.83600  0.25000  1.0000
  Al  Al10      1.0  0.50000  0.50000  0.36700  1.0000
  Al  Al11      1.0  0.70600  0.08400  0.40000  1.0000
  Al  Al12      1.0  0.08400  0.29400  0.40000  1.0000
  Al  Al13      1.0  0.91600  0.70600  0.40000  1.0000
  Al  Al14      1.0  0.29400  0.91600  0.40000  1.0000
  Al  Al15      1.0  0.70600  0.08400  0.60000  1.0000
  Al  Al16      1.0  0.08400  0.29400  0.60000  1.0000
  Al  Al17      1.0  0.91600  0.70600  0.60000  1.0000
  Al  Al18      1.0  0.29400  0.91600  0.60000  1.0000
  Al  Al19      1.0  0.50000  0.50000  0.63300  1.0000
  Al  Al20      1.0  0.33600  0.16400  0.75000  1.0000
  Al  Al21      1.0  0.83600  0.33600  0.75000  1.0000
  Al  Al22      1.0  0.16400  0.66400  0.75000  1.0000
  Al  Al23      1.0  0.66400  0.83600  0.75000  1.0000
  Al  Al24      1.0  0.00000  0.00000  0.86700  1.0000
  Al  Al25      1.0  0.58400  0.20600  0.90000  1.0000
  Al  Al26      1.0  0.20600  0.41600  0.90000  1.0000
  Al  Al27      1.0  0.79400  0.58400  0.90000  1.0000
  Al  Al28      1.0  0.41600  0.79400  0.90000  1.0000
  Cu  Cu1       1.0  0.27100  0.08670  0.00000  1.0000
  Cu  Cu2       1.0  0.91300  0.27100  0.00000  1.0000
  Cu  Cu3       1.0  0.08670  0.72900  0.00000  1.0000
  Cu  Cu4       1.0  0.72900  0.91300  0.00000  1.0000
  Cu  Cu5       1.0  0.41300  0.22900  0.50000  1.0000
  Cu  Cu6       1.0  0.77100  0.41300  0.50000  1.0000
  Cu  Cu7       1.0  0.22900  0.58700  0.50000  1.0000
  Cu  Cu8       1.0  0.58700  0.77100  0.50000  1.0000
  Fe  Fe1       1.0  0.50000  0.50000  0.20100  1.0000
  Fe  Fe2       1.0  0.00000  0.00000  0.29900  1.0000
  Fe  Fe3       1.0  0.00000  0.00000  0.70100  1.0000
  Fe  Fe4       1.0  0.50000  0.50000  0.79900  1.0000
