data_image0
_chemical_formula_structural       Ba4Ca4F28Ga4
_chemical_formula_sum              "Ba4 Ca4 F28 Ga4"
_cell_length_a       5.31135
_cell_length_b       5.32315
_cell_length_c       18.7932
_cell_angle_alpha    90
_cell_angle_beta     92.3621
_cell_angle_gamma    90

_space_group_name_H-M_alt    "P 1"
_space_group_IT_number       1

loop_
  _space_group_symop_operation_xyz
  'x, y, z'

loop_
  _atom_site_type_symbol
  _atom_site_label
  _atom_site_symmetry_multiplicity
  _atom_site_fract_x
  _atom_site_fract_y
  _atom_site_fract_z
  _atom_site_occupancy
  Ba  Ba1       1.0  0.74500  0.76700  0.06770  1.0000
  Ba  Ba2       1.0  0.75500  0.76700  0.43200  1.0000
  Ba  Ba3       1.0  0.24500  0.23300  0.56800  1.0000
  Ba  Ba4       1.0  0.25500  0.23300  0.93200  1.0000
  Ca  Ca1       1.0  0.25000  0.79400  0.25000  1.0000
  Ca  Ca2       1.0  0.75000  0.32200  0.25000  1.0000
  Ca  Ca3       1.0  0.25000  0.67800  0.75000  1.0000
  Ca  Ca4       1.0  0.75000  0.20600  0.75000  1.0000
  F   F1        1.0  0.57100  0.28200  0.05680  1.0000
  F   F2        1.0  0.08580  0.41000  0.05910  1.0000
  F   F3        1.0  0.22600  0.93400  0.06220  1.0000
  F   F4        1.0  0.42400  0.50000  0.17500  1.0000
  F   F5        1.0  0.52900  0.02150  0.17800  1.0000
  F   F6        1.0  0.05230  0.12700  0.18300  1.0000
  F   F7        1.0  0.92500  0.62800  0.19000  1.0000
  F   F8        1.0  0.57500  0.62800  0.31000  1.0000
  F   F9        1.0  0.44800  0.12700  0.31700  1.0000
  F   F10       1.0  0.97100  0.02150  0.32200  1.0000
  F   F11       1.0  0.07600  0.50000  0.32500  1.0000
  F   F12       1.0  0.27400  0.93400  0.43800  1.0000
  F   F13       1.0  0.41400  0.41000  0.44100  1.0000
  F   F14       1.0  0.92900  0.28200  0.44300  1.0000
  F   F15       1.0  0.07070  0.71800  0.55700  1.0000
  F   F16       1.0  0.58600  0.59000  0.55900  1.0000
  F   F17       1.0  0.72600  0.06650  0.56200  1.0000
  F   F18       1.0  0.92400  0.50000  0.67500  1.0000
  F   F19       1.0  0.02910  0.97800  0.67800  1.0000
  F   F20       1.0  0.55200  0.87300  0.68300  1.0000
  F   F21       1.0  0.42500  0.37200  0.69000  1.0000
  F   F22       1.0  0.07520  0.37200  0.81000  1.0000
  F   F23       1.0  0.94800  0.87300  0.81700  1.0000
  F   F24       1.0  0.47100  0.97800  0.82200  1.0000
  F   F25       1.0  0.57600  0.50000  0.82500  1.0000
  F   F26       1.0  0.77400  0.06650  0.93800  1.0000
  F   F27       1.0  0.91400  0.59000  0.94100  1.0000
  F   F28       1.0  0.42900  0.71800  0.94300  1.0000
  Ga  Ga1       1.0  0.29800  0.22600  0.11900  1.0000
  Ga  Ga2       1.0  0.20200  0.22600  0.38100  1.0000
  Ga  Ga3       1.0  0.79800  0.77400  0.61900  1.0000
  Ga  Ga4       1.0  0.70200  0.77400  0.88100  1.0000
