data_image0
_chemical_formula_structural       Mn6O18S6
_chemical_formula_sum              "Mn6 O18 S6"
_cell_length_a       7.87906
_cell_length_b       7.87906
_cell_length_c       7.87906
_cell_angle_alpha    109.245
_cell_angle_beta     109.245
_cell_angle_gamma    109.245

_space_group_name_H-M_alt    "P 1"
_space_group_IT_number       1

loop_
  _space_group_symop_operation_xyz
  'x, y, z'

loop_
  _atom_site_type_symbol
  _atom_site_label
  _atom_site_symmetry_multiplicity
  _atom_site_fract_x
  _atom_site_fract_y
  _atom_site_fract_z
  _atom_site_occupancy
  Mn  Mn1       1.0  0.68200  0.36700  0.18700  1.0000
  Mn  Mn2       1.0  0.63300  0.81300  0.31800  1.0000
  Mn  Mn3       1.0  0.18700  0.68200  0.36700  1.0000
  Mn  Mn4       1.0  0.81300  0.31800  0.63300  1.0000
  Mn  Mn5       1.0  0.36700  0.18700  0.68200  1.0000
  Mn  Mn6       1.0  0.31800  0.63300  0.81300  1.0000
  O   O1        1.0  0.62900  0.69300  0.02040  1.0000
  O   O2        1.0  0.41100  0.86700  0.11600  1.0000
  O   O3        1.0  0.88400  0.58900  0.13300  1.0000
  O   O4        1.0  0.34100  0.55200  0.23400  1.0000
  O   O5        1.0  0.98000  0.37100  0.30700  1.0000
  O   O6        1.0  0.55200  0.23400  0.34100  1.0000
  O   O7        1.0  0.30700  0.98000  0.37100  1.0000
  O   O8        1.0  0.86700  0.11600  0.41100  1.0000
  O   O9        1.0  0.76600  0.65900  0.44800  1.0000
  O   O10       1.0  0.23400  0.34100  0.55200  1.0000
  O   O11       1.0  0.13300  0.88400  0.58900  1.0000
  O   O12       1.0  0.69300  0.02040  0.62900  1.0000
  O   O13       1.0  0.44800  0.76600  0.65900  1.0000
  O   O14       1.0  0.02040  0.62900  0.69300  1.0000
  O   O15       1.0  0.65900  0.44800  0.76600  1.0000
  O   O16       1.0  0.11600  0.41100  0.86700  1.0000
  O   O17       1.0  0.58900  0.13300  0.88400  1.0000
  O   O18       1.0  0.37100  0.30700  0.98000  1.0000
  S   S1        1.0  0.20700  0.34700  0.02590  1.0000
  S   S2        1.0  0.34700  0.02590  0.20700  1.0000
  S   S3        1.0  0.02590  0.20700  0.34700  1.0000
  S   S4        1.0  0.97400  0.79300  0.65300  1.0000
  S   S5        1.0  0.65300  0.97400  0.79300  1.0000
  S   S6        1.0  0.79300  0.65300  0.97400  1.0000
