data_image0
_chemical_formula_structural       H8K8O20Ru4
_chemical_formula_sum              "H8 K8 O20 Ru4"
_cell_length_a       7.90754
_cell_length_b       6.63812
_cell_length_c       10.4171
_cell_angle_alpha    90
_cell_angle_beta     90
_cell_angle_gamma    90

_space_group_name_H-M_alt    "P 1"
_space_group_IT_number       1

loop_
  _space_group_symop_operation_xyz
  'x, y, z'

loop_
  _atom_site_type_symbol
  _atom_site_label
  _atom_site_symmetry_multiplicity
  _atom_site_fract_x
  _atom_site_fract_y
  _atom_site_fract_z
  _atom_site_occupancy
  H   H1        1.0  0.52900  0.59300  0.04380  1.0000
  H   H2        1.0  0.32700  0.39600  0.15100  1.0000
  H   H3        1.0  0.67300  0.89600  0.34900  1.0000
  H   H4        1.0  0.47100  0.09310  0.45600  1.0000
  H   H5        1.0  0.97100  0.40700  0.54400  1.0000
  H   H6        1.0  0.17300  0.60400  0.65100  1.0000
  H   H7        1.0  0.82700  0.10400  0.84900  1.0000
  H   H8        1.0  0.02860  0.90700  0.95600  1.0000
  K   K1        1.0  0.98900  0.29100  0.06190  1.0000
  K   K2        1.0  0.35500  0.88200  0.20700  1.0000
  K   K3        1.0  0.64500  0.38200  0.29300  1.0000
  K   K4        1.0  0.01060  0.79100  0.43800  1.0000
  K   K5        1.0  0.51100  0.70900  0.56200  1.0000
  K   K6        1.0  0.14500  0.11800  0.70700  1.0000
  K   K7        1.0  0.85500  0.61800  0.79300  1.0000
  K   K8        1.0  0.48900  0.20900  0.93800  1.0000
  O   O1        1.0  0.40400  0.57500  0.04650  1.0000
  O   O2        1.0  0.75200  0.59700  0.06980  1.0000
  O   O3        1.0  0.67100  0.05490  0.12300  1.0000
  O   O4        1.0  0.01600  0.88200  0.19300  1.0000
  O   O5        1.0  0.29200  0.27000  0.19600  1.0000
  O   O6        1.0  0.70800  0.77000  0.30400  1.0000
  O   O7        1.0  0.98400  0.38200  0.30700  1.0000
  O   O8        1.0  0.32900  0.55500  0.37700  1.0000
  O   O9        1.0  0.24800  0.09740  0.43000  1.0000
  O   O10       1.0  0.59600  0.07540  0.45400  1.0000
  O   O11       1.0  0.09590  0.42500  0.54600  1.0000
  O   O12       1.0  0.74800  0.40300  0.57000  1.0000
  O   O13       1.0  0.82900  0.94500  0.62300  1.0000
  O   O14       1.0  0.48400  0.11800  0.69300  1.0000
  O   O15       1.0  0.20800  0.73000  0.69600  1.0000
  O   O16       1.0  0.79200  0.23000  0.80400  1.0000
  O   O17       1.0  0.51600  0.61800  0.80700  1.0000
  O   O18       1.0  0.17100  0.44500  0.87700  1.0000
  O   O19       1.0  0.25200  0.90300  0.93000  1.0000
  O   O20       1.0  0.90400  0.92500  0.95400  1.0000
  Ru  Ru1       1.0  0.81000  0.84200  0.13100  1.0000
  Ru  Ru2       1.0  0.19000  0.34200  0.36900  1.0000
  Ru  Ru3       1.0  0.69000  0.15800  0.63100  1.0000
  Ru  Ru4       1.0  0.31000  0.65800  0.86900  1.0000
