data_image0
_chemical_formula_structural       Cs4H16N8O8P4
_chemical_formula_sum              "Cs4 H16 N8 O8 P4"
_cell_length_a       5.52033
_cell_length_b       5.52033
_cell_length_c       15.1837
_cell_angle_alpha    90
_cell_angle_beta     90
_cell_angle_gamma    90

_space_group_name_H-M_alt    "P 1"
_space_group_IT_number       1

loop_
  _space_group_symop_operation_xyz
  'x, y, z'

loop_
  _atom_site_type_symbol
  _atom_site_label
  _atom_site_symmetry_multiplicity
  _atom_site_fract_x
  _atom_site_fract_y
  _atom_site_fract_z
  _atom_site_occupancy
  Cs  Cs1       1.0  0.64600  0.64600  0.00000  1.0000
  Cs  Cs2       1.0  0.14600  0.85400  0.25000  1.0000
  Cs  Cs3       1.0  0.35400  0.35400  0.50000  1.0000
  Cs  Cs4       1.0  0.85400  0.14600  0.75000  1.0000
  H   H1        1.0  0.13400  0.49700  0.06080  1.0000
  H   H2        1.0  0.29600  0.28800  0.11600  1.0000
  H   H3        1.0  0.79600  0.21200  0.13400  1.0000
  H   H4        1.0  0.63400  0.00316  0.18900  1.0000
  H   H5        1.0  0.99700  0.36600  0.31100  1.0000
  H   H6        1.0  0.78800  0.20400  0.36600  1.0000
  H   H7        1.0  0.71200  0.70400  0.38400  1.0000
  H   H8        1.0  0.50300  0.86600  0.43900  1.0000
  H   H9        1.0  0.86600  0.50300  0.56100  1.0000
  H   H10       1.0  0.70400  0.71200  0.61600  1.0000
  H   H11       1.0  0.20400  0.78800  0.63400  1.0000
  H   H12       1.0  0.36600  0.99700  0.68900  1.0000
  H   H13       1.0  0.00316  0.63400  0.81100  1.0000
  H   H14       1.0  0.21200  0.79600  0.86600  1.0000
  H   H15       1.0  0.28800  0.29600  0.88400  1.0000
  H   H16       1.0  0.49700  0.13400  0.93900  1.0000
  N   N1        1.0  0.14000  0.31800  0.08020  1.0000
  N   N2        1.0  0.64000  0.18200  0.17000  1.0000
  N   N3        1.0  0.81800  0.36000  0.33000  1.0000
  N   N4        1.0  0.68200  0.86000  0.42000  1.0000
  N   N5        1.0  0.86000  0.68200  0.58000  1.0000
  N   N6        1.0  0.36000  0.81800  0.67000  1.0000
  N   N7        1.0  0.18200  0.64000  0.83000  1.0000
  N   N8        1.0  0.31800  0.14000  0.92000  1.0000
  O   O1        1.0  0.15200  0.86500  0.04420  1.0000
  O   O2        1.0  0.65200  0.63500  0.20600  1.0000
  O   O3        1.0  0.36500  0.34800  0.29400  1.0000
  O   O4        1.0  0.13500  0.84800  0.45600  1.0000
  O   O5        1.0  0.84800  0.13500  0.54400  1.0000
  O   O6        1.0  0.34800  0.36500  0.70600  1.0000
  O   O7        1.0  0.63500  0.65200  0.79400  1.0000
  O   O8        1.0  0.86500  0.15200  0.95600  1.0000
  P   P1        1.0  0.10800  0.10800  0.00000  1.0000
  P   P2        1.0  0.60800  0.39200  0.25000  1.0000
  P   P3        1.0  0.89200  0.89200  0.50000  1.0000
  P   P4        1.0  0.39200  0.60800  0.75000  1.0000
