data_image0
_chemical_formula_structural       Mg2Na4O24Si10
_chemical_formula_sum              "Mg2 Na4 O24 Si10"
_cell_length_a       9.38927
_cell_length_b       8.60745
_cell_length_c       5.25951
_cell_angle_alpha    90
_cell_angle_beta     107.993
_cell_angle_gamma    90

_space_group_name_H-M_alt    "P 1"
_space_group_IT_number       1

loop_
  _space_group_symop_operation_xyz
  'x, y, z'

loop_
  _atom_site_type_symbol
  _atom_site_label
  _atom_site_symmetry_multiplicity
  _atom_site_fract_x
  _atom_site_fract_y
  _atom_site_fract_z
  _atom_site_occupancy
  Mg  Mg1       1.0  0.75000  0.65700  0.25000  1.0000
  Mg  Mg2       1.0  0.25000  0.34300  0.75000  1.0000
  Na  Na1       1.0  0.25000  0.54400  0.25000  1.0000
  Na  Na2       1.0  0.75000  0.05290  0.25000  1.0000
  Na  Na3       1.0  0.25000  0.94700  0.75000  1.0000
  Na  Na4       1.0  0.75000  0.45600  0.75000  1.0000
  O   O1        1.0  0.59500  0.24900  0.00648  1.0000
  O   O2        1.0  0.11400  0.76700  0.01080  1.0000
  O   O3        1.0  0.86100  0.84400  0.10400  1.0000
  O   O4        1.0  0.35600  0.31000  0.15600  1.0000
  O   O5        1.0  0.37800  0.01730  0.19200  1.0000
  O   O6        1.0  0.90200  0.51000  0.20700  1.0000
  O   O7        1.0  0.59800  0.51000  0.29300  1.0000
  O   O8        1.0  0.12200  0.01730  0.30800  1.0000
  O   O9        1.0  0.14400  0.31000  0.34400  1.0000
  O   O10       1.0  0.63900  0.84400  0.39600  1.0000
  O   O11       1.0  0.38600  0.76700  0.48900  1.0000
  O   O12       1.0  0.90500  0.24900  0.49400  1.0000
  O   O13       1.0  0.09510  0.75100  0.50600  1.0000
  O   O14       1.0  0.61400  0.23300  0.51100  1.0000
  O   O15       1.0  0.36100  0.15600  0.60400  1.0000
  O   O16       1.0  0.85600  0.69000  0.65600  1.0000
  O   O17       1.0  0.87800  0.98300  0.69200  1.0000
  O   O18       1.0  0.40200  0.49000  0.70700  1.0000
  O   O19       1.0  0.09750  0.49000  0.79300  1.0000
  O   O20       1.0  0.62200  0.98300  0.80800  1.0000
  O   O21       1.0  0.64400  0.69000  0.84400  1.0000
  O   O22       1.0  0.13900  0.15600  0.89600  1.0000
  O   O23       1.0  0.88600  0.23300  0.98900  1.0000
  O   O24       1.0  0.40500  0.75100  0.99400  1.0000
  Si  Si1       1.0  0.04480  0.84900  0.22600  1.0000
  Si  Si2       1.0  0.53800  0.33700  0.23500  1.0000
  Si  Si3       1.0  0.25000  0.15400  0.25000  1.0000
  Si  Si4       1.0  0.96200  0.33700  0.26500  1.0000
  Si  Si5       1.0  0.45500  0.84900  0.27400  1.0000
  Si  Si6       1.0  0.54500  0.15100  0.72600  1.0000
  Si  Si7       1.0  0.03760  0.66300  0.73500  1.0000
  Si  Si8       1.0  0.75000  0.84600  0.75000  1.0000
  Si  Si9       1.0  0.46200  0.66300  0.76500  1.0000
  Si  Si10      1.0  0.95500  0.15100  0.77400  1.0000
