data_image0
_chemical_formula_structural       Os12Si20Tb8
_chemical_formula_sum              "Os12 Si20 Tb8"
_cell_length_a       10.7433
_cell_length_b       10.7433
_cell_length_c       5.69288
_cell_angle_alpha    90
_cell_angle_beta     90
_cell_angle_gamma    90

_space_group_name_H-M_alt    "P 1"
_space_group_IT_number       1

loop_
  _space_group_symop_operation_xyz
  'x, y, z'

loop_
  _atom_site_type_symbol
  _atom_site_label
  _atom_site_symmetry_multiplicity
  _atom_site_fract_x
  _atom_site_fract_y
  _atom_site_fract_z
  _atom_site_occupancy
  Os  Os1       1.0  0.14600  0.12500  0.00000  1.0000
  Os  Os2       1.0  0.87500  0.14600  0.00000  1.0000
  Os  Os3       1.0  0.12500  0.85400  0.00000  1.0000
  Os  Os4       1.0  0.85400  0.87500  0.00000  1.0000
  Os  Os5       1.0  0.50000  0.00000  0.25000  1.0000
  Os  Os6       1.0  0.00000  0.50000  0.25000  1.0000
  Os  Os7       1.0  0.37500  0.35400  0.50000  1.0000
  Os  Os8       1.0  0.64600  0.37500  0.50000  1.0000
  Os  Os9       1.0  0.35400  0.62500  0.50000  1.0000
  Os  Os10      1.0  0.62500  0.64600  0.50000  1.0000
  Os  Os11      1.0  0.50000  0.00000  0.75000  1.0000
  Os  Os12      1.0  0.00000  0.50000  0.75000  1.0000
  Si  Si1       1.0  0.68000  0.02640  0.00000  1.0000
  Si  Si2       1.0  0.02640  0.32000  0.00000  1.0000
  Si  Si3       1.0  0.97400  0.68000  0.00000  1.0000
  Si  Si4       1.0  0.32000  0.97400  0.00000  1.0000
  Si  Si5       1.0  0.00000  0.00000  0.24500  1.0000
  Si  Si6       1.0  0.32700  0.17300  0.25000  1.0000
  Si  Si7       1.0  0.82700  0.32700  0.25000  1.0000
  Si  Si8       1.0  0.17300  0.67300  0.25000  1.0000
  Si  Si9       1.0  0.67300  0.82700  0.25000  1.0000
  Si  Si10      1.0  0.50000  0.50000  0.25500  1.0000
  Si  Si11      1.0  0.52600  0.18000  0.50000  1.0000
  Si  Si12      1.0  0.18000  0.47400  0.50000  1.0000
  Si  Si13      1.0  0.82000  0.52600  0.50000  1.0000
  Si  Si14      1.0  0.47400  0.82000  0.50000  1.0000
  Si  Si15      1.0  0.50000  0.50000  0.74500  1.0000
  Si  Si16      1.0  0.32700  0.17300  0.75000  1.0000
  Si  Si17      1.0  0.82700  0.32700  0.75000  1.0000
  Si  Si18      1.0  0.17300  0.67300  0.75000  1.0000
  Si  Si19      1.0  0.67300  0.82700  0.75000  1.0000
  Si  Si20      1.0  0.00000  0.00000  0.75500  1.0000
  Tb  Tb1       1.0  0.57100  0.26500  0.00000  1.0000
  Tb  Tb2       1.0  0.26500  0.42900  0.00000  1.0000
  Tb  Tb3       1.0  0.73500  0.57100  0.00000  1.0000
  Tb  Tb4       1.0  0.42900  0.73500  0.00000  1.0000
  Tb  Tb5       1.0  0.76500  0.07070  0.50000  1.0000
  Tb  Tb6       1.0  0.07070  0.23500  0.50000  1.0000
  Tb  Tb7       1.0  0.92900  0.76500  0.50000  1.0000
  Tb  Tb8       1.0  0.23500  0.92900  0.50000  1.0000
