data_image0
_chemical_formula_structural       As16Zn24
_chemical_formula_sum              "As16 Zn24"
_cell_length_a       8.39387
_cell_length_b       8.39387
_cell_length_c       11.8531
_cell_angle_alpha    90
_cell_angle_beta     90
_cell_angle_gamma    90

_space_group_name_H-M_alt    "P 1"
_space_group_IT_number       1

loop_
  _space_group_symop_operation_xyz
  'x, y, z'

loop_
  _atom_site_type_symbol
  _atom_site_label
  _atom_site_symmetry_multiplicity
  _atom_site_fract_x
  _atom_site_fract_y
  _atom_site_fract_z
  _atom_site_occupancy
  As  As1       1.0  0.25300  0.25300  0.00000  1.0000
  As  As2       1.0  0.74700  0.25300  0.00000  1.0000
  As  As3       1.0  0.25300  0.74700  0.00000  1.0000
  As  As4       1.0  0.74700  0.74700  0.00000  1.0000
  As  As5       1.0  0.00000  0.00000  0.24500  1.0000
  As  As6       1.0  0.00000  0.50000  0.24700  1.0000
  As  As7       1.0  0.50000  0.00000  0.25300  1.0000
  As  As8       1.0  0.50000  0.50000  0.25500  1.0000
  As  As9       1.0  0.24700  0.24700  0.50000  1.0000
  As  As10      1.0  0.75300  0.24700  0.50000  1.0000
  As  As11      1.0  0.24700  0.75300  0.50000  1.0000
  As  As12      1.0  0.75300  0.75300  0.50000  1.0000
  As  As13      1.0  0.50000  0.50000  0.74500  1.0000
  As  As14      1.0  0.00000  0.50000  0.74700  1.0000
  As  As15      1.0  0.50000  0.00000  0.75300  1.0000
  As  As16      1.0  0.00000  0.00000  0.75500  1.0000
  Zn  Zn1       1.0  0.00000  0.22400  0.10900  1.0000
  Zn  Zn2       1.0  0.00000  0.77600  0.10900  1.0000
  Zn  Zn3       1.0  0.50000  0.22300  0.11600  1.0000
  Zn  Zn4       1.0  0.50000  0.77700  0.11600  1.0000
  Zn  Zn5       1.0  0.25400  0.50000  0.14700  1.0000
  Zn  Zn6       1.0  0.74600  0.50000  0.14700  1.0000
  Zn  Zn7       1.0  0.24600  0.00000  0.35300  1.0000
  Zn  Zn8       1.0  0.75400  0.00000  0.35300  1.0000
  Zn  Zn9       1.0  0.00000  0.27700  0.38400  1.0000
  Zn  Zn10      1.0  0.00000  0.72300  0.38400  1.0000
  Zn  Zn11      1.0  0.50000  0.27600  0.39100  1.0000
  Zn  Zn12      1.0  0.50000  0.72400  0.39100  1.0000
  Zn  Zn13      1.0  0.27600  0.50000  0.60900  1.0000
  Zn  Zn14      1.0  0.72400  0.50000  0.60900  1.0000
  Zn  Zn15      1.0  0.27700  0.00000  0.61600  1.0000
  Zn  Zn16      1.0  0.72300  0.00000  0.61600  1.0000
  Zn  Zn17      1.0  0.00000  0.24600  0.64700  1.0000
  Zn  Zn18      1.0  0.00000  0.75400  0.64700  1.0000
  Zn  Zn19      1.0  0.50000  0.25400  0.85300  1.0000
  Zn  Zn20      1.0  0.50000  0.74600  0.85300  1.0000
  Zn  Zn21      1.0  0.22300  0.50000  0.88400  1.0000
  Zn  Zn22      1.0  0.77700  0.50000  0.88400  1.0000
  Zn  Zn23      1.0  0.22400  0.00000  0.89100  1.0000
  Zn  Zn24      1.0  0.77600  0.00000  0.89100  1.0000
