data_image0
_chemical_formula_structural       Ce6Ga30Ni4
_chemical_formula_sum              "Ce6 Ga30 Ni4"
_cell_length_a       4.40081
_cell_length_b       4.40081
_cell_length_c       39.8567
_cell_angle_alpha    90
_cell_angle_beta     90
_cell_angle_gamma    90

_space_group_name_H-M_alt    "P 1"
_space_group_IT_number       1

loop_
  _space_group_symop_operation_xyz
  'x, y, z'

loop_
  _atom_site_type_symbol
  _atom_site_label
  _atom_site_symmetry_multiplicity
  _atom_site_fract_x
  _atom_site_fract_y
  _atom_site_fract_z
  _atom_site_occupancy
  Ce  Ce1       1.0  0.25000  0.25000  0.05890  1.0000
  Ce  Ce2       1.0  0.75000  0.75000  0.19400  1.0000
  Ce  Ce3       1.0  0.25000  0.25000  0.32900  1.0000
  Ce  Ce4       1.0  0.75000  0.75000  0.67100  1.0000
  Ce  Ce5       1.0  0.25000  0.25000  0.80600  1.0000
  Ce  Ce6       1.0  0.75000  0.75000  0.94100  1.0000
  Ga  Ga1       1.0  0.75000  0.75000  0.02560  1.0000
  Ga  Ga2       1.0  0.75000  0.75000  0.09000  1.0000
  Ga  Ga3       1.0  0.75000  0.25000  0.12700  1.0000
  Ga  Ga4       1.0  0.25000  0.75000  0.12700  1.0000
  Ga  Ga5       1.0  0.25000  0.25000  0.16300  1.0000
  Ga  Ga6       1.0  0.25000  0.25000  0.22600  1.0000
  Ga  Ga7       1.0  0.75000  0.25000  0.26100  1.0000
  Ga  Ga8       1.0  0.25000  0.75000  0.26100  1.0000
  Ga  Ga9       1.0  0.75000  0.75000  0.29600  1.0000
  Ga  Ga10      1.0  0.75000  0.75000  0.35800  1.0000
  Ga  Ga11      1.0  0.75000  0.25000  0.39300  1.0000
  Ga  Ga12      1.0  0.25000  0.75000  0.39300  1.0000
  Ga  Ga13      1.0  0.75000  0.25000  0.45700  1.0000
  Ga  Ga14      1.0  0.25000  0.75000  0.45700  1.0000
  Ga  Ga15      1.0  0.25000  0.25000  0.49900  1.0000
  Ga  Ga16      1.0  0.75000  0.75000  0.50100  1.0000
  Ga  Ga17      1.0  0.75000  0.25000  0.54300  1.0000
  Ga  Ga18      1.0  0.25000  0.75000  0.54300  1.0000
  Ga  Ga19      1.0  0.75000  0.25000  0.60700  1.0000
  Ga  Ga20      1.0  0.25000  0.75000  0.60700  1.0000
  Ga  Ga21      1.0  0.25000  0.25000  0.64200  1.0000
  Ga  Ga22      1.0  0.25000  0.25000  0.70400  1.0000
  Ga  Ga23      1.0  0.75000  0.25000  0.73900  1.0000
  Ga  Ga24      1.0  0.25000  0.75000  0.73900  1.0000
  Ga  Ga25      1.0  0.75000  0.75000  0.77400  1.0000
  Ga  Ga26      1.0  0.75000  0.75000  0.83700  1.0000
  Ga  Ga27      1.0  0.75000  0.25000  0.87300  1.0000
  Ga  Ga28      1.0  0.25000  0.75000  0.87300  1.0000
  Ga  Ga29      1.0  0.25000  0.25000  0.91000  1.0000
  Ga  Ga30      1.0  0.25000  0.25000  0.97400  1.0000
  Ni  Ni1       1.0  0.75000  0.25000  0.00000  1.0000
  Ni  Ni2       1.0  0.25000  0.75000  0.00000  1.0000
  Ni  Ni3       1.0  0.25000  0.25000  0.42700  1.0000
  Ni  Ni4       1.0  0.75000  0.75000  0.57300  1.0000
