data_image0
_chemical_formula_structural       F20H12N4P4
_chemical_formula_sum              "F20 H12 N4 P4"
_cell_length_a       7.98237
_cell_length_b       8.59907
_cell_length_c       4.51264
_cell_angle_alpha    90
_cell_angle_beta     91.8577
_cell_angle_gamma    90

_space_group_name_H-M_alt    "P 1"
_space_group_IT_number       1

loop_
  _space_group_symop_operation_xyz
  'x, y, z'

loop_
  _atom_site_type_symbol
  _atom_site_label
  _atom_site_symmetry_multiplicity
  _atom_site_fract_x
  _atom_site_fract_y
  _atom_site_fract_z
  _atom_site_occupancy
  F   F1        1.0  0.89600  0.78000  0.05310  1.0000
  F   F2        1.0  0.24900  0.73100  0.11000  1.0000
  F   F3        1.0  0.75200  0.00325  0.17400  1.0000
  F   F4        1.0  0.10400  0.51100  0.22600  1.0000
  F   F5        1.0  0.39500  0.51000  0.23700  1.0000
  F   F6        1.0  0.10500  0.01020  0.26300  1.0000
  F   F7        1.0  0.39600  0.01110  0.27400  1.0000
  F   F8        1.0  0.74800  0.50300  0.32600  1.0000
  F   F9        1.0  0.25100  0.23100  0.39000  1.0000
  F   F10       1.0  0.60400  0.28000  0.44700  1.0000
  F   F11       1.0  0.39600  0.72000  0.55300  1.0000
  F   F12       1.0  0.74900  0.76900  0.61000  1.0000
  F   F13       1.0  0.25200  0.49700  0.67400  1.0000
  F   F14       1.0  0.60400  0.98900  0.72600  1.0000
  F   F15       1.0  0.89500  0.99000  0.73700  1.0000
  F   F16       1.0  0.60500  0.49000  0.76300  1.0000
  F   F17       1.0  0.89600  0.48900  0.77400  1.0000
  F   F18       1.0  0.24800  0.99700  0.82600  1.0000
  F   F19       1.0  0.75100  0.26900  0.89000  1.0000
  F   F20       1.0  0.10400  0.22000  0.94700  1.0000
  H   H1        1.0  0.48100  0.27900  0.10600  1.0000
  H   H2        1.0  0.52000  0.84200  0.18400  1.0000
  H   H3        1.0  0.64500  0.68600  0.18800  1.0000
  H   H4        1.0  0.85500  0.18600  0.31200  1.0000
  H   H5        1.0  0.98000  0.34200  0.31600  1.0000
  H   H6        1.0  0.01910  0.77900  0.39400  1.0000
  H   H7        1.0  0.98100  0.22100  0.60600  1.0000
  H   H8        1.0  0.01970  0.65800  0.68400  1.0000
  H   H9        1.0  0.14500  0.81400  0.68800  1.0000
  H   H10       1.0  0.35500  0.31400  0.81200  1.0000
  H   H11       1.0  0.48000  0.15800  0.81600  1.0000
  H   H12       1.0  0.51900  0.72100  0.89400  1.0000
  N   N1        1.0  0.59400  0.77200  0.05710  1.0000
  N   N2        1.0  0.90600  0.27200  0.44300  1.0000
  N   N3        1.0  0.09400  0.72800  0.55700  1.0000
  N   N4        1.0  0.40600  0.22800  0.94300  1.0000
  P   P1        1.0  0.24700  0.11100  0.11200  1.0000
  P   P2        1.0  0.25300  0.61100  0.38800  1.0000
  P   P3        1.0  0.74700  0.38900  0.61200  1.0000
  P   P4        1.0  0.75300  0.88900  0.88800  1.0000
