data_image0
_chemical_formula_structural       F28K8Nb4
_chemical_formula_sum              "F28 K8 Nb4"
_cell_length_a       5.60903
_cell_length_b       12.2414
_cell_length_c       8.19902
_cell_angle_alpha    90
_cell_angle_beta     90.0442
_cell_angle_gamma    90

_space_group_name_H-M_alt    "P 1"
_space_group_IT_number       1

loop_
  _space_group_symop_operation_xyz
  'x, y, z'

loop_
  _atom_site_type_symbol
  _atom_site_label
  _atom_site_symmetry_multiplicity
  _atom_site_fract_x
  _atom_site_fract_y
  _atom_site_fract_z
  _atom_site_occupancy
  F   F1        1.0  0.82000  0.88100  0.00918  1.0000
  F   F2        1.0  0.52400  0.60900  0.08350  1.0000
  F   F3        1.0  0.96700  0.60600  0.10200  1.0000
  F   F4        1.0  0.57400  0.07320  0.12200  1.0000
  F   F5        1.0  0.03510  0.24800  0.19700  1.0000
  F   F6        1.0  0.47100  0.26100  0.20400  1.0000
  F   F7        1.0  0.21400  0.96900  0.21800  1.0000
  F   F8        1.0  0.78600  0.46900  0.28200  1.0000
  F   F9        1.0  0.52900  0.76100  0.29600  1.0000
  F   F10       1.0  0.96500  0.74800  0.30300  1.0000
  F   F11       1.0  0.42600  0.57300  0.37800  1.0000
  F   F12       1.0  0.03260  0.10600  0.39800  1.0000
  F   F13       1.0  0.47600  0.10900  0.41600  1.0000
  F   F14       1.0  0.18000  0.38100  0.49100  1.0000
  F   F15       1.0  0.82000  0.61900  0.50900  1.0000
  F   F16       1.0  0.52400  0.89100  0.58400  1.0000
  F   F17       1.0  0.96700  0.89400  0.60200  1.0000
  F   F18       1.0  0.57400  0.42700  0.62200  1.0000
  F   F19       1.0  0.03510  0.25200  0.69700  1.0000
  F   F20       1.0  0.47100  0.23900  0.70400  1.0000
  F   F21       1.0  0.21400  0.53100  0.71800  1.0000
  F   F22       1.0  0.78600  0.03140  0.78200  1.0000
  F   F23       1.0  0.52900  0.73900  0.79600  1.0000
  F   F24       1.0  0.96500  0.75200  0.80300  1.0000
  F   F25       1.0  0.42600  0.92700  0.87800  1.0000
  F   F26       1.0  0.03260  0.39400  0.89800  1.0000
  F   F27       1.0  0.47600  0.39100  0.91600  1.0000
  F   F28       1.0  0.18000  0.11900  0.99100  1.0000
  K   K1        1.0  0.23900  0.78100  0.05470  1.0000
  K   K2        1.0  0.23800  0.44100  0.18000  1.0000
  K   K3        1.0  0.76200  0.94100  0.32000  1.0000
  K   K4        1.0  0.76100  0.28100  0.44500  1.0000
  K   K5        1.0  0.23900  0.71900  0.55500  1.0000
  K   K6        1.0  0.23800  0.05930  0.68000  1.0000
  K   K7        1.0  0.76200  0.55900  0.82000  1.0000
  K   K8        1.0  0.76100  0.21900  0.94500  1.0000
  Nb  Nb1       1.0  0.27000  0.12700  0.22100  1.0000
  Nb  Nb2       1.0  0.73000  0.62700  0.27900  1.0000
  Nb  Nb3       1.0  0.27000  0.37300  0.72100  1.0000
  Nb  Nb4       1.0  0.73000  0.87300  0.77900  1.0000
