data_image0
_chemical_formula_structural       Cl32Fe4P4
_chemical_formula_sum              "Cl32 Fe4 P4"
_cell_length_a       6.16139
_cell_length_b       13.4694
_cell_length_c       14.0104
_cell_angle_alpha    90
_cell_angle_beta     90
_cell_angle_gamma    90

_space_group_name_H-M_alt    "P 1"
_space_group_IT_number       1

loop_
  _space_group_symop_operation_xyz
  'x, y, z'

loop_
  _atom_site_type_symbol
  _atom_site_label
  _atom_site_symmetry_multiplicity
  _atom_site_fract_x
  _atom_site_fract_y
  _atom_site_fract_z
  _atom_site_occupancy
  Cl  Cl1       1.0  0.14000  0.35500  0.05100  1.0000
  Cl  Cl2       1.0  0.86000  0.85500  0.05100  1.0000
  Cl  Cl3       1.0  0.76900  0.19700  0.10100  1.0000
  Cl  Cl4       1.0  0.23100  0.69700  0.10100  1.0000
  Cl  Cl5       1.0  0.59500  0.46100  0.11900  1.0000
  Cl  Cl6       1.0  0.40500  0.96100  0.11900  1.0000
  Cl  Cl7       1.0  0.92000  0.00232  0.25000  1.0000
  Cl  Cl8       1.0  0.34000  0.18900  0.25000  1.0000
  Cl  Cl9       1.0  0.07960  0.50200  0.25000  1.0000
  Cl  Cl10      1.0  0.66000  0.68900  0.25000  1.0000
  Cl  Cl11      1.0  0.59500  0.46100  0.38100  1.0000
  Cl  Cl12      1.0  0.40500  0.96100  0.38100  1.0000
  Cl  Cl13      1.0  0.76900  0.19700  0.39900  1.0000
  Cl  Cl14      1.0  0.23100  0.69700  0.39900  1.0000
  Cl  Cl15      1.0  0.14000  0.35500  0.44900  1.0000
  Cl  Cl16      1.0  0.86000  0.85500  0.44900  1.0000
  Cl  Cl17      1.0  0.14000  0.14500  0.55100  1.0000
  Cl  Cl18      1.0  0.86000  0.64500  0.55100  1.0000
  Cl  Cl19      1.0  0.76900  0.30300  0.60100  1.0000
  Cl  Cl20      1.0  0.23100  0.80300  0.60100  1.0000
  Cl  Cl21      1.0  0.59500  0.03940  0.61900  1.0000
  Cl  Cl22      1.0  0.40500  0.53900  0.61900  1.0000
  Cl  Cl23      1.0  0.34000  0.31100  0.75000  1.0000
  Cl  Cl24      1.0  0.92000  0.49800  0.75000  1.0000
  Cl  Cl25      1.0  0.66000  0.81100  0.75000  1.0000
  Cl  Cl26      1.0  0.07960  0.99800  0.75000  1.0000
  Cl  Cl27      1.0  0.59500  0.03940  0.88100  1.0000
  Cl  Cl28      1.0  0.40500  0.53900  0.88100  1.0000
  Cl  Cl29      1.0  0.76900  0.30300  0.89900  1.0000
  Cl  Cl30      1.0  0.23100  0.80300  0.89900  1.0000
  Cl  Cl31      1.0  0.14000  0.14500  0.94900  1.0000
  Cl  Cl32      1.0  0.86000  0.64500  0.94900  1.0000
  Fe  Fe1       1.0  0.27200  0.02660  0.25000  1.0000
  Fe  Fe2       1.0  0.72800  0.52700  0.25000  1.0000
  Fe  Fe3       1.0  0.27200  0.47300  0.75000  1.0000
  Fe  Fe4       1.0  0.72800  0.97300  0.75000  1.0000
  P   P1        1.0  0.95500  0.25000  0.00000  1.0000
  P   P2        1.0  0.04540  0.75000  0.00000  1.0000
  P   P3        1.0  0.95500  0.25000  0.50000  1.0000
  P   P4        1.0  0.04540  0.75000  0.50000  1.0000
