data_image0
_chemical_formula_structural       Er8Fe12Si20
_chemical_formula_sum              "Er8 Fe12 Si20"
_cell_length_a       10.3158
_cell_length_b       10.3158
_cell_length_c       5.42212
_cell_angle_alpha    90
_cell_angle_beta     90
_cell_angle_gamma    90

_space_group_name_H-M_alt    "P 1"
_space_group_IT_number       1

loop_
  _space_group_symop_operation_xyz
  'x, y, z'

loop_
  _atom_site_type_symbol
  _atom_site_label
  _atom_site_symmetry_multiplicity
  _atom_site_fract_x
  _atom_site_fract_y
  _atom_site_fract_z
  _atom_site_occupancy
  Er  Er1       1.0  0.76400  0.06960  0.00000  1.0000
  Er  Er2       1.0  0.06960  0.23600  0.00000  1.0000
  Er  Er3       1.0  0.93000  0.76400  0.00000  1.0000
  Er  Er4       1.0  0.23600  0.93000  0.00000  1.0000
  Er  Er5       1.0  0.57000  0.26400  0.50000  1.0000
  Er  Er6       1.0  0.26400  0.43000  0.50000  1.0000
  Er  Er7       1.0  0.73600  0.57000  0.50000  1.0000
  Er  Er8       1.0  0.43000  0.73600  0.50000  1.0000
  Fe  Fe1       1.0  0.37700  0.35600  0.00000  1.0000
  Fe  Fe2       1.0  0.64400  0.37700  0.00000  1.0000
  Fe  Fe3       1.0  0.35600  0.62300  0.00000  1.0000
  Fe  Fe4       1.0  0.62300  0.64400  0.00000  1.0000
  Fe  Fe5       1.0  0.50000  0.00000  0.25000  1.0000
  Fe  Fe6       1.0  0.00000  0.50000  0.25000  1.0000
  Fe  Fe7       1.0  0.14400  0.12300  0.50000  1.0000
  Fe  Fe8       1.0  0.87700  0.14400  0.50000  1.0000
  Fe  Fe9       1.0  0.12300  0.85600  0.50000  1.0000
  Fe  Fe10      1.0  0.85600  0.87700  0.50000  1.0000
  Fe  Fe11      1.0  0.50000  0.00000  0.75000  1.0000
  Fe  Fe12      1.0  0.00000  0.50000  0.75000  1.0000
  Si  Si1       1.0  0.52300  0.18000  0.00000  1.0000
  Si  Si2       1.0  0.18000  0.47700  0.00000  1.0000
  Si  Si3       1.0  0.82000  0.52300  0.00000  1.0000
  Si  Si4       1.0  0.47700  0.82000  0.00000  1.0000
  Si  Si5       1.0  0.50000  0.50000  0.23600  1.0000
  Si  Si6       1.0  0.32300  0.17700  0.25000  1.0000
  Si  Si7       1.0  0.82300  0.32300  0.25000  1.0000
  Si  Si8       1.0  0.17700  0.67700  0.25000  1.0000
  Si  Si9       1.0  0.67700  0.82300  0.25000  1.0000
  Si  Si10      1.0  0.00000  0.00000  0.26400  1.0000
  Si  Si11      1.0  0.68000  0.02310  0.50000  1.0000
  Si  Si12      1.0  0.02310  0.32000  0.50000  1.0000
  Si  Si13      1.0  0.97700  0.68000  0.50000  1.0000
  Si  Si14      1.0  0.32000  0.97700  0.50000  1.0000
  Si  Si15      1.0  0.00000  0.00000  0.73600  1.0000
  Si  Si16      1.0  0.32300  0.17700  0.75000  1.0000
  Si  Si17      1.0  0.82300  0.32300  0.75000  1.0000
  Si  Si18      1.0  0.17700  0.67700  0.75000  1.0000
  Si  Si19      1.0  0.67700  0.82300  0.75000  1.0000
  Si  Si20      1.0  0.50000  0.50000  0.76400  1.0000
