data_image0
_chemical_formula_structural       C18Fe4O18
_chemical_formula_sum              "C18 Fe4 O18"
_cell_length_a       6.16143
_cell_length_b       6.1614
_cell_length_c       15.6116
_cell_angle_alpha    90
_cell_angle_beta     90
_cell_angle_gamma    120

_space_group_name_H-M_alt    "P 1"
_space_group_IT_number       1

loop_
  _space_group_symop_operation_xyz
  'x, y, z'

loop_
  _atom_site_type_symbol
  _atom_site_label
  _atom_site_symmetry_multiplicity
  _atom_site_fract_x
  _atom_site_fract_y
  _atom_site_fract_z
  _atom_site_occupancy
  C   C1        1.0  0.33900  0.42100  0.11200  1.0000
  C   C2        1.0  0.57900  0.91800  0.11200  1.0000
  C   C3        1.0  0.08160  0.66100  0.11200  1.0000
  C   C4        1.0  0.08500  0.41700  0.25000  1.0000
  C   C5        1.0  0.58300  0.66800  0.25000  1.0000
  C   C6        1.0  0.33200  0.91500  0.25000  1.0000
  C   C7        1.0  0.08160  0.66100  0.38800  1.0000
  C   C8        1.0  0.57900  0.91800  0.38800  1.0000
  C   C9        1.0  0.33900  0.42100  0.38800  1.0000
  C   C10       1.0  0.66100  0.57900  0.61200  1.0000
  C   C11       1.0  0.42100  0.08160  0.61200  1.0000
  C   C12       1.0  0.91800  0.33900  0.61200  1.0000
  C   C13       1.0  0.66800  0.08500  0.75000  1.0000
  C   C14       1.0  0.41700  0.33200  0.75000  1.0000
  C   C15       1.0  0.91500  0.58300  0.75000  1.0000
  C   C16       1.0  0.91800  0.33900  0.88800  1.0000
  C   C17       1.0  0.42100  0.08160  0.88800  1.0000
  C   C18       1.0  0.66100  0.57900  0.88800  1.0000
  Fe  Fe1       1.0  0.33300  0.66700  0.17100  1.0000
  Fe  Fe2       1.0  0.33300  0.66700  0.32900  1.0000
  Fe  Fe3       1.0  0.66700  0.33300  0.67100  1.0000
  Fe  Fe4       1.0  0.66700  0.33300  0.82900  1.0000
  O   O1        1.0  0.92300  0.65500  0.07030  1.0000
  O   O2        1.0  0.73100  0.07660  0.07030  1.0000
  O   O3        1.0  0.34500  0.26900  0.07030  1.0000
  O   O4        1.0  0.33100  0.10600  0.25000  1.0000
  O   O5        1.0  0.89400  0.22500  0.25000  1.0000
  O   O6        1.0  0.77500  0.66900  0.25000  1.0000
  O   O7        1.0  0.34500  0.26900  0.43000  1.0000
  O   O8        1.0  0.73100  0.07660  0.43000  1.0000
  O   O9        1.0  0.92300  0.65500  0.43000  1.0000
  O   O10       1.0  0.07660  0.34500  0.57000  1.0000
  O   O11       1.0  0.26900  0.92300  0.57000  1.0000
  O   O12       1.0  0.65500  0.73100  0.57000  1.0000
  O   O13       1.0  0.22500  0.33100  0.75000  1.0000
  O   O14       1.0  0.10600  0.77500  0.75000  1.0000
  O   O15       1.0  0.66900  0.89400  0.75000  1.0000
  O   O16       1.0  0.65500  0.73100  0.93000  1.0000
  O   O17       1.0  0.26900  0.92300  0.93000  1.0000
  O   O18       1.0  0.07660  0.34500  0.93000  1.0000
