data_image0
_chemical_formula_structural       C16I4Mo4O16
_chemical_formula_sum              "C16 I4 Mo4 O16"
_cell_length_a       9.22268
_cell_length_b       10.2618
_cell_length_c       9.20817
_cell_angle_alpha    92.0702
_cell_angle_beta     122.699
_cell_angle_gamma    94.6112

_space_group_name_H-M_alt    "P 1"
_space_group_IT_number       1

loop_
  _space_group_symop_operation_xyz
  'x, y, z'

loop_
  _atom_site_type_symbol
  _atom_site_label
  _atom_site_symmetry_multiplicity
  _atom_site_fract_x
  _atom_site_fract_y
  _atom_site_fract_z
  _atom_site_occupancy
  C   C1        1.0  0.77400  0.83400  0.00026  1.0000
  C   C2        1.0  0.68400  0.09530  0.03510  1.0000
  C   C3        1.0  0.17100  0.79900  0.13400  1.0000
  C   C4        1.0  0.73100  0.47000  0.18000  1.0000
  C   C5        1.0  0.42900  0.02670  0.27200  1.0000
  C   C6        1.0  0.12200  0.43900  0.31900  1.0000
  C   C7        1.0  0.65400  0.66100  0.35000  1.0000
  C   C8        1.0  0.59600  0.40900  0.39300  1.0000
  C   C9        1.0  0.40400  0.59100  0.60700  1.0000
  C   C10       1.0  0.34600  0.33900  0.65000  1.0000
  C   C11       1.0  0.87800  0.56100  0.68100  1.0000
  C   C12       1.0  0.57100  0.97300  0.72800  1.0000
  C   C13       1.0  0.26900  0.53000  0.82000  1.0000
  C   C14       1.0  0.82900  0.20100  0.86600  1.0000
  C   C15       1.0  0.31600  0.90500  0.96500  1.0000
  C   C16       1.0  0.22600  0.16600  0.00000  1.0000
  I   I1        1.0  0.09120  0.07050  0.28100  1.0000
  I   I2        1.0  0.05450  0.72200  0.48600  1.0000
  I   I3        1.0  0.94600  0.27800  0.51400  1.0000
  I   I4        1.0  0.90900  0.92900  0.71900  1.0000
  Mo  Mo1       1.0  0.19100  0.98200  0.06100  1.0000
  Mo  Mo2       1.0  0.80700  0.51700  0.43100  1.0000
  Mo  Mo3       1.0  0.19300  0.48300  0.56900  1.0000
  Mo  Mo4       1.0  0.80900  0.01810  0.93900  1.0000
  O   O1        1.0  0.74400  0.73100  0.03090  1.0000
  O   O2        1.0  0.68000  0.44200  0.03640  1.0000
  O   O3        1.0  0.60600  0.14300  0.08470  1.0000
  O   O4        1.0  0.08790  0.41400  0.17900  1.0000
  O   O5        1.0  0.17300  0.69700  0.18400  1.0000
  O   O6        1.0  0.56300  0.74300  0.30200  1.0000
  O   O7        1.0  0.47300  0.35100  0.37500  1.0000
  O   O8        1.0  0.57100  0.05520  0.38900  1.0000
  O   O9        1.0  0.42900  0.94500  0.61100  1.0000
  O   O10       1.0  0.52700  0.64900  0.62500  1.0000
  O   O11       1.0  0.43700  0.25700  0.69800  1.0000
  O   O12       1.0  0.82700  0.30300  0.81600  1.0000
  O   O13       1.0  0.91200  0.58600  0.82100  1.0000
  O   O14       1.0  0.39400  0.85700  0.91500  1.0000
  O   O15       1.0  0.32000  0.55800  0.96400  1.0000
  O   O16       1.0  0.25600  0.26900  0.96900  1.0000
