data_image0
_chemical_formula_structural       B4Nb4Ni8O24
_chemical_formula_sum              "B4 Nb4 Ni8 O24"
_cell_length_a       10.0864
_cell_length_b       8.59229
_cell_length_c       4.49099
_cell_angle_alpha    90
_cell_angle_beta     90
_cell_angle_gamma    90

_space_group_name_H-M_alt    "P 1"
_space_group_IT_number       1

loop_
  _space_group_symop_operation_xyz
  'x, y, z'

loop_
  _atom_site_type_symbol
  _atom_site_label
  _atom_site_symmetry_multiplicity
  _atom_site_fract_x
  _atom_site_fract_y
  _atom_site_fract_z
  _atom_site_occupancy
  B   B1        1.0  0.77400  0.75000  0.08990  1.0000
  B   B2        1.0  0.27400  0.75000  0.41000  1.0000
  B   B3        1.0  0.72600  0.25000  0.59000  1.0000
  B   B4        1.0  0.22600  0.25000  0.91000  1.0000
  Nb  Nb1       1.0  0.92000  0.25000  0.02310  1.0000
  Nb  Nb2       1.0  0.42000  0.25000  0.47700  1.0000
  Nb  Nb3       1.0  0.58000  0.75000  0.52300  1.0000
  Nb  Nb4       1.0  0.08030  0.75000  0.97700  1.0000
  Ni  Ni1       1.0  0.63600  0.07060  0.02040  1.0000
  Ni  Ni2       1.0  0.63600  0.42900  0.02040  1.0000
  Ni  Ni3       1.0  0.13600  0.07060  0.48000  1.0000
  Ni  Ni4       1.0  0.13600  0.42900  0.48000  1.0000
  Ni  Ni5       1.0  0.86400  0.57100  0.52000  1.0000
  Ni  Ni6       1.0  0.86400  0.92900  0.52000  1.0000
  Ni  Ni7       1.0  0.36400  0.57100  0.98000  1.0000
  Ni  Ni8       1.0  0.36400  0.92900  0.98000  1.0000
  O   O1        1.0  0.91500  0.75000  0.22100  1.0000
  O   O2        1.0  0.22600  0.25000  0.23000  1.0000
  O   O3        1.0  0.70900  0.61400  0.23800  1.0000
  O   O4        1.0  0.70900  0.88600  0.23800  1.0000
  O   O5        1.0  0.46200  0.08090  0.24000  1.0000
  O   O6        1.0  0.46200  0.41900  0.24000  1.0000
  O   O7        1.0  0.96200  0.08090  0.26000  1.0000
  O   O8        1.0  0.96200  0.41900  0.26000  1.0000
  O   O9        1.0  0.20900  0.61400  0.26200  1.0000
  O   O10       1.0  0.20900  0.88600  0.26200  1.0000
  O   O11       1.0  0.72600  0.25000  0.27000  1.0000
  O   O12       1.0  0.41500  0.75000  0.27900  1.0000
  O   O13       1.0  0.58500  0.25000  0.72100  1.0000
  O   O14       1.0  0.27400  0.75000  0.73000  1.0000
  O   O15       1.0  0.79100  0.11400  0.73800  1.0000
  O   O16       1.0  0.79100  0.38600  0.73800  1.0000
  O   O17       1.0  0.03840  0.58100  0.74000  1.0000
  O   O18       1.0  0.03840  0.91900  0.74000  1.0000
  O   O19       1.0  0.53800  0.58100  0.76000  1.0000
  O   O20       1.0  0.53800  0.91900  0.76000  1.0000
  O   O21       1.0  0.29100  0.11400  0.76200  1.0000
  O   O22       1.0  0.29100  0.38600  0.76200  1.0000
  O   O23       1.0  0.77400  0.75000  0.77000  1.0000
  O   O24       1.0  0.08510  0.25000  0.77900  1.0000
