data_image0
_chemical_formula_structural       F28In4Sr8
_chemical_formula_sum              "F28 In4 Sr8"
_cell_length_a       5.36836
_cell_length_b       12.1456
_cell_length_c       8.18696
_cell_angle_alpha    90
_cell_angle_beta     90.5907
_cell_angle_gamma    90

_space_group_name_H-M_alt    "P 1"
_space_group_IT_number       1

loop_
  _space_group_symop_operation_xyz
  'x, y, z'

loop_
  _atom_site_type_symbol
  _atom_site_label
  _atom_site_symmetry_multiplicity
  _atom_site_fract_x
  _atom_site_fract_y
  _atom_site_fract_z
  _atom_site_occupancy
  F   F1        1.0  0.21400  0.85600  0.04240  1.0000
  F   F2        1.0  0.49900  0.60300  0.07470  1.0000
  F   F3        1.0  0.01120  0.60300  0.08860  1.0000
  F   F4        1.0  0.35900  0.06910  0.12000  1.0000
  F   F5        1.0  0.99100  0.25500  0.19000  1.0000
  F   F6        1.0  0.50200  0.27000  0.19700  1.0000
  F   F7        1.0  0.79300  0.95300  0.21700  1.0000
  F   F8        1.0  0.20700  0.45300  0.28300  1.0000
  F   F9        1.0  0.49800  0.77000  0.30300  1.0000
  F   F10       1.0  0.00916  0.75500  0.31000  1.0000
  F   F11       1.0  0.64100  0.56900  0.38000  1.0000
  F   F12       1.0  0.98900  0.10300  0.41100  1.0000
  F   F13       1.0  0.50100  0.10300  0.42500  1.0000
  F   F14       1.0  0.78600  0.35600  0.45800  1.0000
  F   F15       1.0  0.21400  0.64400  0.54200  1.0000
  F   F16       1.0  0.49900  0.89700  0.57500  1.0000
  F   F17       1.0  0.01120  0.89700  0.58900  1.0000
  F   F18       1.0  0.35900  0.43100  0.62000  1.0000
  F   F19       1.0  0.99100  0.24500  0.69000  1.0000
  F   F20       1.0  0.50200  0.23000  0.69700  1.0000
  F   F21       1.0  0.79300  0.54700  0.71700  1.0000
  F   F22       1.0  0.20700  0.04680  0.78300  1.0000
  F   F23       1.0  0.49800  0.73000  0.80300  1.0000
  F   F24       1.0  0.00916  0.74500  0.81000  1.0000
  F   F25       1.0  0.64100  0.93100  0.88000  1.0000
  F   F26       1.0  0.98900  0.39700  0.91100  1.0000
  F   F27       1.0  0.50100  0.39700  0.92500  1.0000
  F   F28       1.0  0.78600  0.14400  0.95800  1.0000
  In  In1       1.0  0.72100  0.12300  0.20900  1.0000
  In  In2       1.0  0.27900  0.62300  0.29100  1.0000
  In  In3       1.0  0.72100  0.37700  0.70900  1.0000
  In  In4       1.0  0.27900  0.87700  0.79100  1.0000
  Sr  Sr1       1.0  0.76100  0.77800  0.05630  1.0000
  Sr  Sr2       1.0  0.76200  0.43700  0.17300  1.0000
  Sr  Sr3       1.0  0.23800  0.93700  0.32700  1.0000
  Sr  Sr4       1.0  0.23900  0.27800  0.44400  1.0000
  Sr  Sr5       1.0  0.76100  0.72200  0.55600  1.0000
  Sr  Sr6       1.0  0.76200  0.06320  0.67300  1.0000
  Sr  Sr7       1.0  0.23800  0.56300  0.82700  1.0000
  Sr  Sr8       1.0  0.23900  0.22200  0.94400  1.0000
