data_image0
_chemical_formula_structural       C16Co4O16Tl4
_chemical_formula_sum              "C16 Co4 O16 Tl4"
_cell_length_a       8.76245
_cell_length_b       8.76245
_cell_length_c       8.76245
_cell_angle_alpha    90
_cell_angle_beta     90
_cell_angle_gamma    90

_space_group_name_H-M_alt    "P 1"
_space_group_IT_number       1

loop_
  _space_group_symop_operation_xyz
  'x, y, z'

loop_
  _atom_site_type_symbol
  _atom_site_label
  _atom_site_symmetry_multiplicity
  _atom_site_fract_x
  _atom_site_fract_y
  _atom_site_fract_z
  _atom_site_occupancy
  C   C1        1.0  0.58200  0.91800  0.08220  1.0000
  C   C2        1.0  0.35100  0.31100  0.11000  1.0000
  C   C3        1.0  0.68900  0.61000  0.14900  1.0000
  C   C4        1.0  0.89000  0.85100  0.18900  1.0000
  C   C5        1.0  0.11000  0.35100  0.31100  1.0000
  C   C6        1.0  0.31100  0.11000  0.35100  1.0000
  C   C7        1.0  0.64900  0.81100  0.39000  1.0000
  C   C8        1.0  0.41800  0.41800  0.41800  1.0000
  C   C9        1.0  0.91800  0.08220  0.58200  1.0000
  C   C10       1.0  0.14900  0.68900  0.61000  1.0000
  C   C11       1.0  0.81100  0.39000  0.64900  1.0000
  C   C12       1.0  0.61000  0.14900  0.68900  1.0000
  C   C13       1.0  0.39000  0.64900  0.81100  1.0000
  C   C14       1.0  0.18900  0.89000  0.85100  1.0000
  C   C15       1.0  0.85100  0.18900  0.89000  1.0000
  C   C16       1.0  0.08220  0.58200  0.91800  1.0000
  Co  Co1       1.0  0.69700  0.80300  0.19700  1.0000
  Co  Co2       1.0  0.30300  0.30300  0.30300  1.0000
  Co  Co3       1.0  0.80300  0.19700  0.69700  1.0000
  Co  Co4       1.0  0.19700  0.69700  0.80300  1.0000
  O   O1        1.0  0.50500  0.99500  0.00490  1.0000
  O   O2        1.0  0.87800  0.18300  0.02090  1.0000
  O   O3        1.0  0.68300  0.47900  0.12200  1.0000
  O   O4        1.0  0.02090  0.87800  0.18300  1.0000
  O   O5        1.0  0.97900  0.37800  0.31700  1.0000
  O   O6        1.0  0.31700  0.97900  0.37800  1.0000
  O   O7        1.0  0.12200  0.68300  0.47900  1.0000
  O   O8        1.0  0.49500  0.49500  0.49500  1.0000
  O   O9        1.0  0.99500  0.00490  0.50500  1.0000
  O   O10       1.0  0.62200  0.81700  0.52100  1.0000
  O   O11       1.0  0.81700  0.52100  0.62200  1.0000
  O   O12       1.0  0.47900  0.12200  0.68300  1.0000
  O   O13       1.0  0.52100  0.62200  0.81700  1.0000
  O   O14       1.0  0.18300  0.02090  0.87800  1.0000
  O   O15       1.0  0.37800  0.31700  0.97900  1.0000
  O   O16       1.0  0.00490  0.50500  0.99500  1.0000
  Tl  Tl1       1.0  0.31300  0.68700  0.18700  1.0000
  Tl  Tl2       1.0  0.68700  0.18700  0.31300  1.0000
  Tl  Tl3       1.0  0.18700  0.31300  0.68700  1.0000
  Tl  Tl4       1.0  0.81300  0.81300  0.81300  1.0000
