data_image0
_chemical_formula_structural       As16Ga12K12
_chemical_formula_sum              "As16 Ga12 K12"
_cell_length_a       6.71076
_cell_length_b       15.0919
_cell_length_c       10.7958
_cell_angle_alpha    90
_cell_angle_beta     90
_cell_angle_gamma    90

_space_group_name_H-M_alt    "P 1"
_space_group_IT_number       1

loop_
  _space_group_symop_operation_xyz
  'x, y, z'

loop_
  _atom_site_type_symbol
  _atom_site_label
  _atom_site_symmetry_multiplicity
  _atom_site_fract_x
  _atom_site_fract_y
  _atom_site_fract_z
  _atom_site_occupancy
  As  As1       1.0  0.04080  0.32500  0.09500  1.0000
  As  As2       1.0  0.45900  0.67500  0.09500  1.0000
  As  As3       1.0  0.54000  0.13600  0.19400  1.0000
  As  As4       1.0  0.96000  0.86400  0.19400  1.0000
  As  As5       1.0  0.54000  0.36400  0.30600  1.0000
  As  As6       1.0  0.96000  0.63600  0.30600  1.0000
  As  As7       1.0  0.04080  0.17500  0.40500  1.0000
  As  As8       1.0  0.45900  0.82500  0.40500  1.0000
  As  As9       1.0  0.54100  0.17500  0.59500  1.0000
  As  As10      1.0  0.95900  0.82500  0.59500  1.0000
  As  As11      1.0  0.04040  0.36400  0.69400  1.0000
  As  As12      1.0  0.46000  0.63600  0.69400  1.0000
  As  As13      1.0  0.04040  0.13600  0.80600  1.0000
  As  As14      1.0  0.46000  0.86400  0.80600  1.0000
  As  As15      1.0  0.54100  0.32500  0.90500  1.0000
  As  As16      1.0  0.95900  0.67500  0.90500  1.0000
  Ga  Ga1       1.0  0.40200  0.28300  0.11100  1.0000
  Ga  Ga2       1.0  0.09760  0.71700  0.11100  1.0000
  Ga  Ga3       1.0  0.80700  0.25000  0.25000  1.0000
  Ga  Ga4       1.0  0.69300  0.75000  0.25000  1.0000
  Ga  Ga5       1.0  0.40200  0.21700  0.38900  1.0000
  Ga  Ga6       1.0  0.09760  0.78300  0.38900  1.0000
  Ga  Ga7       1.0  0.90200  0.21700  0.61100  1.0000
  Ga  Ga8       1.0  0.59800  0.78300  0.61100  1.0000
  Ga  Ga9       1.0  0.30700  0.25000  0.75000  1.0000
  Ga  Ga10      1.0  0.19300  0.75000  0.75000  1.0000
  Ga  Ga11      1.0  0.90200  0.28300  0.88900  1.0000
  Ga  Ga12      1.0  0.59800  0.71700  0.88900  1.0000
  K   K1        1.0  0.75000  0.50000  0.07940  1.0000
  K   K2        1.0  0.06030  0.09490  0.12000  1.0000
  K   K3        1.0  0.44000  0.90500  0.12000  1.0000
  K   K4        1.0  0.06030  0.40500  0.38000  1.0000
  K   K5        1.0  0.44000  0.59500  0.38000  1.0000
  K   K6        1.0  0.75000  0.00000  0.42100  1.0000
  K   K7        1.0  0.25000  0.00000  0.57900  1.0000
  K   K8        1.0  0.56000  0.40500  0.62000  1.0000
  K   K9        1.0  0.94000  0.59500  0.62000  1.0000
  K   K10       1.0  0.56000  0.09490  0.88000  1.0000
  K   K11       1.0  0.94000  0.90500  0.88000  1.0000
  K   K12       1.0  0.25000  0.50000  0.92100  1.0000
