data_image0
_chemical_formula_structural       O26Ti14
_chemical_formula_sum              "O26 Ti14"
_cell_length_a       5.5317
_cell_length_b       7.136
_cell_length_c       11.3066
_cell_angle_alpha    96.0022
_cell_angle_beta     90.4359
_cell_angle_gamma    71.5647

_space_group_name_H-M_alt    "P 1"
_space_group_IT_number       1

loop_
  _space_group_symop_operation_xyz
  'x, y, z'

loop_
  _atom_site_type_symbol
  _atom_site_label
  _atom_site_symmetry_multiplicity
  _atom_site_fract_x
  _atom_site_fract_y
  _atom_site_fract_z
  _atom_site_occupancy
  O   O1        1.0  0.63700  0.16500  0.01420  1.0000
  O   O2        1.0  0.11100  0.23300  0.05270  1.0000
  O   O3        1.0  0.28500  0.52800  0.09800  1.0000
  O   O4        1.0  0.75800  0.59800  0.14000  1.0000
  O   O5        1.0  0.03110  0.92200  0.16600  1.0000
  O   O6        1.0  0.49500  0.99600  0.20600  1.0000
  O   O7        1.0  0.68400  0.28600  0.24900  1.0000
  O   O8        1.0  0.15200  0.37100  0.29400  1.0000
  O   O9        1.0  0.42400  0.68400  0.31500  1.0000
  O   O10       1.0  0.87200  0.76300  0.37600  1.0000
  O   O11       1.0  0.05660  0.06910  0.40600  1.0000
  O   O12       1.0  0.55400  0.15100  0.44500  1.0000
  O   O13       1.0  0.80000  0.44700  0.47200  1.0000
  O   O14       1.0  0.20000  0.55300  0.52800  1.0000
  O   O15       1.0  0.44600  0.84900  0.55500  1.0000
  O   O16       1.0  0.94300  0.93100  0.59400  1.0000
  O   O17       1.0  0.12800  0.23700  0.62400  1.0000
  O   O18       1.0  0.57600  0.31600  0.68500  1.0000
  O   O19       1.0  0.84800  0.62900  0.70600  1.0000
  O   O20       1.0  0.31600  0.71400  0.75100  1.0000
  O   O21       1.0  0.50500  0.00352  0.79400  1.0000
  O   O22       1.0  0.96900  0.07820  0.83400  1.0000
  O   O23       1.0  0.24200  0.40200  0.86000  1.0000
  O   O24       1.0  0.71500  0.47200  0.90200  1.0000
  O   O25       1.0  0.88900  0.76700  0.94700  1.0000
  O   O26       1.0  0.36300  0.83500  0.98600  1.0000
  Ti  Ti1       1.0  0.00000  0.00000  0.00000  1.0000
  Ti  Ti2       1.0  0.00000  0.50000  0.00000  1.0000
  Ti  Ti3       1.0  0.39100  0.76100  0.14400  1.0000
  Ti  Ti4       1.0  0.39000  0.26400  0.15000  1.0000
  Ti  Ti5       1.0  0.78300  0.01650  0.29400  1.0000
  Ti  Ti6       1.0  0.78700  0.51500  0.29500  1.0000
  Ti  Ti7       1.0  0.20400  0.79200  0.44500  1.0000
  Ti  Ti8       1.0  0.20400  0.28900  0.45000  1.0000
  Ti  Ti9       1.0  0.79600  0.71100  0.55000  1.0000
  Ti  Ti10      1.0  0.79600  0.20800  0.55500  1.0000
  Ti  Ti11      1.0  0.21300  0.48500  0.70500  1.0000
  Ti  Ti12      1.0  0.21700  0.98400  0.70600  1.0000
  Ti  Ti13      1.0  0.61000  0.73600  0.85000  1.0000
  Ti  Ti14      1.0  0.60900  0.23900  0.85600  1.0000
