data_image0
_chemical_formula_structural       Fe4K8Li12O16
_chemical_formula_sum              "Fe4 K8 Li12 O16"
_cell_length_a       5.54937
_cell_length_b       8.72923
_cell_length_c       10.9759
_cell_angle_alpha    90
_cell_angle_beta     111.237
_cell_angle_gamma    90

_space_group_name_H-M_alt    "P 1"
_space_group_IT_number       1

loop_
  _space_group_symop_operation_xyz
  'x, y, z'

loop_
  _atom_site_type_symbol
  _atom_site_label
  _atom_site_symmetry_multiplicity
  _atom_site_fract_x
  _atom_site_fract_y
  _atom_site_fract_z
  _atom_site_occupancy
  Fe  Fe1       1.0  0.89900  0.71400  0.06290  1.0000
  Fe  Fe2       1.0  0.10100  0.21400  0.43700  1.0000
  Fe  Fe3       1.0  0.89900  0.78600  0.56300  1.0000
  Fe  Fe4       1.0  0.10100  0.28600  0.93700  1.0000
  K   K1        1.0  0.71900  0.22600  0.10800  1.0000
  K   K2        1.0  0.29700  0.99300  0.13900  1.0000
  K   K3        1.0  0.70300  0.49300  0.36100  1.0000
  K   K4        1.0  0.28100  0.72600  0.39200  1.0000
  K   K5        1.0  0.71900  0.27400  0.60800  1.0000
  K   K6        1.0  0.29700  0.50700  0.63900  1.0000
  K   K7        1.0  0.70300  0.00680  0.86100  1.0000
  K   K8        1.0  0.28100  0.77400  0.89200  1.0000
  Li  Li1       1.0  0.37200  0.50700  0.07080  1.0000
  Li  Li2       1.0  0.61900  0.73900  0.20000  1.0000
  Li  Li3       1.0  0.09770  0.46900  0.20400  1.0000
  Li  Li4       1.0  0.90200  0.96900  0.29600  1.0000
  Li  Li5       1.0  0.38100  0.23900  0.30000  1.0000
  Li  Li6       1.0  0.62800  0.00670  0.42900  1.0000
  Li  Li7       1.0  0.37200  0.99300  0.57100  1.0000
  Li  Li8       1.0  0.61900  0.76100  0.70000  1.0000
  Li  Li9       1.0  0.09770  0.03110  0.70400  1.0000
  Li  Li10      1.0  0.90200  0.53100  0.79600  1.0000
  Li  Li11      1.0  0.38100  0.26100  0.80000  1.0000
  Li  Li12      1.0  0.62800  0.49300  0.92900  1.0000
  O   O1        1.0  0.77800  0.89700  0.11400  1.0000
  O   O2        1.0  0.23400  0.30900  0.12100  1.0000
  O   O3        1.0  0.74200  0.55000  0.12300  1.0000
  O   O4        1.0  0.25700  0.67700  0.14600  1.0000
  O   O5        1.0  0.74300  0.17700  0.35400  1.0000
  O   O6        1.0  0.25800  0.04970  0.37700  1.0000
  O   O7        1.0  0.76600  0.80900  0.37900  1.0000
  O   O8        1.0  0.22200  0.39700  0.38600  1.0000
  O   O9        1.0  0.77800  0.60300  0.61400  1.0000
  O   O10       1.0  0.23400  0.19100  0.62100  1.0000
  O   O11       1.0  0.74200  0.95000  0.62300  1.0000
  O   O12       1.0  0.25700  0.82300  0.64600  1.0000
  O   O13       1.0  0.74300  0.32300  0.85400  1.0000
  O   O14       1.0  0.25800  0.45000  0.87700  1.0000
  O   O15       1.0  0.76600  0.69100  0.87900  1.0000
  O   O16       1.0  0.22200  0.10300  0.88600  1.0000
