data_image0
_chemical_formula_structural       Cs8In4Na12O16
_chemical_formula_sum              "Cs8 In4 Na12 O16"
_cell_length_a       6.34207
_cell_length_b       10.1704
_cell_length_c       12.4766
_cell_angle_alpha    90
_cell_angle_beta     111.279
_cell_angle_gamma    90

_space_group_name_H-M_alt    "P 1"
_space_group_IT_number       1

loop_
  _space_group_symop_operation_xyz
  'x, y, z'

loop_
  _atom_site_type_symbol
  _atom_site_label
  _atom_site_symmetry_multiplicity
  _atom_site_fract_x
  _atom_site_fract_y
  _atom_site_fract_z
  _atom_site_occupancy
  Cs  Cs1       1.0  0.71600  0.22600  0.10800  1.0000
  Cs  Cs2       1.0  0.27600  0.99800  0.13500  1.0000
  Cs  Cs3       1.0  0.72400  0.49800  0.36500  1.0000
  Cs  Cs4       1.0  0.28400  0.72600  0.39200  1.0000
  Cs  Cs5       1.0  0.71600  0.27400  0.60800  1.0000
  Cs  Cs6       1.0  0.27600  0.50200  0.63500  1.0000
  Cs  Cs7       1.0  0.72400  0.00226  0.86500  1.0000
  Cs  Cs8       1.0  0.28400  0.77400  0.89200  1.0000
  In  In1       1.0  0.89700  0.71700  0.06440  1.0000
  In  In2       1.0  0.10300  0.21700  0.43600  1.0000
  In  In3       1.0  0.89700  0.78300  0.56400  1.0000
  In  In4       1.0  0.10300  0.28300  0.93600  1.0000
  Na  Na1       1.0  0.36100  0.51100  0.06830  1.0000
  Na  Na2       1.0  0.60900  0.74600  0.20100  1.0000
  Na  Na3       1.0  0.09020  0.47200  0.20600  1.0000
  Na  Na4       1.0  0.91000  0.97200  0.29400  1.0000
  Na  Na5       1.0  0.39100  0.24600  0.29900  1.0000
  Na  Na6       1.0  0.63900  0.01080  0.43200  1.0000
  Na  Na7       1.0  0.36100  0.98900  0.56800  1.0000
  Na  Na8       1.0  0.60900  0.75400  0.70100  1.0000
  Na  Na9       1.0  0.09020  0.02810  0.70600  1.0000
  Na  Na10      1.0  0.91000  0.52800  0.79400  1.0000
  Na  Na11      1.0  0.39100  0.25400  0.79900  1.0000
  Na  Na12      1.0  0.63900  0.48900  0.93200  1.0000
  O   O1        1.0  0.78200  0.89700  0.10600  1.0000
  O   O2        1.0  0.22000  0.30900  0.11400  1.0000
  O   O3        1.0  0.73700  0.56400  0.12400  1.0000
  O   O4        1.0  0.24200  0.68200  0.15100  1.0000
  O   O5        1.0  0.75800  0.18200  0.34900  1.0000
  O   O6        1.0  0.26300  0.06430  0.37600  1.0000
  O   O7        1.0  0.78000  0.80900  0.38600  1.0000
  O   O8        1.0  0.21800  0.39700  0.39400  1.0000
  O   O9        1.0  0.78200  0.60300  0.60600  1.0000
  O   O10       1.0  0.22000  0.19100  0.61400  1.0000
  O   O11       1.0  0.73700  0.93600  0.62400  1.0000
  O   O12       1.0  0.24200  0.81800  0.65100  1.0000
  O   O13       1.0  0.75800  0.31800  0.84900  1.0000
  O   O14       1.0  0.26300  0.43600  0.87600  1.0000
  O   O15       1.0  0.78000  0.69100  0.88600  1.0000
  O   O16       1.0  0.21800  0.10300  0.89400  1.0000
