data_image0
_chemical_formula_structural       N3U2
_chemical_formula_sum              "N3 U2"
_cell_length_a       3.68093
_cell_length_b       3.68096
_cell_length_c       5.72428
_cell_angle_alpha    90
_cell_angle_beta     89.9996
_cell_angle_gamma    120

_space_group_name_H-M_alt    "P 1"
_space_group_IT_number       1

loop_
  _space_group_symop_operation_xyz
  'x, y, z'

loop_
  _atom_site_type_symbol
  _atom_site_label
  _atom_site_symmetry_multiplicity
  _atom_site_fract_x
  _atom_site_fract_y
  _atom_site_fract_z
  _atom_site_occupancy
  N   N1        1.0  0.00000  0.00000  0.00000  1.0000
  N   N2        1.0  0.66700  0.33300  0.35800  1.0000
  N   N3        1.0  0.33300  0.66700  0.64200  1.0000
  U   U1        1.0  0.33300  0.66700  0.24100  1.0000
  U   U2        1.0  0.66700  0.33300  0.75900  1.0000
