data_image0
_chemical_formula_structural       Cl4H18N6O8RbRu
_chemical_formula_sum              "Cl4 H18 N6 O8 Rb1 Ru1"
_cell_length_a       8.87507
_cell_length_b       8.87507
_cell_length_c       10.6353
_cell_angle_alpha    65.3392
_cell_angle_beta     114.661
_cell_angle_gamma    120

_space_group_name_H-M_alt    "P 1"
_space_group_IT_number       1

loop_
  _space_group_symop_operation_xyz
  'x, y, z'

loop_
  _atom_site_type_symbol
  _atom_site_label
  _atom_site_symmetry_multiplicity
  _atom_site_fract_x
  _atom_site_fract_y
  _atom_site_fract_z
  _atom_site_occupancy
  Cl  Cl1       1.0  0.39100  0.60900  0.17200  1.0000
  Cl  Cl2       1.0  0.13500  0.86500  0.40500  1.0000
  Cl  Cl3       1.0  0.86500  0.13500  0.59500  1.0000
  Cl  Cl4       1.0  0.60900  0.39100  0.82800  1.0000
  H   H1        1.0  0.04690  0.25000  0.37300  1.0000
  H   H2        1.0  0.04690  0.42400  0.37300  1.0000
  H   H3        1.0  0.57600  0.25000  0.37300  1.0000
  H   H4        1.0  0.57600  0.95300  0.37300  1.0000
  H   H5        1.0  0.75000  0.42400  0.37300  1.0000
  H   H6        1.0  0.75000  0.95300  0.37300  1.0000
  H   H7        1.0  0.01460  0.55000  0.47900  1.0000
  H   H8        1.0  0.01460  0.98500  0.47900  1.0000
  H   H9        1.0  0.45000  0.98500  0.47900  1.0000
  H   H10       1.0  0.55000  0.01460  0.52100  1.0000
  H   H11       1.0  0.98500  0.01460  0.52100  1.0000
  H   H12       1.0  0.98500  0.45000  0.52100  1.0000
  H   H13       1.0  0.25000  0.04690  0.62700  1.0000
  H   H14       1.0  0.25000  0.57600  0.62700  1.0000
  H   H15       1.0  0.42400  0.04690  0.62700  1.0000
  H   H16       1.0  0.42400  0.75000  0.62700  1.0000
  H   H17       1.0  0.95300  0.57600  0.62700  1.0000
  H   H18       1.0  0.95300  0.75000  0.62700  1.0000
  N   N1        1.0  0.54100  0.04440  0.03750  1.0000
  N   N2        1.0  0.54100  0.45900  0.03750  1.0000
  N   N3        1.0  0.95600  0.45900  0.03750  1.0000
  N   N4        1.0  0.04440  0.54100  0.96300  1.0000
  N   N5        1.0  0.45900  0.54100  0.96300  1.0000
  N   N6        1.0  0.45900  0.95600  0.96300  1.0000
  O   O1        1.0  0.06150  0.93900  0.18400  1.0000
  O   O2        1.0  0.12200  0.37700  0.36700  1.0000
  O   O3        1.0  0.62300  0.37700  0.36700  1.0000
  O   O4        1.0  0.62300  0.87800  0.36700  1.0000
  O   O5        1.0  0.37700  0.12200  0.63300  1.0000
  O   O6        1.0  0.37700  0.62300  0.63300  1.0000
  O   O7        1.0  0.87800  0.62300  0.63300  1.0000
  O   O8        1.0  0.93900  0.06150  0.81600  1.0000
  Rb  Rb1       1.0  0.50000  0.50000  0.50000  1.0000
  Ru  Ru1       1.0  0.00000  0.00000  0.00000  1.0000
