data_image0
_chemical_formula_structural       P32Tc8
_chemical_formula_sum              "P32 Tc8"
_cell_length_a       6.2662
_cell_length_b       9.26119
_cell_length_c       10.8978
_cell_angle_alpha    90
_cell_angle_beta     90
_cell_angle_gamma    90

_space_group_name_H-M_alt    "P 1"
_space_group_IT_number       1

loop_
  _space_group_symop_operation_xyz
  'x, y, z'

loop_
  _atom_site_type_symbol
  _atom_site_label
  _atom_site_symmetry_multiplicity
  _atom_site_fract_x
  _atom_site_fract_y
  _atom_site_fract_z
  _atom_site_occupancy
  P   P1        1.0  0.49900  0.20800  0.06880  1.0000
  P   P2        1.0  0.00089  0.70800  0.06880  1.0000
  P   P3        1.0  0.75600  0.04360  0.08110  1.0000
  P   P4        1.0  0.74400  0.54400  0.08110  1.0000
  P   P5        1.0  0.05940  0.28100  0.23600  1.0000
  P   P6        1.0  0.44100  0.78100  0.23600  1.0000
  P   P7        1.0  0.31000  0.44700  0.23800  1.0000
  P   P8        1.0  0.19000  0.94700  0.23800  1.0000
  P   P9        1.0  0.81000  0.44700  0.26200  1.0000
  P   P10       1.0  0.69000  0.94700  0.26200  1.0000
  P   P11       1.0  0.55900  0.28100  0.26400  1.0000
  P   P12       1.0  0.94100  0.78100  0.26400  1.0000
  P   P13       1.0  0.25600  0.04360  0.41900  1.0000
  P   P14       1.0  0.24400  0.54400  0.41900  1.0000
  P   P15       1.0  0.99900  0.20800  0.43100  1.0000
  P   P16       1.0  0.50100  0.70800  0.43100  1.0000
  P   P17       1.0  0.49900  0.29200  0.56900  1.0000
  P   P18       1.0  0.00089  0.79200  0.56900  1.0000
  P   P19       1.0  0.75600  0.45600  0.58100  1.0000
  P   P20       1.0  0.74400  0.95600  0.58100  1.0000
  P   P21       1.0  0.05940  0.21900  0.73600  1.0000
  P   P22       1.0  0.44100  0.71900  0.73600  1.0000
  P   P23       1.0  0.31000  0.05320  0.73800  1.0000
  P   P24       1.0  0.19000  0.55300  0.73800  1.0000
  P   P25       1.0  0.81000  0.05320  0.76200  1.0000
  P   P26       1.0  0.69000  0.55300  0.76200  1.0000
  P   P27       1.0  0.55900  0.21900  0.76400  1.0000
  P   P28       1.0  0.94100  0.71900  0.76400  1.0000
  P   P29       1.0  0.25600  0.45600  0.91900  1.0000
  P   P30       1.0  0.24400  0.95600  0.91900  1.0000
  P   P31       1.0  0.99900  0.29200  0.93100  1.0000
  P   P32       1.0  0.50100  0.79200  0.93100  1.0000
  Tc  Tc1       1.0  0.12100  0.10900  0.07530  1.0000
  Tc  Tc2       1.0  0.37900  0.60900  0.07530  1.0000
  Tc  Tc3       1.0  0.62100  0.10900  0.42500  1.0000
  Tc  Tc4       1.0  0.87900  0.60900  0.42500  1.0000
  Tc  Tc5       1.0  0.12100  0.39100  0.57500  1.0000
  Tc  Tc6       1.0  0.37900  0.89100  0.57500  1.0000
  Tc  Tc7       1.0  0.62100  0.39100  0.92500  1.0000
  Tc  Tc8       1.0  0.87900  0.89100  0.92500  1.0000
