data_image0
_chemical_formula_structural       Cl24O8P4Sb4
_chemical_formula_sum              "Cl24 O8 P4 Sb4"
_cell_length_a       8.61202
_cell_length_b       11.4591
_cell_length_c       10.9964
_cell_angle_alpha    90
_cell_angle_beta     108.15
_cell_angle_gamma    90

_space_group_name_H-M_alt    "P 1"
_space_group_IT_number       1

loop_
  _space_group_symop_operation_xyz
  'x, y, z'

loop_
  _atom_site_type_symbol
  _atom_site_label
  _atom_site_symmetry_multiplicity
  _atom_site_fract_x
  _atom_site_fract_y
  _atom_site_fract_z
  _atom_site_occupancy
  Cl  Cl1       1.0  0.29000  0.75300  0.03830  1.0000
  Cl  Cl2       1.0  0.86100  0.59900  0.07790  1.0000
  Cl  Cl3       1.0  0.67600  0.05410  0.15800  1.0000
  Cl  Cl4       1.0  0.55500  0.44600  0.16500  1.0000
  Cl  Cl5       1.0  0.31900  0.21700  0.21200  1.0000
  Cl  Cl6       1.0  0.03810  0.86800  0.21900  1.0000
  Cl  Cl7       1.0  0.96200  0.36800  0.28100  1.0000
  Cl  Cl8       1.0  0.68100  0.71700  0.28800  1.0000
  Cl  Cl9       1.0  0.44500  0.94600  0.33500  1.0000
  Cl  Cl10      1.0  0.32400  0.55400  0.34200  1.0000
  Cl  Cl11      1.0  0.13900  0.09940  0.42200  1.0000
  Cl  Cl12      1.0  0.71000  0.25300  0.46200  1.0000
  Cl  Cl13      1.0  0.29000  0.74700  0.53800  1.0000
  Cl  Cl14      1.0  0.86100  0.90100  0.57800  1.0000
  Cl  Cl15      1.0  0.67600  0.44600  0.65800  1.0000
  Cl  Cl16      1.0  0.55500  0.05440  0.66500  1.0000
  Cl  Cl17      1.0  0.31900  0.28300  0.71200  1.0000
  Cl  Cl18      1.0  0.03810  0.63200  0.71900  1.0000
  Cl  Cl19      1.0  0.96200  0.13200  0.78100  1.0000
  Cl  Cl20      1.0  0.68100  0.78300  0.78800  1.0000
  Cl  Cl21      1.0  0.44500  0.55400  0.83500  1.0000
  Cl  Cl22      1.0  0.32400  0.94600  0.84200  1.0000
  Cl  Cl23      1.0  0.13900  0.40100  0.92200  1.0000
  Cl  Cl24      1.0  0.71000  0.24700  0.96200  1.0000
  O   O1        1.0  0.22200  0.00030  0.05430  1.0000
  O   O2        1.0  0.98100  0.12500  0.12100  1.0000
  O   O3        1.0  0.01880  0.62500  0.37900  1.0000
  O   O4        1.0  0.77800  0.50000  0.44600  1.0000
  O   O5        1.0  0.22200  0.50000  0.55400  1.0000
  O   O6        1.0  0.98100  0.37500  0.62100  1.0000
  O   O7        1.0  0.01880  0.87500  0.87900  1.0000
  O   O8        1.0  0.77800  0.00000  0.94600  1.0000
  P   P1        1.0  0.80500  0.09790  0.04360  1.0000
  P   P2        1.0  0.19500  0.59800  0.45600  1.0000
  P   P3        1.0  0.80500  0.40200  0.54400  1.0000
  P   P4        1.0  0.19500  0.90200  0.95600  1.0000
  Sb  Sb1       1.0  0.19500  0.03980  0.23400  1.0000
  Sb  Sb2       1.0  0.80500  0.54000  0.26600  1.0000
  Sb  Sb3       1.0  0.19500  0.46000  0.73400  1.0000
  Sb  Sb4       1.0  0.80500  0.96000  0.76600  1.0000
