data_image0
_chemical_formula_structural       Al4I32P4
_chemical_formula_sum              "Al4 I32 P4"
_cell_length_a       11.4858
_cell_length_b       11.1476
_cell_length_c       16.2665
_cell_angle_alpha    90
_cell_angle_beta     90
_cell_angle_gamma    90

_space_group_name_H-M_alt    "P 1"
_space_group_IT_number       1

loop_
  _space_group_symop_operation_xyz
  'x, y, z'

loop_
  _atom_site_type_symbol
  _atom_site_label
  _atom_site_symmetry_multiplicity
  _atom_site_fract_x
  _atom_site_fract_y
  _atom_site_fract_z
  _atom_site_occupancy
  Al  Al1       1.0  0.43000  0.50800  0.16400  1.0000
  Al  Al2       1.0  0.93000  0.99200  0.16400  1.0000
  Al  Al3       1.0  0.07030  0.00832  0.66400  1.0000
  Al  Al4       1.0  0.57000  0.49200  0.66400  1.0000
  I   I1        1.0  0.96600  0.04570  0.01120  1.0000
  I   I2        1.0  0.46600  0.45400  0.01120  1.0000
  I   I3        1.0  0.58700  0.06310  0.06830  1.0000
  I   I4        1.0  0.08740  0.43700  0.06830  1.0000
  I   I5        1.0  0.34900  0.72400  0.17100  1.0000
  I   I6        1.0  0.84900  0.77600  0.17100  1.0000
  I   I7        1.0  0.77000  0.13800  0.21500  1.0000
  I   I8        1.0  0.27000  0.36200  0.21500  1.0000
  I   I9        1.0  0.11000  0.01720  0.25100  1.0000
  I   I10       1.0  0.61000  0.48300  0.25100  1.0000
  I   I11       1.0  0.97200  0.63400  0.33000  1.0000
  I   I12       1.0  0.47200  0.86600  0.33000  1.0000
  I   I13       1.0  0.50900  0.19900  0.41500  1.0000
  I   I14       1.0  0.00936  0.30100  0.41500  1.0000
  I   I15       1.0  0.24700  0.53700  0.48000  1.0000
  I   I16       1.0  0.74700  0.96300  0.48000  1.0000
  I   I17       1.0  0.53400  0.54600  0.51100  1.0000
  I   I18       1.0  0.03440  0.95400  0.51100  1.0000
  I   I19       1.0  0.91300  0.56300  0.56800  1.0000
  I   I20       1.0  0.41300  0.93700  0.56800  1.0000
  I   I21       1.0  0.15100  0.22400  0.67100  1.0000
  I   I22       1.0  0.65100  0.27600  0.67100  1.0000
  I   I23       1.0  0.73000  0.63800  0.71500  1.0000
  I   I24       1.0  0.23000  0.86200  0.71500  1.0000
  I   I25       1.0  0.39000  0.51700  0.75100  1.0000
  I   I26       1.0  0.89000  0.98300  0.75100  1.0000
  I   I27       1.0  0.52800  0.13400  0.83000  1.0000
  I   I28       1.0  0.02810  0.36600  0.83000  1.0000
  I   I29       1.0  0.99100  0.69900  0.91500  1.0000
  I   I30       1.0  0.49100  0.80100  0.91500  1.0000
  I   I31       1.0  0.25300  0.03690  0.98000  1.0000
  I   I32       1.0  0.75300  0.46300  0.98000  1.0000
  P   P1        1.0  0.03710  0.51200  0.44800  1.0000
  P   P2        1.0  0.53700  0.98800  0.44800  1.0000
  P   P3        1.0  0.46300  0.01240  0.94800  1.0000
  P   P4        1.0  0.96300  0.48800  0.94800  1.0000
