data_image0
_chemical_formula_structural       Cl4Os
_chemical_formula_sum              "Cl4 Os1"
_cell_length_a       3.6205
_cell_length_b       5.81064
_cell_length_c       5.81064
_cell_angle_alpha    92.7157
_cell_angle_beta     90
_cell_angle_gamma    90

_space_group_name_H-M_alt    "P 1"
_space_group_IT_number       1

loop_
  _space_group_symop_operation_xyz
  'x, y, z'

loop_
  _atom_site_type_symbol
  _atom_site_label
  _atom_site_symmetry_multiplicity
  _atom_site_fract_x
  _atom_site_fract_y
  _atom_site_fract_z
  _atom_site_occupancy
  Cl  Cl1       1.0  0.50000  0.81500  0.18500  1.0000
  Cl  Cl2       1.0  0.00000  0.28300  0.28300  1.0000
  Cl  Cl3       1.0  0.00000  0.71700  0.71700  1.0000
  Cl  Cl4       1.0  0.50000  0.18500  0.81500  1.0000
  Os  Os1       1.0  0.00000  0.00000  0.00000  1.0000
