data_image0
_chemical_formula_structural       Mn12Si20U8
_chemical_formula_sum              "Mn12 Si20 U8"
_cell_length_a       10.4711
_cell_length_b       10.4711
_cell_length_c       5.38463
_cell_angle_alpha    90
_cell_angle_beta     90
_cell_angle_gamma    90

_space_group_name_H-M_alt    "P 1"
_space_group_IT_number       1

loop_
  _space_group_symop_operation_xyz
  'x, y, z'

loop_
  _atom_site_type_symbol
  _atom_site_label
  _atom_site_symmetry_multiplicity
  _atom_site_fract_x
  _atom_site_fract_y
  _atom_site_fract_z
  _atom_site_occupancy
  Mn  Mn1       1.0  0.37400  0.35900  0.00000  1.0000
  Mn  Mn2       1.0  0.64100  0.37400  0.00000  1.0000
  Mn  Mn3       1.0  0.35900  0.62600  0.00000  1.0000
  Mn  Mn4       1.0  0.62600  0.64100  0.00000  1.0000
  Mn  Mn5       1.0  0.50000  0.00000  0.25000  1.0000
  Mn  Mn6       1.0  0.00000  0.50000  0.25000  1.0000
  Mn  Mn7       1.0  0.14100  0.12600  0.50000  1.0000
  Mn  Mn8       1.0  0.87400  0.14100  0.50000  1.0000
  Mn  Mn9       1.0  0.12600  0.85900  0.50000  1.0000
  Mn  Mn10      1.0  0.85900  0.87400  0.50000  1.0000
  Mn  Mn11      1.0  0.50000  0.00000  0.75000  1.0000
  Mn  Mn12      1.0  0.00000  0.50000  0.75000  1.0000
  Si  Si1       1.0  0.52100  0.18400  0.00000  1.0000
  Si  Si2       1.0  0.18400  0.47900  0.00000  1.0000
  Si  Si3       1.0  0.81600  0.52100  0.00000  1.0000
  Si  Si4       1.0  0.47900  0.81600  0.00000  1.0000
  Si  Si5       1.0  0.50000  0.50000  0.24300  1.0000
  Si  Si6       1.0  0.32200  0.17800  0.25000  1.0000
  Si  Si7       1.0  0.82200  0.32200  0.25000  1.0000
  Si  Si8       1.0  0.17800  0.67800  0.25000  1.0000
  Si  Si9       1.0  0.67800  0.82200  0.25000  1.0000
  Si  Si10      1.0  0.00000  0.00000  0.25700  1.0000
  Si  Si11      1.0  0.68400  0.02130  0.50000  1.0000
  Si  Si12      1.0  0.02130  0.31600  0.50000  1.0000
  Si  Si13      1.0  0.97900  0.68400  0.50000  1.0000
  Si  Si14      1.0  0.31600  0.97900  0.50000  1.0000
  Si  Si15      1.0  0.00000  0.00000  0.74300  1.0000
  Si  Si16      1.0  0.32200  0.17800  0.75000  1.0000
  Si  Si17      1.0  0.82200  0.32200  0.75000  1.0000
  Si  Si18      1.0  0.17800  0.67800  0.75000  1.0000
  Si  Si19      1.0  0.67800  0.82200  0.75000  1.0000
  Si  Si20      1.0  0.50000  0.50000  0.75700  1.0000
  U   U1        1.0  0.76500  0.06980  0.00000  1.0000
  U   U2        1.0  0.06980  0.23500  0.00000  1.0000
  U   U3        1.0  0.93000  0.76500  0.00000  1.0000
  U   U4        1.0  0.23500  0.93000  0.00000  1.0000
  U   U5        1.0  0.57000  0.26500  0.50000  1.0000
  U   U6        1.0  0.26500  0.43000  0.50000  1.0000
  U   U7        1.0  0.73500  0.57000  0.50000  1.0000
  U   U8        1.0  0.43000  0.73500  0.50000  1.0000
