data_image0
_chemical_formula_structural       Cl32Tc8
_chemical_formula_sum              "Cl32 Tc8"
_cell_length_a       11.8264
_cell_length_b       14.2126
_cell_length_c       6.08401
_cell_angle_alpha    90
_cell_angle_beta     90
_cell_angle_gamma    90

_space_group_name_H-M_alt    "P 1"
_space_group_IT_number       1

loop_
  _space_group_symop_operation_xyz
  'x, y, z'

loop_
  _atom_site_type_symbol
  _atom_site_label
  _atom_site_symmetry_multiplicity
  _atom_site_fract_x
  _atom_site_fract_y
  _atom_site_fract_z
  _atom_site_occupancy
  Cl  Cl1       1.0  0.74600  0.42800  0.04630  1.0000
  Cl  Cl2       1.0  0.75400  0.92800  0.04630  1.0000
  Cl  Cl3       1.0  0.74100  0.19300  0.07370  1.0000
  Cl  Cl4       1.0  0.75900  0.69300  0.07370  1.0000
  Cl  Cl5       1.0  0.51500  0.30700  0.22400  1.0000
  Cl  Cl6       1.0  0.98500  0.80700  0.22400  1.0000
  Cl  Cl7       1.0  0.01010  0.07150  0.24800  1.0000
  Cl  Cl8       1.0  0.49000  0.57100  0.24800  1.0000
  Cl  Cl9       1.0  0.51000  0.07150  0.25200  1.0000
  Cl  Cl10      1.0  0.99000  0.57100  0.25200  1.0000
  Cl  Cl11      1.0  0.01470  0.30700  0.27600  1.0000
  Cl  Cl12      1.0  0.48500  0.80700  0.27600  1.0000
  Cl  Cl13      1.0  0.24100  0.19300  0.42600  1.0000
  Cl  Cl14      1.0  0.25900  0.69300  0.42600  1.0000
  Cl  Cl15      1.0  0.24600  0.42800  0.45400  1.0000
  Cl  Cl16      1.0  0.25400  0.92800  0.45400  1.0000
  Cl  Cl17      1.0  0.74600  0.07200  0.54600  1.0000
  Cl  Cl18      1.0  0.75400  0.57200  0.54600  1.0000
  Cl  Cl19      1.0  0.74100  0.30700  0.57400  1.0000
  Cl  Cl20      1.0  0.75900  0.80700  0.57400  1.0000
  Cl  Cl21      1.0  0.51500  0.19300  0.72400  1.0000
  Cl  Cl22      1.0  0.98500  0.69300  0.72400  1.0000
  Cl  Cl23      1.0  0.01010  0.42900  0.74800  1.0000
  Cl  Cl24      1.0  0.49000  0.92900  0.74800  1.0000
  Cl  Cl25      1.0  0.51000  0.42900  0.75200  1.0000
  Cl  Cl26      1.0  0.99000  0.92900  0.75200  1.0000
  Cl  Cl27      1.0  0.01470  0.19300  0.77600  1.0000
  Cl  Cl28      1.0  0.48500  0.69300  0.77600  1.0000
  Cl  Cl29      1.0  0.24100  0.30700  0.92600  1.0000
  Cl  Cl30      1.0  0.25900  0.80700  0.92600  1.0000
  Cl  Cl31      1.0  0.24600  0.07200  0.95400  1.0000
  Cl  Cl32      1.0  0.25400  0.57200  0.95400  1.0000
  Tc  Tc1       1.0  0.12800  0.17900  0.10100  1.0000
  Tc  Tc2       1.0  0.37200  0.67900  0.10100  1.0000
  Tc  Tc3       1.0  0.62800  0.17900  0.39900  1.0000
  Tc  Tc4       1.0  0.87200  0.67900  0.39900  1.0000
  Tc  Tc5       1.0  0.12800  0.32100  0.60100  1.0000
  Tc  Tc6       1.0  0.37200  0.82100  0.60100  1.0000
  Tc  Tc7       1.0  0.62800  0.32100  0.89900  1.0000
  Tc  Tc8       1.0  0.87200  0.82100  0.89900  1.0000
