data_image0
_chemical_formula_structural       Cl4La4Nb8O24
_chemical_formula_sum              "Cl4 La4 Nb8 O24"
_cell_length_a       9.80479
_cell_length_b       7.34087
_cell_length_c       8.3497
_cell_angle_alpha    90
_cell_angle_beta     90
_cell_angle_gamma    90

_space_group_name_H-M_alt    "P 1"
_space_group_IT_number       1

loop_
  _space_group_symop_operation_xyz
  'x, y, z'

loop_
  _atom_site_type_symbol
  _atom_site_label
  _atom_site_symmetry_multiplicity
  _atom_site_fract_x
  _atom_site_fract_y
  _atom_site_fract_z
  _atom_site_occupancy
  Cl  Cl1       1.0  0.10500  0.75000  0.07300  1.0000
  Cl  Cl2       1.0  0.60500  0.75000  0.42700  1.0000
  Cl  Cl3       1.0  0.39500  0.25000  0.57300  1.0000
  Cl  Cl4       1.0  0.89500  0.25000  0.92700  1.0000
  La  La1       1.0  0.82300  0.75000  0.18800  1.0000
  La  La2       1.0  0.32300  0.75000  0.31200  1.0000
  La  La3       1.0  0.67700  0.25000  0.68800  1.0000
  La  La4       1.0  0.17700  0.25000  0.81200  1.0000
  Nb  Nb1       1.0  0.50000  0.00000  0.00000  1.0000
  Nb  Nb2       1.0  0.50000  0.50000  0.00000  1.0000
  Nb  Nb3       1.0  0.76600  0.25000  0.22900  1.0000
  Nb  Nb4       1.0  0.26600  0.25000  0.27100  1.0000
  Nb  Nb5       1.0  0.00000  0.00000  0.50000  1.0000
  Nb  Nb6       1.0  0.00000  0.50000  0.50000  1.0000
  Nb  Nb7       1.0  0.73400  0.75000  0.72900  1.0000
  Nb  Nb8       1.0  0.23400  0.75000  0.77100  1.0000
  O   O1        1.0  0.50300  0.75000  0.08230  1.0000
  O   O2        1.0  0.16900  0.25000  0.08710  1.0000
  O   O3        1.0  0.67700  0.04400  0.11200  1.0000
  O   O4        1.0  0.67700  0.45600  0.11200  1.0000
  O   O5        1.0  0.40000  0.05640  0.20400  1.0000
  O   O6        1.0  0.40000  0.44400  0.20400  1.0000
  O   O7        1.0  0.90000  0.05640  0.29600  1.0000
  O   O8        1.0  0.90000  0.44400  0.29600  1.0000
  O   O9        1.0  0.17700  0.04400  0.38800  1.0000
  O   O10       1.0  0.17700  0.45600  0.38800  1.0000
  O   O11       1.0  0.66900  0.25000  0.41300  1.0000
  O   O12       1.0  0.00255  0.75000  0.41800  1.0000
  O   O13       1.0  0.99700  0.25000  0.58200  1.0000
  O   O14       1.0  0.33100  0.75000  0.58700  1.0000
  O   O15       1.0  0.82300  0.54400  0.61200  1.0000
  O   O16       1.0  0.82300  0.95600  0.61200  1.0000
  O   O17       1.0  0.10000  0.55600  0.70400  1.0000
  O   O18       1.0  0.10000  0.94400  0.70400  1.0000
  O   O19       1.0  0.60000  0.55600  0.79600  1.0000
  O   O20       1.0  0.60000  0.94400  0.79600  1.0000
  O   O21       1.0  0.32300  0.54400  0.88800  1.0000
  O   O22       1.0  0.32300  0.95600  0.88800  1.0000
  O   O23       1.0  0.83100  0.75000  0.91300  1.0000
  O   O24       1.0  0.49700  0.25000  0.91800  1.0000
