data_image0
_chemical_formula_structural       F4N20S16
_chemical_formula_sum              "F4 N20 S16"
_cell_length_a       5.96432
_cell_length_b       10.1876
_cell_length_c       10.5482
_cell_angle_alpha    66.4838
_cell_angle_beta     88.9592
_cell_angle_gamma    82.1424

_space_group_name_H-M_alt    "P 1"
_space_group_IT_number       1

loop_
  _space_group_symop_operation_xyz
  'x, y, z'

loop_
  _atom_site_type_symbol
  _atom_site_label
  _atom_site_symmetry_multiplicity
  _atom_site_fract_x
  _atom_site_fract_y
  _atom_site_fract_z
  _atom_site_occupancy
  F   F1        1.0  0.46800  0.65900  0.16300  1.0000
  F   F2        1.0  0.48700  0.40500  0.44400  1.0000
  F   F3        1.0  0.51300  0.59500  0.55600  1.0000
  F   F4        1.0  0.53200  0.34100  0.83700  1.0000
  N   N1        1.0  0.84900  0.19400  0.01630  1.0000
  N   N2        1.0  0.81200  0.85800  0.13700  1.0000
  N   N3        1.0  0.95800  0.59100  0.15400  1.0000
  N   N4        1.0  0.41500  0.33700  0.15500  1.0000
  N   N5        1.0  0.24200  0.87500  0.19700  1.0000
  N   N6        1.0  0.84000  0.29300  0.25800  1.0000
  N   N7        1.0  0.60800  0.07380  0.31100  1.0000
  N   N8        1.0  0.02090  0.66400  0.36700  1.0000
  N   N9        1.0  0.28700  0.21400  0.41500  1.0000
  N   N10       1.0  0.28000  0.84500  0.48700  1.0000
  N   N11       1.0  0.72000  0.15500  0.51300  1.0000
  N   N12       1.0  0.71300  0.78600  0.58500  1.0000
  N   N13       1.0  0.97900  0.33600  0.63300  1.0000
  N   N14       1.0  0.39200  0.92600  0.68900  1.0000
  N   N15       1.0  0.16000  0.70700  0.74200  1.0000
  N   N16       1.0  0.75800  0.12500  0.80300  1.0000
  N   N17       1.0  0.58500  0.66300  0.84500  1.0000
  N   N18       1.0  0.04160  0.40900  0.84600  1.0000
  N   N19       1.0  0.18800  0.14200  0.86300  1.0000
  N   N20       1.0  0.15100  0.80600  0.98400  1.0000
  S   S1        1.0  0.90100  0.76900  0.04340  1.0000
  S   S2        1.0  0.33500  0.83600  0.07340  1.0000
  S   S3        1.0  0.65600  0.38300  0.14100  1.0000
  S   S4        1.0  0.98800  0.84500  0.25900  1.0000
  S   S5        1.0  0.36100  0.17500  0.28200  1.0000
  S   S6        1.0  0.98900  0.54600  0.31300  1.0000
  S   S7        1.0  0.80600  0.12600  0.37700  1.0000
  S   S8        1.0  0.53400  0.77500  0.48000  1.0000
  S   S9        1.0  0.46600  0.22500  0.52000  1.0000
  S   S10       1.0  0.19400  0.87400  0.62300  1.0000
  S   S11       1.0  0.01100  0.45400  0.68700  1.0000
  S   S12       1.0  0.63900  0.82500  0.71800  1.0000
  S   S13       1.0  0.01150  0.15500  0.74100  1.0000
  S   S14       1.0  0.34400  0.61700  0.85900  1.0000
  S   S15       1.0  0.66500  0.16400  0.92700  1.0000
  S   S16       1.0  0.09860  0.23100  0.95700  1.0000
