data_image0
_chemical_formula_structural       F28Pb8Rh4
_chemical_formula_sum              "F28 Pb8 Rh4"
_cell_length_a       5.4914
_cell_length_b       11.702
_cell_length_c       8.67747
_cell_angle_alpha    90
_cell_angle_beta     90.686
_cell_angle_gamma    90

_space_group_name_H-M_alt    "P 1"
_space_group_IT_number       1

loop_
  _space_group_symop_operation_xyz
  'x, y, z'

loop_
  _atom_site_type_symbol
  _atom_site_label
  _atom_site_symmetry_multiplicity
  _atom_site_fract_x
  _atom_site_fract_y
  _atom_site_fract_z
  _atom_site_occupancy
  F   F1        1.0  0.11300  0.60400  0.00659  1.0000
  F   F2        1.0  0.77600  0.83200  0.04080  1.0000
  F   F3        1.0  0.58500  0.59900  0.10500  1.0000
  F   F4        1.0  0.60900  0.04880  0.12400  1.0000
  F   F5        1.0  0.11300  0.98800  0.17500  1.0000
  F   F6        1.0  0.52200  0.27100  0.18600  1.0000
  F   F7        1.0  0.00495  0.22400  0.21600  1.0000
  F   F8        1.0  0.99500  0.72400  0.28400  1.0000
  F   F9        1.0  0.47800  0.77100  0.31400  1.0000
  F   F10       1.0  0.88700  0.48800  0.32500  1.0000
  F   F11       1.0  0.39100  0.54900  0.37600  1.0000
  F   F12       1.0  0.41500  0.09890  0.39500  1.0000
  F   F13       1.0  0.22400  0.33200  0.45900  1.0000
  F   F14       1.0  0.88700  0.10400  0.49300  1.0000
  F   F15       1.0  0.11300  0.89600  0.50700  1.0000
  F   F16       1.0  0.77600  0.66800  0.54100  1.0000
  F   F17       1.0  0.58500  0.90100  0.60500  1.0000
  F   F18       1.0  0.60900  0.45100  0.62400  1.0000
  F   F19       1.0  0.11300  0.51200  0.67500  1.0000
  F   F20       1.0  0.52200  0.22900  0.68600  1.0000
  F   F21       1.0  0.00495  0.27600  0.71600  1.0000
  F   F22       1.0  0.99500  0.77600  0.78400  1.0000
  F   F23       1.0  0.47800  0.72900  0.81400  1.0000
  F   F24       1.0  0.88700  0.01170  0.82500  1.0000
  F   F25       1.0  0.39100  0.95100  0.87600  1.0000
  F   F26       1.0  0.41500  0.40100  0.89500  1.0000
  F   F27       1.0  0.22400  0.16800  0.95900  1.0000
  F   F28       1.0  0.88700  0.39600  0.99300  1.0000
  Pb  Pb1       1.0  0.22600  0.79500  0.05390  1.0000
  Pb  Pb2       1.0  0.23300  0.44100  0.15300  1.0000
  Pb  Pb3       1.0  0.76700  0.94100  0.34700  1.0000
  Pb  Pb4       1.0  0.77400  0.29500  0.44600  1.0000
  Pb  Pb5       1.0  0.22600  0.70500  0.55400  1.0000
  Pb  Pb6       1.0  0.23300  0.05890  0.65300  1.0000
  Pb  Pb7       1.0  0.76700  0.55900  0.84700  1.0000
  Pb  Pb8       1.0  0.77400  0.20500  0.94600  1.0000
  Rh  Rh1       1.0  0.30800  0.13200  0.17900  1.0000
  Rh  Rh2       1.0  0.69200  0.63200  0.32100  1.0000
  Rh  Rh3       1.0  0.30800  0.36800  0.67900  1.0000
  Rh  Rh4       1.0  0.69200  0.86800  0.82100  1.0000
