data_image0
_chemical_formula_structural       Cs8Na12O16Tl4
_chemical_formula_sum              "Cs8 Na12 O16 Tl4"
_cell_length_a       6.40479
_cell_length_b       10.135
_cell_length_c       12.5996
_cell_angle_alpha    90
_cell_angle_beta     110.762
_cell_angle_gamma    90

_space_group_name_H-M_alt    "P 1"
_space_group_IT_number       1

loop_
  _space_group_symop_operation_xyz
  'x, y, z'

loop_
  _atom_site_type_symbol
  _atom_site_label
  _atom_site_symmetry_multiplicity
  _atom_site_fract_x
  _atom_site_fract_y
  _atom_site_fract_z
  _atom_site_occupancy
  Cs  Cs1       1.0  0.71500  0.22900  0.10700  1.0000
  Cs  Cs2       1.0  0.28100  0.99900  0.13500  1.0000
  Cs  Cs3       1.0  0.71900  0.49900  0.36500  1.0000
  Cs  Cs4       1.0  0.28500  0.72900  0.39300  1.0000
  Cs  Cs5       1.0  0.71500  0.27100  0.60700  1.0000
  Cs  Cs6       1.0  0.28100  0.50100  0.63500  1.0000
  Cs  Cs7       1.0  0.71900  0.00145  0.86500  1.0000
  Cs  Cs8       1.0  0.28500  0.77100  0.89300  1.0000
  Na  Na1       1.0  0.36000  0.50800  0.06850  1.0000
  Na  Na2       1.0  0.61200  0.74500  0.19800  1.0000
  Na  Na3       1.0  0.08880  0.47500  0.20700  1.0000
  Na  Na4       1.0  0.91100  0.97500  0.29300  1.0000
  Na  Na5       1.0  0.38800  0.24500  0.30200  1.0000
  Na  Na6       1.0  0.64000  0.00792  0.43100  1.0000
  Na  Na7       1.0  0.36000  0.99200  0.56900  1.0000
  Na  Na8       1.0  0.61200  0.75500  0.69800  1.0000
  Na  Na9       1.0  0.08880  0.02540  0.70700  1.0000
  Na  Na10      1.0  0.91100  0.52500  0.79300  1.0000
  Na  Na11      1.0  0.38800  0.25500  0.80200  1.0000
  Na  Na12      1.0  0.64000  0.49200  0.93100  1.0000
  O   O1        1.0  0.77200  0.90600  0.10600  1.0000
  O   O2        1.0  0.22200  0.30900  0.12000  1.0000
  O   O3        1.0  0.73400  0.55700  0.12400  1.0000
  O   O4        1.0  0.25200  0.67800  0.15700  1.0000
  O   O5        1.0  0.74800  0.17800  0.34300  1.0000
  O   O6        1.0  0.26600  0.05750  0.37600  1.0000
  O   O7        1.0  0.77800  0.80900  0.38000  1.0000
  O   O8        1.0  0.22800  0.40600  0.39400  1.0000
  O   O9        1.0  0.77200  0.59400  0.60600  1.0000
  O   O10       1.0  0.22200  0.19100  0.62000  1.0000
  O   O11       1.0  0.73400  0.94300  0.62400  1.0000
  O   O12       1.0  0.25200  0.82200  0.65700  1.0000
  O   O13       1.0  0.74800  0.32200  0.84300  1.0000
  O   O14       1.0  0.26600  0.44300  0.87600  1.0000
  O   O15       1.0  0.77800  0.69100  0.88000  1.0000
  O   O16       1.0  0.22800  0.09420  0.89400  1.0000
  Tl  Tl1       1.0  0.90200  0.72100  0.06360  1.0000
  Tl  Tl2       1.0  0.09820  0.22100  0.43600  1.0000
  Tl  Tl3       1.0  0.90200  0.77900  0.56400  1.0000
  Tl  Tl4       1.0  0.09820  0.27900  0.93600  1.0000
