data_image0
_chemical_formula_structural       C4Cu8H8O20
_chemical_formula_sum              "C4 Cu8 H8 O20"
_cell_length_a       9.34474
_cell_length_b       12.109
_cell_length_c       3.10078
_cell_angle_alpha    89.9921
_cell_angle_beta     97.1373
_cell_angle_gamma    90.0181

_space_group_name_H-M_alt    "P 1"
_space_group_IT_number       1

loop_
  _space_group_symop_operation_xyz
  'x, y, z'

loop_
  _atom_site_type_symbol
  _atom_site_label
  _atom_site_symmetry_multiplicity
  _atom_site_fract_x
  _atom_site_fract_y
  _atom_site_fract_z
  _atom_site_occupancy
  C   C1        1.0  0.77100  0.36200  0.46500  1.0000
  C   C2        1.0  0.27100  0.13800  0.46500  1.0000
  C   C3        1.0  0.72900  0.86200  0.53500  1.0000
  C   C4        1.0  0.22900  0.63800  0.53500  1.0000
  Cu  Cu1       1.0  0.00019  0.79000  0.10500  1.0000
  Cu  Cu2       1.0  0.50000  0.71000  0.10500  1.0000
  Cu  Cu3       1.0  0.22600  0.39500  0.36500  1.0000
  Cu  Cu4       1.0  0.72600  0.10500  0.36500  1.0000
  Cu  Cu5       1.0  0.27400  0.89500  0.63500  1.0000
  Cu  Cu6       1.0  0.77400  0.60500  0.63500  1.0000
  Cu  Cu7       1.0  0.50000  0.29000  0.89500  1.0000
  Cu  Cu8       1.0  0.00000  0.21000  0.89500  1.0000
  H   H1        1.0  0.59900  0.50600  0.17600  1.0000
  H   H2        1.0  0.09910  0.99400  0.17600  1.0000
  H   H3        1.0  0.48900  0.90100  0.18600  1.0000
  H   H4        1.0  0.98900  0.59900  0.18600  1.0000
  H   H5        1.0  0.01060  0.40100  0.81400  1.0000
  H   H6        1.0  0.51100  0.09930  0.81400  1.0000
  H   H7        1.0  0.90100  0.00630  0.82400  1.0000
  H   H8        1.0  0.40100  0.49400  0.82400  1.0000
  O   O1        1.0  0.40500  0.84900  0.11700  1.0000
  O   O2        1.0  0.90500  0.65100  0.11700  1.0000
  O   O3        1.0  0.62800  0.58500  0.15900  1.0000
  O   O4        1.0  0.12800  0.91500  0.15900  1.0000
  O   O5        1.0  0.63600  0.37300  0.31700  1.0000
  O   O6        1.0  0.13600  0.12700  0.31700  1.0000
  O   O7        1.0  0.65600  0.94400  0.36300  1.0000
  O   O8        1.0  0.15600  0.55600  0.36300  1.0000
  O   O9        1.0  0.83300  0.26500  0.45100  1.0000
  O   O10       1.0  0.33300  0.23500  0.45200  1.0000
  O   O11       1.0  0.66700  0.76500  0.54800  1.0000
  O   O12       1.0  0.16700  0.73500  0.54900  1.0000
  O   O13       1.0  0.84400  0.44400  0.63700  1.0000
  O   O14       1.0  0.34400  0.05630  0.63700  1.0000
  O   O15       1.0  0.86400  0.87300  0.68300  1.0000
  O   O16       1.0  0.36400  0.62700  0.68300  1.0000
  O   O17       1.0  0.87200  0.08520  0.84100  1.0000
  O   O18       1.0  0.37200  0.41500  0.84100  1.0000
  O   O19       1.0  0.09470  0.34900  0.88300  1.0000
  O   O20       1.0  0.59500  0.15100  0.88300  1.0000
