data_image0
_chemical_formula_structural       N16O8S16
_chemical_formula_sum              "N16 O8 S16"
_cell_length_a       10.1663
_cell_length_b       7.9896
_cell_length_c       8.51834
_cell_angle_alpha    90
_cell_angle_beta     113.681
_cell_angle_gamma    90

_space_group_name_H-M_alt    "P 1"
_space_group_IT_number       1

loop_
  _space_group_symop_operation_xyz
  'x, y, z'

loop_
  _atom_site_type_symbol
  _atom_site_label
  _atom_site_symmetry_multiplicity
  _atom_site_fract_x
  _atom_site_fract_y
  _atom_site_fract_z
  _atom_site_occupancy
  N   N1        1.0  0.62700  0.93100  0.14400  1.0000
  N   N2        1.0  0.12500  0.06770  0.17000  1.0000
  N   N3        1.0  0.58100  0.60300  0.18200  1.0000
  N   N4        1.0  0.10300  0.40000  0.21200  1.0000
  N   N5        1.0  0.89700  0.90000  0.28800  1.0000
  N   N6        1.0  0.41900  0.10300  0.31800  1.0000
  N   N7        1.0  0.87500  0.56800  0.33000  1.0000
  N   N8        1.0  0.37300  0.43100  0.35600  1.0000
  N   N9        1.0  0.62700  0.56900  0.64400  1.0000
  N   N10       1.0  0.12500  0.43200  0.67000  1.0000
  N   N11       1.0  0.58100  0.89700  0.68200  1.0000
  N   N12       1.0  0.10300  0.10000  0.71200  1.0000
  N   N13       1.0  0.89700  0.60000  0.78800  1.0000
  N   N14       1.0  0.41900  0.39700  0.81800  1.0000
  N   N15       1.0  0.87500  0.93200  0.83000  1.0000
  N   N16       1.0  0.37300  0.06930  0.85600  1.0000
  O   O1        1.0  0.25500  0.34200  0.04410  1.0000
  O   O2        1.0  0.22600  0.62900  0.13300  1.0000
  O   O3        1.0  0.77400  0.12900  0.36700  1.0000
  O   O4        1.0  0.74500  0.84200  0.45600  1.0000
  O   O5        1.0  0.25500  0.15800  0.54400  1.0000
  O   O6        1.0  0.22600  0.87100  0.63300  1.0000
  O   O7        1.0  0.77400  0.37100  0.86700  1.0000
  O   O8        1.0  0.74500  0.65800  0.95600  1.0000
  S   S1        1.0  0.52600  0.77300  0.08700  1.0000
  S   S2        1.0  0.24000  0.45300  0.17100  1.0000
  S   S3        1.0  0.03500  0.22000  0.18800  1.0000
  S   S4        1.0  0.28000  0.99600  0.20900  1.0000
  S   S5        1.0  0.72000  0.49600  0.29100  1.0000
  S   S6        1.0  0.96500  0.72000  0.31200  1.0000
  S   S7        1.0  0.76000  0.95300  0.32900  1.0000
  S   S8        1.0  0.47400  0.27300  0.41300  1.0000
  S   S9        1.0  0.52600  0.72700  0.58700  1.0000
  S   S10       1.0  0.24000  0.04720  0.67100  1.0000
  S   S11       1.0  0.03500  0.28000  0.68800  1.0000
  S   S12       1.0  0.28000  0.50400  0.70900  1.0000
  S   S13       1.0  0.72000  0.00354  0.79100  1.0000
  S   S14       1.0  0.96500  0.78000  0.81200  1.0000
  S   S15       1.0  0.76000  0.54700  0.82900  1.0000
  S   S16       1.0  0.47400  0.22700  0.91300  1.0000
