data_image0
_chemical_formula_structural       Cl28Dy8Rb4
_chemical_formula_sum              "Cl28 Dy8 Rb4"
_cell_length_a       13.0383
_cell_length_b       6.93612
_cell_length_c       12.6521
_cell_angle_alpha    90
_cell_angle_beta     90
_cell_angle_gamma    90

_space_group_name_H-M_alt    "P 1"
_space_group_IT_number       1

loop_
  _space_group_symop_operation_xyz
  'x, y, z'

loop_
  _atom_site_type_symbol
  _atom_site_label
  _atom_site_symmetry_multiplicity
  _atom_site_fract_x
  _atom_site_fract_y
  _atom_site_fract_z
  _atom_site_occupancy
  Cl  Cl1       1.0  0.86900  0.51000  0.03960  1.0000
  Cl  Cl2       1.0  0.86900  0.99000  0.03960  1.0000
  Cl  Cl3       1.0  0.61800  0.01040  0.07810  1.0000
  Cl  Cl4       1.0  0.61800  0.49000  0.07810  1.0000
  Cl  Cl5       1.0  0.10600  0.75000  0.18800  1.0000
  Cl  Cl6       1.0  0.32600  0.50700  0.19300  1.0000
  Cl  Cl7       1.0  0.32600  0.99300  0.19300  1.0000
  Cl  Cl8       1.0  0.82600  0.50700  0.30700  1.0000
  Cl  Cl9       1.0  0.82600  0.99300  0.30700  1.0000
  Cl  Cl10      1.0  0.60600  0.75000  0.31200  1.0000
  Cl  Cl11      1.0  0.11800  0.01040  0.42200  1.0000
  Cl  Cl12      1.0  0.11800  0.49000  0.42200  1.0000
  Cl  Cl13      1.0  0.36900  0.51000  0.46000  1.0000
  Cl  Cl14      1.0  0.36900  0.99000  0.46000  1.0000
  Cl  Cl15      1.0  0.63100  0.00983  0.54000  1.0000
  Cl  Cl16      1.0  0.63100  0.49000  0.54000  1.0000
  Cl  Cl17      1.0  0.88200  0.51000  0.57800  1.0000
  Cl  Cl18      1.0  0.88200  0.99000  0.57800  1.0000
  Cl  Cl19      1.0  0.39400  0.25000  0.68800  1.0000
  Cl  Cl20      1.0  0.17400  0.00680  0.69300  1.0000
  Cl  Cl21      1.0  0.17400  0.49300  0.69300  1.0000
  Cl  Cl22      1.0  0.67400  0.00680  0.80700  1.0000
  Cl  Cl23      1.0  0.67400  0.49300  0.80700  1.0000
  Cl  Cl24      1.0  0.89400  0.25000  0.81200  1.0000
  Cl  Cl25      1.0  0.38200  0.51000  0.92200  1.0000
  Cl  Cl26      1.0  0.38200  0.99000  0.92200  1.0000
  Cl  Cl27      1.0  0.13100  0.00983  0.96000  1.0000
  Cl  Cl28      1.0  0.13100  0.49000  0.96000  1.0000
  Dy  Dy1       1.0  0.26400  0.75000  0.04020  1.0000
  Dy  Dy2       1.0  0.75000  0.75000  0.15700  1.0000
  Dy  Dy3       1.0  0.25000  0.75000  0.34300  1.0000
  Dy  Dy4       1.0  0.76400  0.75000  0.46000  1.0000
  Dy  Dy5       1.0  0.23600  0.25000  0.54000  1.0000
  Dy  Dy6       1.0  0.75000  0.25000  0.65700  1.0000
  Dy  Dy7       1.0  0.25000  0.25000  0.84300  1.0000
  Dy  Dy8       1.0  0.73600  0.25000  0.96000  1.0000
  Rb  Rb1       1.0  0.04280  0.25000  0.19300  1.0000
  Rb  Rb2       1.0  0.54300  0.25000  0.30700  1.0000
  Rb  Rb3       1.0  0.45700  0.75000  0.69300  1.0000
  Rb  Rb4       1.0  0.95700  0.75000  0.80700  1.0000
