data_image0
_chemical_formula_structural       F4H24N4O8
_chemical_formula_sum              "F4 H24 N4 O8"
_cell_length_a       7.22028
_cell_length_b       8.76676
_cell_length_c       4.33839
_cell_angle_alpha    90
_cell_angle_beta     90
_cell_angle_gamma    90

_space_group_name_H-M_alt    "P 1"
_space_group_IT_number       1

loop_
  _space_group_symop_operation_xyz
  'x, y, z'

loop_
  _atom_site_type_symbol
  _atom_site_label
  _atom_site_symmetry_multiplicity
  _atom_site_fract_x
  _atom_site_fract_y
  _atom_site_fract_z
  _atom_site_occupancy
  F   F1        1.0  0.09170  0.25000  0.20800  1.0000
  F   F2        1.0  0.59200  0.25000  0.29200  1.0000
  F   F3        1.0  0.40800  0.75000  0.70800  1.0000
  F   F4        1.0  0.90800  0.75000  0.79200  1.0000
  H   H1        1.0  0.26700  0.75000  0.01330  1.0000
  H   H2        1.0  0.78100  0.75000  0.09460  1.0000
  H   H3        1.0  0.10800  0.65300  0.22900  1.0000
  H   H4        1.0  0.10800  0.84700  0.22900  1.0000
  H   H5        1.0  0.51200  0.09870  0.23400  1.0000
  H   H6        1.0  0.51200  0.40100  0.23400  1.0000
  H   H7        1.0  0.01220  0.09870  0.26600  1.0000
  H   H8        1.0  0.01220  0.40100  0.26600  1.0000
  H   H9        1.0  0.60800  0.65300  0.27100  1.0000
  H   H10       1.0  0.60800  0.84700  0.27100  1.0000
  H   H11       1.0  0.28100  0.75000  0.40500  1.0000
  H   H12       1.0  0.76700  0.75000  0.48700  1.0000
  H   H13       1.0  0.23300  0.25000  0.51300  1.0000
  H   H14       1.0  0.71900  0.25000  0.59500  1.0000
  H   H15       1.0  0.39200  0.15300  0.72900  1.0000
  H   H16       1.0  0.39200  0.34700  0.72900  1.0000
  H   H17       1.0  0.98800  0.59900  0.73400  1.0000
  H   H18       1.0  0.98800  0.90100  0.73400  1.0000
  H   H19       1.0  0.48800  0.59900  0.76600  1.0000
  H   H20       1.0  0.48800  0.90100  0.76600  1.0000
  H   H21       1.0  0.89200  0.15300  0.77100  1.0000
  H   H22       1.0  0.89200  0.34700  0.77100  1.0000
  H   H23       1.0  0.21900  0.25000  0.90500  1.0000
  H   H24       1.0  0.73300  0.25000  0.98700  1.0000
  N   N1        1.0  0.19100  0.75000  0.21700  1.0000
  N   N2        1.0  0.69100  0.75000  0.28300  1.0000
  N   N3        1.0  0.30900  0.25000  0.71700  1.0000
  N   N4        1.0  0.80900  0.25000  0.78300  1.0000
  O   O1        1.0  0.46000  0.50300  0.15700  1.0000
  O   O2        1.0  0.46000  0.99700  0.15700  1.0000
  O   O3        1.0  0.96000  0.50300  0.34300  1.0000
  O   O4        1.0  0.96000  0.99700  0.34300  1.0000
  O   O5        1.0  0.03990  0.00252  0.65700  1.0000
  O   O6        1.0  0.03990  0.49700  0.65700  1.0000
  O   O7        1.0  0.54000  0.00252  0.84300  1.0000
  O   O8        1.0  0.54000  0.49700  0.84300  1.0000
