data_image0
_chemical_formula_structural       Al4F16H16N4
_chemical_formula_sum              "Al4 F16 H16 N4"
_cell_length_a       4.93163
_cell_length_b       4.93163
_cell_length_c       12.2826
_cell_angle_alpha    90
_cell_angle_beta     90
_cell_angle_gamma    90

_space_group_name_H-M_alt    "P 1"
_space_group_IT_number       1

loop_
  _space_group_symop_operation_xyz
  'x, y, z'

loop_
  _atom_site_type_symbol
  _atom_site_label
  _atom_site_symmetry_multiplicity
  _atom_site_fract_x
  _atom_site_fract_y
  _atom_site_fract_z
  _atom_site_occupancy
  Al  Al1       1.0  0.50000  0.00000  0.00000  1.0000
  Al  Al2       1.0  0.00000  0.50000  0.00000  1.0000
  Al  Al3       1.0  0.50000  0.00000  0.50000  1.0000
  Al  Al4       1.0  0.00000  0.50000  0.50000  1.0000
  F   F1        1.0  0.81500  0.18500  0.00000  1.0000
  F   F2        1.0  0.31500  0.31500  0.00000  1.0000
  F   F3        1.0  0.68500  0.68500  0.00000  1.0000
  F   F4        1.0  0.18500  0.81500  0.00000  1.0000
  F   F5        1.0  0.50000  0.00000  0.14400  1.0000
  F   F6        1.0  0.00000  0.50000  0.14400  1.0000
  F   F7        1.0  0.50000  0.00000  0.35600  1.0000
  F   F8        1.0  0.00000  0.50000  0.35600  1.0000
  F   F9        1.0  0.18500  0.18500  0.50000  1.0000
  F   F10       1.0  0.68500  0.31500  0.50000  1.0000
  F   F11       1.0  0.31500  0.68500  0.50000  1.0000
  F   F12       1.0  0.81500  0.81500  0.50000  1.0000
  F   F13       1.0  0.50000  0.00000  0.64400  1.0000
  F   F14       1.0  0.00000  0.50000  0.64400  1.0000
  F   F15       1.0  0.50000  0.00000  0.85600  1.0000
  F   F16       1.0  0.00000  0.50000  0.85600  1.0000
  H   H1        1.0  0.99900  0.17300  0.20200  1.0000
  H   H2        1.0  0.49900  0.32700  0.20200  1.0000
  H   H3        1.0  0.50100  0.67300  0.20200  1.0000
  H   H4        1.0  0.00143  0.82700  0.20200  1.0000
  H   H5        1.0  0.17300  0.00143  0.29800  1.0000
  H   H6        1.0  0.67300  0.49900  0.29800  1.0000
  H   H7        1.0  0.32700  0.50100  0.29800  1.0000
  H   H8        1.0  0.82700  0.99900  0.29800  1.0000
  H   H9        1.0  0.17300  0.00143  0.70200  1.0000
  H   H10       1.0  0.67300  0.49900  0.70200  1.0000
  H   H11       1.0  0.32700  0.50100  0.70200  1.0000
  H   H12       1.0  0.82700  0.99900  0.70200  1.0000
  H   H13       1.0  0.99900  0.17300  0.79800  1.0000
  H   H14       1.0  0.49900  0.32700  0.79800  1.0000
  H   H15       1.0  0.50100  0.67300  0.79800  1.0000
  H   H16       1.0  0.00143  0.82700  0.79800  1.0000
  N   N1        1.0  0.00000  0.00000  0.25000  1.0000
  N   N2        1.0  0.50000  0.50000  0.25000  1.0000
  N   N3        1.0  0.00000  0.00000  0.75000  1.0000
  N   N4        1.0  0.50000  0.50000  0.75000  1.0000
