data_image0
_chemical_formula_structural       Cu2F12H16O8Si2
_chemical_formula_sum              "Cu2 F12 H16 O8 Si2"
_cell_length_a       5.42941
_cell_length_b       6.54633
_cell_length_c       9.13765
_cell_angle_alpha    90
_cell_angle_beta     90
_cell_angle_gamma    109.969

_space_group_name_H-M_alt    "P 1"
_space_group_IT_number       1

loop_
  _space_group_symop_operation_xyz
  'x, y, z'

loop_
  _atom_site_type_symbol
  _atom_site_label
  _atom_site_symmetry_multiplicity
  _atom_site_fract_x
  _atom_site_fract_y
  _atom_site_fract_z
  _atom_site_occupancy
  Cu  Cu1       1.0  0.00000  0.00000  0.00000  1.0000
  Cu  Cu2       1.0  0.00000  0.50000  0.50000  1.0000
  F   F1        1.0  0.76800  0.45800  0.07250  1.0000
  F   F2        1.0  0.31000  0.27600  0.08800  1.0000
  F   F3        1.0  0.48000  0.65100  0.14900  1.0000
  F   F4        1.0  0.48000  0.15100  0.35100  1.0000
  F   F5        1.0  0.31000  0.77600  0.41200  1.0000
  F   F6        1.0  0.76800  0.95800  0.42700  1.0000
  F   F7        1.0  0.23200  0.04170  0.57300  1.0000
  F   F8        1.0  0.69000  0.22400  0.58800  1.0000
  F   F9        1.0  0.52000  0.84900  0.64900  1.0000
  F   F10       1.0  0.52000  0.34900  0.85100  1.0000
  F   F11       1.0  0.69000  0.72400  0.91200  1.0000
  F   F12       1.0  0.23200  0.54200  0.92700  1.0000
  H   H1        1.0  0.72400  0.20400  0.10400  1.0000
  H   H2        1.0  0.61400  0.94900  0.15600  1.0000
  H   H3        1.0  0.98400  0.72600  0.20100  1.0000
  H   H4        1.0  0.20300  0.95300  0.23900  1.0000
  H   H5        1.0  0.20300  0.45300  0.26100  1.0000
  H   H6        1.0  0.98400  0.22600  0.29900  1.0000
  H   H7        1.0  0.61400  0.44900  0.34400  1.0000
  H   H8        1.0  0.72400  0.70400  0.39600  1.0000
  H   H9        1.0  0.27600  0.29600  0.60400  1.0000
  H   H10       1.0  0.38600  0.55100  0.65600  1.0000
  H   H11       1.0  0.01630  0.77400  0.70100  1.0000
  H   H12       1.0  0.79700  0.54700  0.73900  1.0000
  H   H13       1.0  0.79700  0.04740  0.76100  1.0000
  H   H14       1.0  0.01630  0.27400  0.79900  1.0000
  H   H15       1.0  0.38600  0.05130  0.84400  1.0000
  H   H16       1.0  0.27600  0.79600  0.89600  1.0000
  O   O1        1.0  0.77100  0.07670  0.13700  1.0000
  O   O2        1.0  0.11800  0.85400  0.15800  1.0000
  O   O3        1.0  0.11800  0.35400  0.34200  1.0000
  O   O4        1.0  0.77100  0.57700  0.36300  1.0000
  O   O5        1.0  0.22900  0.42300  0.63700  1.0000
  O   O6        1.0  0.88200  0.64600  0.65800  1.0000
  O   O7        1.0  0.88200  0.14600  0.84200  1.0000
  O   O8        1.0  0.22900  0.92300  0.86300  1.0000
  Si  Si1       1.0  0.50000  0.50000  0.00000  1.0000
  Si  Si2       1.0  0.50000  0.00000  0.50000  1.0000
