data_image0
_chemical_formula_structural       Br20C4K8O4Os4
_chemical_formula_sum              "Br20 C4 K8 O4 Os4"
_cell_length_a       14.4772
_cell_length_b       7.37513
_cell_length_c       10.7468
_cell_angle_alpha    90
_cell_angle_beta     90
_cell_angle_gamma    90

_space_group_name_H-M_alt    "P 1"
_space_group_IT_number       1

loop_
  _space_group_symop_operation_xyz
  'x, y, z'

loop_
  _atom_site_type_symbol
  _atom_site_label
  _atom_site_symmetry_multiplicity
  _atom_site_fract_x
  _atom_site_fract_y
  _atom_site_fract_z
  _atom_site_occupancy
  Br  Br1       1.0  0.73000  0.56500  0.13600  1.0000
  Br  Br2       1.0  0.23000  0.93500  0.13600  1.0000
  Br  Br3       1.0  0.50400  0.04090  0.13800  1.0000
  Br  Br4       1.0  0.00421  0.45900  0.13800  1.0000
  Br  Br5       1.0  0.75300  0.08310  0.14100  1.0000
  Br  Br6       1.0  0.25300  0.41700  0.14100  1.0000
  Br  Br7       1.0  0.11300  0.19500  0.37100  1.0000
  Br  Br8       1.0  0.61300  0.30500  0.37100  1.0000
  Br  Br9       1.0  0.38300  0.70300  0.40300  1.0000
  Br  Br10      1.0  0.88300  0.79700  0.40300  1.0000
  Br  Br11      1.0  0.77000  0.06470  0.63600  1.0000
  Br  Br12      1.0  0.27000  0.43500  0.63600  1.0000
  Br  Br13      1.0  0.99600  0.54100  0.63800  1.0000
  Br  Br14      1.0  0.49600  0.95900  0.63800  1.0000
  Br  Br15      1.0  0.74700  0.58300  0.64100  1.0000
  Br  Br16      1.0  0.24700  0.91700  0.64100  1.0000
  Br  Br17      1.0  0.38700  0.69500  0.87100  1.0000
  Br  Br18      1.0  0.88700  0.80500  0.87100  1.0000
  Br  Br19      1.0  0.11700  0.20300  0.90300  1.0000
  Br  Br20      1.0  0.61700  0.29700  0.90300  1.0000
  C   C1        1.0  0.02050  0.02190  0.13600  1.0000
  C   C2        1.0  0.52000  0.47800  0.13600  1.0000
  C   C3        1.0  0.48000  0.52200  0.63600  1.0000
  C   C4        1.0  0.98000  0.97800  0.63600  1.0000
  K   K1        1.0  0.14300  0.67500  0.38700  1.0000
  K   K2        1.0  0.64300  0.82500  0.38700  1.0000
  K   K3        1.0  0.35500  0.17300  0.38800  1.0000
  K   K4        1.0  0.85500  0.32700  0.38800  1.0000
  K   K5        1.0  0.35700  0.17500  0.88700  1.0000
  K   K6        1.0  0.85700  0.32500  0.88700  1.0000
  K   K7        1.0  0.14500  0.67300  0.88800  1.0000
  K   K8        1.0  0.64500  0.82700  0.88800  1.0000
  O   O1        1.0  0.46400  0.59200  0.13800  1.0000
  O   O2        1.0  0.96400  0.90800  0.13800  1.0000
  O   O3        1.0  0.03620  0.09160  0.63800  1.0000
  O   O4        1.0  0.53600  0.40800  0.63800  1.0000
  Os  Os1       1.0  0.11400  0.19000  0.13700  1.0000
  Os  Os2       1.0  0.61400  0.31000  0.13700  1.0000
  Os  Os3       1.0  0.38600  0.69000  0.63700  1.0000
  Os  Os4       1.0  0.88600  0.81000  0.63700  1.0000
