data_image0
_chemical_formula_structural       Br4Cu4N16S16
_chemical_formula_sum              "Br4 Cu4 N16 S16"
_cell_length_a       9.13998
_cell_length_b       11.8644
_cell_length_c       6.93591
_cell_angle_alpha    90
_cell_angle_beta     105.94
_cell_angle_gamma    90

_space_group_name_H-M_alt    "P 1"
_space_group_IT_number       1

loop_
  _space_group_symop_operation_xyz
  'x, y, z'

loop_
  _atom_site_type_symbol
  _atom_site_label
  _atom_site_symmetry_multiplicity
  _atom_site_fract_x
  _atom_site_fract_y
  _atom_site_fract_z
  _atom_site_occupancy
  Br  Br1       1.0  0.61200  0.64900  0.02950  1.0000
  Br  Br2       1.0  0.38800  0.14900  0.47000  1.0000
  Br  Br3       1.0  0.61200  0.85100  0.53000  1.0000
  Br  Br4       1.0  0.38800  0.35100  0.97000  1.0000
  Cu  Cu1       1.0  0.41700  0.17200  0.13400  1.0000
  Cu  Cu2       1.0  0.58300  0.67200  0.36600  1.0000
  Cu  Cu3       1.0  0.41700  0.32800  0.63400  1.0000
  Cu  Cu4       1.0  0.58300  0.82800  0.86600  1.0000
  N   N1        1.0  0.72800  0.94300  0.02780  1.0000
  N   N2        1.0  0.08540  0.67200  0.13800  1.0000
  N   N3        1.0  0.63600  0.12700  0.16000  1.0000
  N   N4        1.0  0.00692  0.98700  0.23300  1.0000
  N   N5        1.0  0.99300  0.48700  0.26700  1.0000
  N   N6        1.0  0.36400  0.62700  0.34000  1.0000
  N   N7        1.0  0.91500  0.17200  0.36200  1.0000
  N   N8        1.0  0.27200  0.44300  0.47200  1.0000
  N   N9        1.0  0.72800  0.55700  0.52800  1.0000
  N   N10       1.0  0.08540  0.82800  0.63800  1.0000
  N   N11       1.0  0.63600  0.37300  0.66000  1.0000
  N   N12       1.0  0.00692  0.51300  0.73300  1.0000
  N   N13       1.0  0.99300  0.01340  0.76700  1.0000
  N   N14       1.0  0.36400  0.87300  0.84000  1.0000
  N   N15       1.0  0.91500  0.32800  0.86200  1.0000
  N   N16       1.0  0.27200  0.05710  0.97200  1.0000
  S   S1        1.0  0.30300  0.92200  0.02610  1.0000
  S   S2        1.0  0.23900  0.61100  0.11700  1.0000
  S   S3        1.0  0.98700  0.12200  0.19000  1.0000
  S   S4        1.0  0.85500  0.92000  0.24500  1.0000
  S   S5        1.0  0.14500  0.42000  0.25500  1.0000
  S   S6        1.0  0.01270  0.62200  0.31000  1.0000
  S   S7        1.0  0.76100  0.11100  0.38300  1.0000
  S   S8        1.0  0.69700  0.42200  0.47400  1.0000
  S   S9        1.0  0.30300  0.57800  0.52600  1.0000
  S   S10       1.0  0.23900  0.88900  0.61700  1.0000
  S   S11       1.0  0.98700  0.37800  0.69000  1.0000
  S   S12       1.0  0.85500  0.58000  0.74500  1.0000
  S   S13       1.0  0.14500  0.07970  0.75500  1.0000
  S   S14       1.0  0.01270  0.87800  0.81000  1.0000
  S   S15       1.0  0.76100  0.38900  0.88300  1.0000
  S   S16       1.0  0.69700  0.07820  0.97400  1.0000
