data_image0
_chemical_formula_structural       As24La8Si8
_chemical_formula_sum              "As24 La8 Si8"
_cell_length_a       6.02795
_cell_length_b       5.9581
_cell_length_c       26.6008
_cell_angle_alpha    90
_cell_angle_beta     90
_cell_angle_gamma    90

_space_group_name_H-M_alt    "P 1"
_space_group_IT_number       1

loop_
  _space_group_symop_operation_xyz
  'x, y, z'

loop_
  _atom_site_type_symbol
  _atom_site_label
  _atom_site_symmetry_multiplicity
  _atom_site_fract_x
  _atom_site_fract_y
  _atom_site_fract_z
  _atom_site_occupancy
  As  As1       1.0  0.25000  0.25000  0.00027  1.0000
  As  As2       1.0  0.25000  0.75000  0.00027  1.0000
  As  As3       1.0  0.49500  0.00776  0.12400  1.0000
  As  As4       1.0  0.00450  0.50800  0.12400  1.0000
  As  As5       1.0  0.96700  0.01810  0.21100  1.0000
  As  As6       1.0  0.53300  0.51800  0.21100  1.0000
  As  As7       1.0  0.46700  0.01810  0.28900  1.0000
  As  As8       1.0  0.03280  0.51800  0.28900  1.0000
  As  As9       1.0  0.99600  0.00776  0.37600  1.0000
  As  As10      1.0  0.50400  0.50800  0.37600  1.0000
  As  As11      1.0  0.75000  0.25000  0.50000  1.0000
  As  As12      1.0  0.75000  0.75000  0.50000  1.0000
  As  As13      1.0  0.25000  0.25000  0.50000  1.0000
  As  As14      1.0  0.25000  0.75000  0.50000  1.0000
  As  As15      1.0  0.49500  0.49200  0.62400  1.0000
  As  As16      1.0  0.00450  0.99200  0.62400  1.0000
  As  As17      1.0  0.96700  0.48200  0.71100  1.0000
  As  As18      1.0  0.53300  0.98200  0.71100  1.0000
  As  As19      1.0  0.46700  0.48200  0.78900  1.0000
  As  As20      1.0  0.03280  0.98200  0.78900  1.0000
  As  As21      1.0  0.99600  0.49200  0.87600  1.0000
  As  As22      1.0  0.50400  0.99200  0.87600  1.0000
  As  As23      1.0  0.75000  0.25000  0.00000  1.0000
  As  As24      1.0  0.75000  0.75000  0.00000  1.0000
  La  La1       1.0  0.99900  0.00487  0.09010  1.0000
  La  La2       1.0  0.50100  0.50500  0.09010  1.0000
  La  La3       1.0  0.49900  0.00487  0.41000  1.0000
  La  La4       1.0  0.00068  0.50500  0.41000  1.0000
  La  La5       1.0  0.99900  0.49500  0.59000  1.0000
  La  La6       1.0  0.50100  0.99500  0.59000  1.0000
  La  La7       1.0  0.49900  0.49500  0.91000  1.0000
  La  La8       1.0  0.00068  0.99500  0.91000  1.0000
  Si  Si1       1.0  0.91200  0.41500  0.20700  1.0000
  Si  Si2       1.0  0.58800  0.91500  0.20700  1.0000
  Si  Si3       1.0  0.41200  0.41500  0.29300  1.0000
  Si  Si4       1.0  0.08850  0.91500  0.29300  1.0000
  Si  Si5       1.0  0.91200  0.08460  0.70700  1.0000
  Si  Si6       1.0  0.58800  0.58500  0.70700  1.0000
  Si  Si7       1.0  0.41200  0.08460  0.79300  1.0000
  Si  Si8       1.0  0.08850  0.58500  0.79300  1.0000
