data_image0
_chemical_formula_structural       Ga8K16Sb16
_chemical_formula_sum              "Ga8 K16 Sb16"
_cell_length_a       15.2237
_cell_length_b       10.4925
_cell_length_c       9.21336
_cell_angle_alpha    90
_cell_angle_beta     90
_cell_angle_gamma    90

_space_group_name_H-M_alt    "P 1"
_space_group_IT_number       1

loop_
  _space_group_symop_operation_xyz
  'x, y, z'

loop_
  _atom_site_type_symbol
  _atom_site_label
  _atom_site_symmetry_multiplicity
  _atom_site_fract_x
  _atom_site_fract_y
  _atom_site_fract_z
  _atom_site_occupancy
  Ga  Ga1       1.0  0.90500  0.25000  0.08390  1.0000
  Ga  Ga2       1.0  0.17900  0.25000  0.22300  1.0000
  Ga  Ga3       1.0  0.67900  0.25000  0.27700  1.0000
  Ga  Ga4       1.0  0.40500  0.25000  0.41600  1.0000
  Ga  Ga5       1.0  0.59500  0.75000  0.58400  1.0000
  Ga  Ga6       1.0  0.32100  0.75000  0.72300  1.0000
  Ga  Ga7       1.0  0.82100  0.75000  0.77700  1.0000
  Ga  Ga8       1.0  0.09460  0.75000  0.91600  1.0000
  K   K1        1.0  0.76600  0.52800  0.08840  1.0000
  K   K2        1.0  0.76600  0.97200  0.08840  1.0000
  K   K3        1.0  0.51500  0.52700  0.22900  1.0000
  K   K4        1.0  0.51500  0.97300  0.22900  1.0000
  K   K5        1.0  0.01490  0.52700  0.27100  1.0000
  K   K6        1.0  0.01490  0.97300  0.27100  1.0000
  K   K7        1.0  0.26600  0.52800  0.41200  1.0000
  K   K8        1.0  0.26600  0.97200  0.41200  1.0000
  K   K9        1.0  0.73400  0.02840  0.58800  1.0000
  K   K10       1.0  0.73400  0.47200  0.58800  1.0000
  K   K11       1.0  0.98500  0.02650  0.72900  1.0000
  K   K12       1.0  0.98500  0.47300  0.72900  1.0000
  K   K13       1.0  0.48500  0.02650  0.77100  1.0000
  K   K14       1.0  0.48500  0.47300  0.77100  1.0000
  K   K15       1.0  0.23400  0.02840  0.91200  1.0000
  K   K16       1.0  0.23400  0.47200  0.91200  1.0000
  Sb  Sb1       1.0  0.06930  0.25000  0.00021  1.0000
  Sb  Sb2       1.0  0.62800  0.25000  0.00434  1.0000
  Sb  Sb3       1.0  0.20300  0.75000  0.13600  1.0000
  Sb  Sb4       1.0  0.34800  0.25000  0.15000  1.0000
  Sb  Sb5       1.0  0.84800  0.25000  0.35000  1.0000
  Sb  Sb6       1.0  0.70300  0.75000  0.36400  1.0000
  Sb  Sb7       1.0  0.12800  0.25000  0.49600  1.0000
  Sb  Sb8       1.0  0.56900  0.25000  0.50000  1.0000
  Sb  Sb9       1.0  0.43100  0.75000  0.50000  1.0000
  Sb  Sb10      1.0  0.87200  0.75000  0.50400  1.0000
  Sb  Sb11      1.0  0.29700  0.25000  0.63600  1.0000
  Sb  Sb12      1.0  0.15200  0.75000  0.65000  1.0000
  Sb  Sb13      1.0  0.65200  0.75000  0.85000  1.0000
  Sb  Sb14      1.0  0.79700  0.25000  0.86400  1.0000
  Sb  Sb15      1.0  0.37200  0.75000  0.99600  1.0000
  Sb  Sb16      1.0  0.93100  0.75000  0.00000  1.0000
