data_image0
_chemical_formula_structural       Fe2H10N2O20P6
_chemical_formula_sum              "Fe2 H10 N2 O20 P6"
_cell_length_a       7.26584
_cell_length_b       7.26584
_cell_length_c       9.32762
_cell_angle_alpha    108.161
_cell_angle_beta     71.839
_cell_angle_gamma    110.22

_space_group_name_H-M_alt    "P 1"
_space_group_IT_number       1

loop_
  _space_group_symop_operation_xyz
  'x, y, z'

loop_
  _atom_site_type_symbol
  _atom_site_label
  _atom_site_symmetry_multiplicity
  _atom_site_fract_x
  _atom_site_fract_y
  _atom_site_fract_z
  _atom_site_occupancy
  Fe  Fe1       1.0  0.00000  0.50000  0.00000  1.0000
  Fe  Fe2       1.0  0.50000  0.00000  0.50000  1.0000
  H   H1        1.0  0.50000  0.00000  0.00000  1.0000
  H   H2        1.0  0.54700  0.50000  0.15400  1.0000
  H   H3        1.0  0.45200  0.30300  0.23700  1.0000
  H   H4        1.0  0.30300  0.45200  0.26300  1.0000
  H   H5        1.0  0.50000  0.54700  0.34600  1.0000
  H   H6        1.0  0.00000  0.50000  0.50000  1.0000
  H   H7        1.0  0.50000  0.45300  0.65400  1.0000
  H   H8        1.0  0.69700  0.54800  0.73700  1.0000
  H   H9        1.0  0.54800  0.69700  0.76300  1.0000
  H   H10       1.0  0.45300  0.50000  0.84600  1.0000
  N   N1        1.0  0.45000  0.45000  0.25000  1.0000
  N   N2        1.0  0.55000  0.55000  0.75000  1.0000
  O   O1        1.0  0.24000  0.65500  0.09070  1.0000
  O   O2        1.0  0.85500  0.71200  0.10600  1.0000
  O   O3        1.0  0.39500  0.03720  0.12600  1.0000
  O   O4        1.0  0.85100  0.38300  0.17900  1.0000
  O   O5        1.0  0.90700  0.07370  0.19600  1.0000
  O   O6        1.0  0.07370  0.90700  0.30400  1.0000
  O   O7        1.0  0.38300  0.85100  0.32100  1.0000
  O   O8        1.0  0.03720  0.39500  0.37400  1.0000
  O   O9        1.0  0.71200  0.85500  0.39400  1.0000
  O   O10       1.0  0.65500  0.24000  0.40900  1.0000
  O   O11       1.0  0.34500  0.76000  0.59100  1.0000
  O   O12       1.0  0.28800  0.14500  0.60600  1.0000
  O   O13       1.0  0.96300  0.60500  0.62600  1.0000
  O   O14       1.0  0.61700  0.14900  0.67900  1.0000
  O   O15       1.0  0.92600  0.09300  0.69600  1.0000
  O   O16       1.0  0.09300  0.92600  0.80400  1.0000
  O   O17       1.0  0.14900  0.61700  0.82100  1.0000
  O   O18       1.0  0.60500  0.96300  0.87400  1.0000
  O   O19       1.0  0.14500  0.28800  0.89400  1.0000
  O   O20       1.0  0.76000  0.34500  0.90900  1.0000
  P   P1        1.0  0.28500  0.85900  0.20400  1.0000
  P   P2        1.0  0.87700  0.87700  0.25000  1.0000
  P   P3        1.0  0.85900  0.28500  0.29600  1.0000
  P   P4        1.0  0.14100  0.71500  0.70400  1.0000
  P   P5        1.0  0.12300  0.12300  0.75000  1.0000
  P   P6        1.0  0.71500  0.14100  0.79600  1.0000
