data_image0
_chemical_formula_structural       Na16O16Pb8
_chemical_formula_sum              "Na16 O16 Pb8"
_cell_length_a       16.5817
_cell_length_b       6.90715
_cell_length_c       5.92988
_cell_angle_alpha    90
_cell_angle_beta     90
_cell_angle_gamma    90

_space_group_name_H-M_alt    "P 1"
_space_group_IT_number       1

loop_
  _space_group_symop_operation_xyz
  'x, y, z'

loop_
  _atom_site_type_symbol
  _atom_site_label
  _atom_site_symmetry_multiplicity
  _atom_site_fract_x
  _atom_site_fract_y
  _atom_site_fract_z
  _atom_site_occupancy
  Na  Na1       1.0  0.36300  0.37500  0.08300  1.0000
  Na  Na2       1.0  0.13700  0.87500  0.08300  1.0000
  Na  Na3       1.0  0.50000  0.12000  0.25000  1.0000
  Na  Na4       1.0  0.00000  0.13100  0.25000  1.0000
  Na  Na5       1.0  0.00000  0.62000  0.25000  1.0000
  Na  Na6       1.0  0.50000  0.63100  0.25000  1.0000
  Na  Na7       1.0  0.63700  0.37500  0.41700  1.0000
  Na  Na8       1.0  0.86300  0.87500  0.41700  1.0000
  Na  Na9       1.0  0.13700  0.12500  0.58300  1.0000
  Na  Na10      1.0  0.36300  0.62500  0.58300  1.0000
  Na  Na11      1.0  0.50000  0.36900  0.75000  1.0000
  Na  Na12      1.0  0.00000  0.38000  0.75000  1.0000
  Na  Na13      1.0  0.00000  0.86900  0.75000  1.0000
  Na  Na14      1.0  0.50000  0.88000  0.75000  1.0000
  Na  Na15      1.0  0.86300  0.12500  0.91700  1.0000
  Na  Na16      1.0  0.63700  0.62500  0.91700  1.0000
  O   O1        1.0  0.58600  0.35300  0.06480  1.0000
  O   O2        1.0  0.91400  0.85300  0.06480  1.0000
  O   O3        1.0  0.90200  0.39600  0.10800  1.0000
  O   O4        1.0  0.59800  0.89600  0.10800  1.0000
  O   O5        1.0  0.09840  0.39600  0.39200  1.0000
  O   O6        1.0  0.40200  0.89600  0.39200  1.0000
  O   O7        1.0  0.41400  0.35300  0.43500  1.0000
  O   O8        1.0  0.08650  0.85300  0.43500  1.0000
  O   O9        1.0  0.91400  0.14700  0.56500  1.0000
  O   O10       1.0  0.58600  0.64700  0.56500  1.0000
  O   O11       1.0  0.59800  0.10400  0.60800  1.0000
  O   O12       1.0  0.90200  0.60400  0.60800  1.0000
  O   O13       1.0  0.40200  0.10400  0.89200  1.0000
  O   O14       1.0  0.09840  0.60400  0.89200  1.0000
  O   O15       1.0  0.08650  0.14700  0.93500  1.0000
  O   O16       1.0  0.41400  0.64700  0.93500  1.0000
  Pb  Pb1       1.0  0.16600  0.36300  0.06720  1.0000
  Pb  Pb2       1.0  0.33400  0.86300  0.06720  1.0000
  Pb  Pb3       1.0  0.83400  0.36300  0.43300  1.0000
  Pb  Pb4       1.0  0.66600  0.86300  0.43300  1.0000
  Pb  Pb5       1.0  0.33400  0.13700  0.56700  1.0000
  Pb  Pb6       1.0  0.16600  0.63700  0.56700  1.0000
  Pb  Pb7       1.0  0.66600  0.13700  0.93300  1.0000
  Pb  Pb8       1.0  0.83400  0.63700  0.93300  1.0000
