data_image0
_chemical_formula_structural       Al4Ba4Ca2F28Mg2
_chemical_formula_sum              "Al4 Ba4 Ca2 F28 Mg2"
_cell_length_a       5.12779
_cell_length_b       7.15333
_cell_length_c       14.3546
_cell_angle_alpha    91.7144
_cell_angle_beta     90
_cell_angle_gamma    111.003

_space_group_name_H-M_alt    "P 1"
_space_group_IT_number       1

loop_
  _space_group_symop_operation_xyz
  'x, y, z'

loop_
  _atom_site_type_symbol
  _atom_site_label
  _atom_site_symmetry_multiplicity
  _atom_site_fract_x
  _atom_site_fract_y
  _atom_site_fract_z
  _atom_site_occupancy
  Al  Al1       1.0  0.87700  0.76500  0.12200  1.0000
  Al  Al2       1.0  0.11200  0.23500  0.37800  1.0000
  Al  Al3       1.0  0.88800  0.76500  0.62200  1.0000
  Al  Al4       1.0  0.12300  0.23500  0.87800  1.0000
  Ba  Ba1       1.0  0.15600  0.38700  0.11800  1.0000
  Ba  Ba2       1.0  0.76900  0.61300  0.38200  1.0000
  Ba  Ba3       1.0  0.23100  0.38700  0.61800  1.0000
  Ba  Ba4       1.0  0.84400  0.61300  0.88200  1.0000
  Ca  Ca1       1.0  0.43900  0.00000  0.25000  1.0000
  Ca  Ca2       1.0  0.56100  0.00000  0.75000  1.0000
  F   F1        1.0  0.73600  0.84300  0.02190  1.0000
  F   F2        1.0  0.18100  0.77100  0.05210  1.0000
  F   F3        1.0  0.71300  0.51200  0.07720  1.0000
  F   F4        1.0  0.62200  0.13300  0.12000  1.0000
  F   F5        1.0  0.06700  0.01610  0.16000  1.0000
  F   F6        1.0  0.58400  0.74000  0.19600  1.0000
  F   F7        1.0  0.03950  0.67800  0.21800  1.0000
  F   F8        1.0  0.36200  0.32200  0.28200  1.0000
  F   F9        1.0  0.84400  0.26000  0.30400  1.0000
  F   F10       1.0  0.05090  0.98400  0.34000  1.0000
  F   F11       1.0  0.48900  0.86700  0.38000  1.0000
  F   F12       1.0  0.20100  0.48800  0.42300  1.0000
  F   F13       1.0  0.41100  0.22900  0.44800  1.0000
  F   F14       1.0  0.89300  0.15700  0.47800  1.0000
  F   F15       1.0  0.10700  0.84300  0.52200  1.0000
  F   F16       1.0  0.58900  0.77100  0.55200  1.0000
  F   F17       1.0  0.79900  0.51200  0.57700  1.0000
  F   F18       1.0  0.51100  0.13300  0.62000  1.0000
  F   F19       1.0  0.94900  0.01610  0.66000  1.0000
  F   F20       1.0  0.15600  0.74000  0.69600  1.0000
  F   F21       1.0  0.63800  0.67800  0.71800  1.0000
  F   F22       1.0  0.96000  0.32200  0.78200  1.0000
  F   F23       1.0  0.41600  0.26000  0.80400  1.0000
  F   F24       1.0  0.93300  0.98400  0.84000  1.0000
  F   F25       1.0  0.37800  0.86700  0.88000  1.0000
  F   F26       1.0  0.28700  0.48800  0.92300  1.0000
  F   F27       1.0  0.81900  0.22900  0.94800  1.0000
  F   F28       1.0  0.26400  0.15700  0.97800  1.0000
  Mg  Mg1       1.0  0.50000  0.00000  0.00000  1.0000
  Mg  Mg2       1.0  0.50000  0.00000  0.50000  1.0000
