data_image0
_chemical_formula_structural       F4N8O12S16
_chemical_formula_sum              "F4 N8 O12 S16"
_cell_length_a       5.94286
_cell_length_b       11.3528
_cell_length_c       9.42711
_cell_angle_alpha    90
_cell_angle_beta     102.94
_cell_angle_gamma    90

_space_group_name_H-M_alt    "P 1"
_space_group_IT_number       1

loop_
  _space_group_symop_operation_xyz
  'x, y, z'

loop_
  _atom_site_type_symbol
  _atom_site_label
  _atom_site_symmetry_multiplicity
  _atom_site_fract_x
  _atom_site_fract_y
  _atom_site_fract_z
  _atom_site_occupancy
  F   F1        1.0  0.60800  0.89900  0.08560  1.0000
  F   F2        1.0  0.89200  0.39900  0.41400  1.0000
  F   F3        1.0  0.10800  0.60100  0.58600  1.0000
  F   F4        1.0  0.39200  0.10100  0.91400  1.0000
  N   N1        1.0  0.07170  0.25800  0.07050  1.0000
  N   N2        1.0  0.29700  0.68600  0.11000  1.0000
  N   N3        1.0  0.20300  0.18600  0.39000  1.0000
  N   N4        1.0  0.42800  0.75800  0.42900  1.0000
  N   N5        1.0  0.57200  0.24200  0.57100  1.0000
  N   N6        1.0  0.79700  0.81400  0.61000  1.0000
  N   N7        1.0  0.70300  0.31400  0.89000  1.0000
  N   N8        1.0  0.92800  0.74200  0.92900  1.0000
  O   O1        1.0  0.79100  0.45700  0.16300  1.0000
  O   O2        1.0  0.94500  0.01840  0.16700  1.0000
  O   O3        1.0  0.94300  0.81200  0.24700  1.0000
  O   O4        1.0  0.55700  0.31200  0.25300  1.0000
  O   O5        1.0  0.55500  0.51800  0.33300  1.0000
  O   O6        1.0  0.70900  0.95700  0.33700  1.0000
  O   O7        1.0  0.29100  0.04330  0.66300  1.0000
  O   O8        1.0  0.44500  0.48200  0.66700  1.0000
  O   O9        1.0  0.44300  0.68800  0.74700  1.0000
  O   O10       1.0  0.05730  0.18800  0.75300  1.0000
  O   O11       1.0  0.05450  0.98200  0.83300  1.0000
  O   O12       1.0  0.20900  0.54300  0.83700  1.0000
  S   S1        1.0  0.17600  0.36800  0.00137  1.0000
  S   S2        1.0  0.80800  0.22500  0.01530  1.0000
  S   S3        1.0  0.14100  0.58400  0.15700  1.0000
  S   S4        1.0  0.82400  0.92400  0.22100  1.0000
  S   S5        1.0  0.67600  0.42400  0.27900  1.0000
  S   S6        1.0  0.35900  0.08440  0.34300  1.0000
  S   S7        1.0  0.69200  0.72500  0.48500  1.0000
  S   S8        1.0  0.32400  0.86800  0.49900  1.0000
  S   S9        1.0  0.67600  0.13200  0.50100  1.0000
  S   S10       1.0  0.30800  0.27500  0.51500  1.0000
  S   S11       1.0  0.64100  0.91600  0.65700  1.0000
  S   S12       1.0  0.32400  0.57600  0.72100  1.0000
  S   S13       1.0  0.17600  0.07580  0.77900  1.0000
  S   S14       1.0  0.85900  0.41600  0.84300  1.0000
  S   S15       1.0  0.19200  0.77500  0.98500  1.0000
  S   S16       1.0  0.82400  0.63200  0.99900  1.0000
