data_image0
_chemical_formula_structural       Cl32I4Sb4
_chemical_formula_sum              "Cl32 I4 Sb4"
_cell_length_a       7.05801
_cell_length_b       7.05801
_cell_length_c       24.3091
_cell_angle_alpha    90
_cell_angle_beta     90
_cell_angle_gamma    90

_space_group_name_H-M_alt    "P 1"
_space_group_IT_number       1

loop_
  _space_group_symop_operation_xyz
  'x, y, z'

loop_
  _atom_site_type_symbol
  _atom_site_label
  _atom_site_symmetry_multiplicity
  _atom_site_fract_x
  _atom_site_fract_y
  _atom_site_fract_z
  _atom_site_occupancy
  Cl  Cl1       1.0  0.93000  0.10200  0.04550  1.0000
  Cl  Cl2       1.0  0.39200  0.22500  0.05640  1.0000
  Cl  Cl3       1.0  0.77900  0.59100  0.06340  1.0000
  Cl  Cl4       1.0  0.26800  0.75200  0.06670  1.0000
  Cl  Cl5       1.0  0.72400  0.17800  0.18600  1.0000
  Cl  Cl6       1.0  0.57400  0.69300  0.18800  1.0000
  Cl  Cl7       1.0  0.19300  0.04920  0.19100  1.0000
  Cl  Cl8       1.0  0.08180  0.51600  0.20300  1.0000
  Cl  Cl9       1.0  0.89800  0.93000  0.29500  1.0000
  Cl  Cl10      1.0  0.77500  0.39200  0.30600  1.0000
  Cl  Cl11      1.0  0.40900  0.77900  0.31300  1.0000
  Cl  Cl12      1.0  0.24800  0.26800  0.31700  1.0000
  Cl  Cl13      1.0  0.82200  0.72400  0.43600  1.0000
  Cl  Cl14      1.0  0.30700  0.57400  0.43800  1.0000
  Cl  Cl15      1.0  0.95100  0.19300  0.44100  1.0000
  Cl  Cl16      1.0  0.48400  0.08180  0.45300  1.0000
  Cl  Cl17      1.0  0.07000  0.89800  0.54500  1.0000
  Cl  Cl18      1.0  0.60800  0.77500  0.55600  1.0000
  Cl  Cl19      1.0  0.22100  0.40900  0.56300  1.0000
  Cl  Cl20      1.0  0.73200  0.24800  0.56700  1.0000
  Cl  Cl21      1.0  0.27600  0.82200  0.68600  1.0000
  Cl  Cl22      1.0  0.42600  0.30700  0.68800  1.0000
  Cl  Cl23      1.0  0.80700  0.95100  0.69100  1.0000
  Cl  Cl24      1.0  0.91800  0.48400  0.70300  1.0000
  Cl  Cl25      1.0  0.10200  0.07000  0.79500  1.0000
  Cl  Cl26      1.0  0.22500  0.60800  0.80600  1.0000
  Cl  Cl27      1.0  0.59100  0.22100  0.81300  1.0000
  Cl  Cl28      1.0  0.75200  0.73200  0.81700  1.0000
  Cl  Cl29      1.0  0.17800  0.27600  0.93600  1.0000
  Cl  Cl30      1.0  0.69300  0.42600  0.93800  1.0000
  Cl  Cl31      1.0  0.04920  0.80700  0.94100  1.0000
  Cl  Cl32      1.0  0.51600  0.91800  0.95300  1.0000
  I   I1        1.0  0.75700  0.85700  0.12200  1.0000
  I   I2        1.0  0.14300  0.75700  0.37200  1.0000
  I   I3        1.0  0.24300  0.14300  0.62200  1.0000
  I   I4        1.0  0.85700  0.24300  0.87200  1.0000
  Sb  Sb1       1.0  0.23500  0.99600  0.00102  1.0000
  Sb  Sb2       1.0  0.00402  0.23500  0.25100  1.0000
  Sb  Sb3       1.0  0.76500  0.00402  0.50100  1.0000
  Sb  Sb4       1.0  0.99600  0.76500  0.75100  1.0000
