data_image0
_chemical_formula_structural       B4Cr12O24
_chemical_formula_sum              "B4 Cr12 O24"
_cell_length_a       9.95658
_cell_length_b       8.47299
_cell_length_c       4.43294
_cell_angle_alpha    90
_cell_angle_beta     90
_cell_angle_gamma    90

_space_group_name_H-M_alt    "P 1"
_space_group_IT_number       1

loop_
  _space_group_symop_operation_xyz
  'x, y, z'

loop_
  _atom_site_type_symbol
  _atom_site_label
  _atom_site_symmetry_multiplicity
  _atom_site_fract_x
  _atom_site_fract_y
  _atom_site_fract_z
  _atom_site_occupancy
  B   B1        1.0  0.72200  0.25000  0.08050  1.0000
  B   B2        1.0  0.22200  0.25000  0.42000  1.0000
  B   B3        1.0  0.77800  0.75000  0.58000  1.0000
  B   B4        1.0  0.27800  0.75000  0.92000  1.0000
  Cr  Cr1       1.0  0.87000  0.57000  0.00280  1.0000
  Cr  Cr2       1.0  0.87000  0.93000  0.00280  1.0000
  Cr  Cr3       1.0  0.59400  0.75000  0.02350  1.0000
  Cr  Cr4       1.0  0.09350  0.75000  0.47600  1.0000
  Cr  Cr5       1.0  0.37000  0.57000  0.49700  1.0000
  Cr  Cr6       1.0  0.37000  0.93000  0.49700  1.0000
  Cr  Cr7       1.0  0.63000  0.06960  0.50300  1.0000
  Cr  Cr8       1.0  0.63000  0.43000  0.50300  1.0000
  Cr  Cr9       1.0  0.90600  0.25000  0.52400  1.0000
  Cr  Cr10      1.0  0.40600  0.25000  0.97600  1.0000
  Cr  Cr11      1.0  0.13000  0.06960  0.99700  1.0000
  Cr  Cr12      1.0  0.13000  0.43000  0.99700  1.0000
  O   O1        1.0  0.58300  0.25000  0.21800  1.0000
  O   O2        1.0  0.79000  0.11100  0.22800  1.0000
  O   O3        1.0  0.79000  0.38900  0.22800  1.0000
  O   O4        1.0  0.03080  0.57700  0.23900  1.0000
  O   O5        1.0  0.03080  0.92300  0.23900  1.0000
  O   O6        1.0  0.27600  0.75000  0.24600  1.0000
  O   O7        1.0  0.77600  0.75000  0.25400  1.0000
  O   O8        1.0  0.53100  0.57700  0.26100  1.0000
  O   O9        1.0  0.53100  0.92300  0.26100  1.0000
  O   O10       1.0  0.29000  0.11100  0.27200  1.0000
  O   O11       1.0  0.29000  0.38900  0.27200  1.0000
  O   O12       1.0  0.08320  0.25000  0.28200  1.0000
  O   O13       1.0  0.91700  0.75000  0.71800  1.0000
  O   O14       1.0  0.71000  0.61100  0.72800  1.0000
  O   O15       1.0  0.71000  0.88900  0.72800  1.0000
  O   O16       1.0  0.46900  0.07750  0.73900  1.0000
  O   O17       1.0  0.46900  0.42300  0.73900  1.0000
  O   O18       1.0  0.22400  0.25000  0.74600  1.0000
  O   O19       1.0  0.72400  0.25000  0.75400  1.0000
  O   O20       1.0  0.96900  0.07750  0.76100  1.0000
  O   O21       1.0  0.96900  0.42300  0.76100  1.0000
  O   O22       1.0  0.21000  0.61100  0.77200  1.0000
  O   O23       1.0  0.21000  0.88900  0.77200  1.0000
  O   O24       1.0  0.41700  0.75000  0.78200  1.0000
