data_image0
_chemical_formula_structural       Cl28Nb12
_chemical_formula_sum              "Cl28 Nb12"
_cell_length_a       9.20131
_cell_length_b       9.20131
_cell_length_c       11.1071
_cell_angle_alpha    90
_cell_angle_beta     90
_cell_angle_gamma    95.0616

_space_group_name_H-M_alt    "P 1"
_space_group_IT_number       1

loop_
  _space_group_symop_operation_xyz
  'x, y, z'

loop_
  _atom_site_type_symbol
  _atom_site_label
  _atom_site_symmetry_multiplicity
  _atom_site_fract_x
  _atom_site_fract_y
  _atom_site_fract_z
  _atom_site_occupancy
  Cl  Cl1       1.0  0.74600  0.25400  0.00000  1.0000
  Cl  Cl2       1.0  0.25400  0.74600  0.00000  1.0000
  Cl  Cl3       1.0  0.36500  0.11500  0.01500  1.0000
  Cl  Cl4       1.0  0.11500  0.36500  0.01500  1.0000
  Cl  Cl5       1.0  0.64600  0.64600  0.23000  1.0000
  Cl  Cl6       1.0  0.78100  0.03000  0.24700  1.0000
  Cl  Cl7       1.0  0.03000  0.78100  0.24700  1.0000
  Cl  Cl8       1.0  0.89400  0.39400  0.25000  1.0000
  Cl  Cl9       1.0  0.39400  0.89400  0.25000  1.0000
  Cl  Cl10      1.0  0.53000  0.28100  0.25300  1.0000
  Cl  Cl11      1.0  0.28100  0.53000  0.25300  1.0000
  Cl  Cl12      1.0  0.14600  0.14600  0.27000  1.0000
  Cl  Cl13      1.0  0.86500  0.61500  0.48500  1.0000
  Cl  Cl14      1.0  0.61500  0.86500  0.48500  1.0000
  Cl  Cl15      1.0  0.75400  0.24600  0.50000  1.0000
  Cl  Cl16      1.0  0.24600  0.75400  0.50000  1.0000
  Cl  Cl17      1.0  0.38500  0.13500  0.51500  1.0000
  Cl  Cl18      1.0  0.13500  0.38500  0.51500  1.0000
  Cl  Cl19      1.0  0.85400  0.85400  0.73000  1.0000
  Cl  Cl20      1.0  0.71900  0.47000  0.74700  1.0000
  Cl  Cl21      1.0  0.47000  0.71900  0.74700  1.0000
  Cl  Cl22      1.0  0.60600  0.10600  0.75000  1.0000
  Cl  Cl23      1.0  0.10600  0.60600  0.75000  1.0000
  Cl  Cl24      1.0  0.97000  0.21900  0.75300  1.0000
  Cl  Cl25      1.0  0.21900  0.97000  0.75300  1.0000
  Cl  Cl26      1.0  0.35400  0.35400  0.77000  1.0000
  Cl  Cl27      1.0  0.88500  0.63500  0.98500  1.0000
  Cl  Cl28      1.0  0.63500  0.88500  0.98500  1.0000
  Nb  Nb1       1.0  0.86200  0.86200  0.09600  1.0000
  Nb  Nb2       1.0  0.95300  0.17100  0.11300  1.0000
  Nb  Nb3       1.0  0.17100  0.95300  0.11300  1.0000
  Nb  Nb4       1.0  0.67100  0.45300  0.38700  1.0000
  Nb  Nb5       1.0  0.45300  0.67100  0.38700  1.0000
  Nb  Nb6       1.0  0.36200  0.36200  0.40400  1.0000
  Nb  Nb7       1.0  0.63800  0.63800  0.59600  1.0000
  Nb  Nb8       1.0  0.54700  0.32900  0.61300  1.0000
  Nb  Nb9       1.0  0.32900  0.54700  0.61300  1.0000
  Nb  Nb10      1.0  0.82900  0.04700  0.88700  1.0000
  Nb  Nb11      1.0  0.04700  0.82900  0.88700  1.0000
  Nb  Nb12      1.0  0.13800  0.13800  0.90400  1.0000
