data_image0
_chemical_formula_structural       In4La12S24
_chemical_formula_sum              "In4 La12 S24"
_cell_length_a       16.9628
_cell_length_b       13.9875
_cell_length_c       4.08608
_cell_angle_alpha    90
_cell_angle_beta     90
_cell_angle_gamma    90

_space_group_name_H-M_alt    "P 1"
_space_group_IT_number       1

loop_
  _space_group_symop_operation_xyz
  'x, y, z'

loop_
  _atom_site_type_symbol
  _atom_site_label
  _atom_site_symmetry_multiplicity
  _atom_site_fract_x
  _atom_site_fract_y
  _atom_site_fract_z
  _atom_site_occupancy
  In  In1       1.0  0.50000  0.00000  0.24600  1.0000
  In  In2       1.0  0.00000  0.00000  0.41100  1.0000
  In  In3       1.0  0.50000  0.50000  0.58900  1.0000
  In  In4       1.0  0.00000  0.50000  0.75400  1.0000
  La  La1       1.0  0.85700  0.31000  0.25400  1.0000
  La  La2       1.0  0.14300  0.69000  0.25400  1.0000
  La  La3       1.0  0.28000  0.46300  0.25400  1.0000
  La  La4       1.0  0.72000  0.53700  0.25400  1.0000
  La  La5       1.0  0.11000  0.25100  0.25900  1.0000
  La  La6       1.0  0.89000  0.74900  0.25900  1.0000
  La  La7       1.0  0.61000  0.24900  0.74100  1.0000
  La  La8       1.0  0.39000  0.75100  0.74100  1.0000
  La  La9       1.0  0.78000  0.03690  0.74600  1.0000
  La  La10      1.0  0.22000  0.96300  0.74600  1.0000
  La  La11      1.0  0.35700  0.19000  0.74600  1.0000
  La  La12      1.0  0.64300  0.81000  0.74600  1.0000
  S   S1        1.0  0.58800  0.39800  0.23500  1.0000
  S   S2        1.0  0.41200  0.60200  0.23500  1.0000
  S   S3        1.0  0.71700  0.17700  0.24300  1.0000
  S   S4        1.0  0.28300  0.82300  0.24300  1.0000
  S   S5        1.0  0.48300  0.18800  0.24600  1.0000
  S   S6        1.0  0.51700  0.81200  0.24600  1.0000
  S   S7        1.0  0.89200  0.10800  0.24600  1.0000
  S   S8        1.0  0.10800  0.89200  0.24600  1.0000
  S   S9        1.0  0.25600  0.11300  0.24800  1.0000
  S   S10       1.0  0.74400  0.88700  0.24800  1.0000
  S   S11       1.0  0.10300  0.47900  0.25400  1.0000
  S   S12       1.0  0.89700  0.52100  0.25400  1.0000
  S   S13       1.0  0.60300  0.02050  0.74600  1.0000
  S   S14       1.0  0.39700  0.97900  0.74600  1.0000
  S   S15       1.0  0.75600  0.38700  0.75200  1.0000
  S   S16       1.0  0.24400  0.61300  0.75200  1.0000
  S   S17       1.0  0.39200  0.39200  0.75400  1.0000
  S   S18       1.0  0.60800  0.60800  0.75400  1.0000
  S   S19       1.0  0.98300  0.31200  0.75400  1.0000
  S   S20       1.0  0.01750  0.68800  0.75400  1.0000
  S   S21       1.0  0.21700  0.32300  0.75700  1.0000
  S   S22       1.0  0.78300  0.67700  0.75700  1.0000
  S   S23       1.0  0.08810  0.10200  0.76500  1.0000
  S   S24       1.0  0.91200  0.89800  0.76500  1.0000
