data_image0
_chemical_formula_structural       H8N8S24
_chemical_formula_sum              "H8 N8 S24"
_cell_length_a       7.91006
_cell_length_b       13.0587
_cell_length_c       7.36031
_cell_angle_alpha    90
_cell_angle_beta     90
_cell_angle_gamma    90

_space_group_name_H-M_alt    "P 1"
_space_group_IT_number       1

loop_
  _space_group_symop_operation_xyz
  'x, y, z'

loop_
  _atom_site_type_symbol
  _atom_site_label
  _atom_site_symmetry_multiplicity
  _atom_site_fract_x
  _atom_site_fract_y
  _atom_site_fract_z
  _atom_site_occupancy
  H   H1        1.0  0.85200  0.75000  0.13300  1.0000
  H   H2        1.0  0.33600  0.25000  0.15000  1.0000
  H   H3        1.0  0.83600  0.25000  0.35000  1.0000
  H   H4        1.0  0.35200  0.75000  0.36700  1.0000
  H   H5        1.0  0.64800  0.25000  0.63300  1.0000
  H   H6        1.0  0.16400  0.75000  0.65000  1.0000
  H   H7        1.0  0.66400  0.75000  0.85000  1.0000
  H   H8        1.0  0.14800  0.25000  0.86700  1.0000
  N   N1        1.0  0.20700  0.25000  0.16500  1.0000
  N   N2        1.0  0.93700  0.75000  0.23800  1.0000
  N   N3        1.0  0.43700  0.75000  0.26200  1.0000
  N   N4        1.0  0.70700  0.25000  0.33500  1.0000
  N   N5        1.0  0.29300  0.75000  0.66500  1.0000
  N   N6        1.0  0.56300  0.25000  0.73800  1.0000
  N   N7        1.0  0.06320  0.25000  0.76200  1.0000
  N   N8        1.0  0.79300  0.75000  0.83500  1.0000
  S   S1        1.0  0.69700  0.09360  0.01690  1.0000
  S   S2        1.0  0.69700  0.40600  0.01690  1.0000
  S   S3        1.0  0.48700  0.63600  0.17000  1.0000
  S   S4        1.0  0.48700  0.86400  0.17000  1.0000
  S   S5        1.0  0.12300  0.13500  0.22500  1.0000
  S   S6        1.0  0.12300  0.36500  0.22500  1.0000
  S   S7        1.0  0.62300  0.13500  0.27500  1.0000
  S   S8        1.0  0.62300  0.36500  0.27500  1.0000
  S   S9        1.0  0.98700  0.63600  0.33000  1.0000
  S   S10       1.0  0.98700  0.86400  0.33000  1.0000
  S   S11       1.0  0.19700  0.09360  0.48300  1.0000
  S   S12       1.0  0.19700  0.40600  0.48300  1.0000
  S   S13       1.0  0.80300  0.59400  0.51700  1.0000
  S   S14       1.0  0.80300  0.90600  0.51700  1.0000
  S   S15       1.0  0.01300  0.13600  0.67000  1.0000
  S   S16       1.0  0.01300  0.36400  0.67000  1.0000
  S   S17       1.0  0.37700  0.63500  0.72500  1.0000
  S   S18       1.0  0.37700  0.86500  0.72500  1.0000
  S   S19       1.0  0.87700  0.63500  0.77500  1.0000
  S   S20       1.0  0.87700  0.86500  0.77500  1.0000
  S   S21       1.0  0.51300  0.13600  0.83000  1.0000
  S   S22       1.0  0.51300  0.36400  0.83000  1.0000
  S   S23       1.0  0.30300  0.59400  0.98300  1.0000
  S   S24       1.0  0.30300  0.90600  0.98300  1.0000
