data_image0
_chemical_formula_structural       Al4Cl24N4S8
_chemical_formula_sum              "Al4 Cl24 N4 S8"
_cell_length_a       13.2968
_cell_length_b       13.6635
_cell_length_c       6.28789
_cell_angle_alpha    90
_cell_angle_beta     95.5712
_cell_angle_gamma    90

_space_group_name_H-M_alt    "P 1"
_space_group_IT_number       1

loop_
  _space_group_symop_operation_xyz
  'x, y, z'

loop_
  _atom_site_type_symbol
  _atom_site_label
  _atom_site_symmetry_multiplicity
  _atom_site_fract_x
  _atom_site_fract_y
  _atom_site_fract_z
  _atom_site_occupancy
  Al  Al1       1.0  0.53200  0.25000  0.00338  1.0000
  Al  Al2       1.0  0.01390  0.25000  0.15300  1.0000
  Al  Al3       1.0  0.98600  0.75000  0.84700  1.0000
  Al  Al4       1.0  0.46800  0.75000  0.99700  1.0000
  Cl  Cl1       1.0  0.85700  0.25000  0.01850  1.0000
  Cl  Cl2       1.0  0.63100  0.75000  0.03580  1.0000
  Cl  Cl3       1.0  0.08740  0.12000  0.04940  1.0000
  Cl  Cl4       1.0  0.08740  0.38000  0.04940  1.0000
  Cl  Cl5       1.0  0.58400  0.11800  0.17000  1.0000
  Cl  Cl6       1.0  0.58400  0.38200  0.17000  1.0000
  Cl  Cl7       1.0  0.41300  0.75000  0.30700  1.0000
  Cl  Cl8       1.0  0.86400  0.01530  0.37400  1.0000
  Cl  Cl9       1.0  0.86400  0.48500  0.37400  1.0000
  Cl  Cl10      1.0  0.01720  0.25000  0.49700  1.0000
  Cl  Cl11      1.0  0.64900  0.61500  0.49700  1.0000
  Cl  Cl12      1.0  0.64900  0.88500  0.49700  1.0000
  Cl  Cl13      1.0  0.35100  0.11500  0.50300  1.0000
  Cl  Cl14      1.0  0.35100  0.38500  0.50300  1.0000
  Cl  Cl15      1.0  0.98300  0.75000  0.50300  1.0000
  Cl  Cl16      1.0  0.13600  0.51500  0.62600  1.0000
  Cl  Cl17      1.0  0.13600  0.98500  0.62600  1.0000
  Cl  Cl18      1.0  0.58700  0.25000  0.69300  1.0000
  Cl  Cl19      1.0  0.41600  0.61800  0.83000  1.0000
  Cl  Cl20      1.0  0.41600  0.88200  0.83000  1.0000
  Cl  Cl21      1.0  0.91300  0.62000  0.95100  1.0000
  Cl  Cl22      1.0  0.91300  0.88000  0.95100  1.0000
  Cl  Cl23      1.0  0.36900  0.25000  0.96400  1.0000
  Cl  Cl24      1.0  0.14300  0.75000  0.98100  1.0000
  N   N1        1.0  0.25500  0.55200  0.26400  1.0000
  N   N2        1.0  0.25500  0.94800  0.26400  1.0000
  N   N3        1.0  0.74500  0.05150  0.73600  1.0000
  N   N4        1.0  0.74500  0.44800  0.73600  1.0000
  S   S1        1.0  0.34300  0.02110  0.25300  1.0000
  S   S2        1.0  0.34300  0.47900  0.25300  1.0000
  S   S3        1.0  0.16300  0.59400  0.36400  1.0000
  S   S4        1.0  0.16300  0.90600  0.36400  1.0000
  S   S5        1.0  0.83700  0.09380  0.63600  1.0000
  S   S6        1.0  0.83700  0.40600  0.63600  1.0000
  S   S7        1.0  0.65700  0.52100  0.74700  1.0000
  S   S8        1.0  0.65700  0.97900  0.74700  1.0000
