data_image0
_chemical_formula_structural       Ba4F28Fe4Zn4
_chemical_formula_sum              "Ba4 F28 Fe4 Zn4"
_cell_length_a       5.43324
_cell_length_b       9.77584
_cell_length_c       9.382
_cell_angle_alpha    90
_cell_angle_beta     92.6498
_cell_angle_gamma    90

_space_group_name_H-M_alt    "P 1"
_space_group_IT_number       1

loop_
  _space_group_symop_operation_xyz
  'x, y, z'

loop_
  _atom_site_type_symbol
  _atom_site_label
  _atom_site_symmetry_multiplicity
  _atom_site_fract_x
  _atom_site_fract_y
  _atom_site_fract_z
  _atom_site_occupancy
  Ba  Ba1       1.0  0.74200  0.81400  0.00093  1.0000
  Ba  Ba2       1.0  0.25800  0.31400  0.49900  1.0000
  Ba  Ba3       1.0  0.74200  0.68600  0.50100  1.0000
  Ba  Ba4       1.0  0.25800  0.18600  0.99900  1.0000
  F   F1        1.0  0.74500  0.29900  0.00100  1.0000
  F   F2        1.0  0.11900  0.43900  0.11500  1.0000
  F   F3        1.0  0.63700  0.55300  0.12200  1.0000
  F   F4        1.0  0.61100  0.04030  0.12300  1.0000
  F   F5        1.0  0.10800  0.96100  0.13100  1.0000
  F   F6        1.0  0.51300  0.29200  0.24700  1.0000
  F   F7        1.0  0.99100  0.22000  0.24900  1.0000
  F   F8        1.0  0.00860  0.72000  0.25100  1.0000
  F   F9        1.0  0.48700  0.79200  0.25300  1.0000
  F   F10       1.0  0.89200  0.46100  0.36900  1.0000
  F   F11       1.0  0.38900  0.54000  0.37700  1.0000
  F   F12       1.0  0.36300  0.05300  0.37800  1.0000
  F   F13       1.0  0.88100  0.93900  0.38500  1.0000
  F   F14       1.0  0.25500  0.79900  0.49900  1.0000
  F   F15       1.0  0.74500  0.20100  0.50100  1.0000
  F   F16       1.0  0.11900  0.06100  0.61500  1.0000
  F   F17       1.0  0.63700  0.94700  0.62200  1.0000
  F   F18       1.0  0.61100  0.46000  0.62300  1.0000
  F   F19       1.0  0.10800  0.53900  0.63100  1.0000
  F   F20       1.0  0.51300  0.20800  0.74700  1.0000
  F   F21       1.0  0.99100  0.28000  0.74900  1.0000
  F   F22       1.0  0.00861  0.78000  0.75100  1.0000
  F   F23       1.0  0.48700  0.70800  0.75300  1.0000
  F   F24       1.0  0.89200  0.03870  0.86900  1.0000
  F   F25       1.0  0.38900  0.96000  0.87700  1.0000
  F   F26       1.0  0.36300  0.44700  0.87800  1.0000
  F   F27       1.0  0.88100  0.56100  0.88500  1.0000
  F   F28       1.0  0.25500  0.70100  0.99900  1.0000
  Fe  Fe1       1.0  0.80200  0.39100  0.18800  1.0000
  Fe  Fe2       1.0  0.19800  0.89100  0.31200  1.0000
  Fe  Fe3       1.0  0.80200  0.10900  0.68800  1.0000
  Fe  Fe4       1.0  0.19800  0.60900  0.81200  1.0000
  Zn  Zn1       1.0  0.29700  0.60300  0.18900  1.0000
  Zn  Zn2       1.0  0.70300  0.10300  0.31100  1.0000
  Zn  Zn3       1.0  0.29700  0.89700  0.68900  1.0000
  Zn  Zn4       1.0  0.70300  0.39700  0.81100  1.0000
