data_image0
_chemical_formula_structural       Cl20Dy12S8
_chemical_formula_sum              "Cl20 Dy12 S8"
_cell_length_a       6.78458
_cell_length_b       21.7089
_cell_length_c       6.36782
_cell_angle_alpha    90
_cell_angle_beta     90
_cell_angle_gamma    90

_space_group_name_H-M_alt    "P 1"
_space_group_IT_number       1

loop_
  _space_group_symop_operation_xyz
  'x, y, z'

loop_
  _atom_site_type_symbol
  _atom_site_label
  _atom_site_symmetry_multiplicity
  _atom_site_fract_x
  _atom_site_fract_y
  _atom_site_fract_z
  _atom_site_occupancy
  Cl  Cl1       1.0  0.68200  0.75000  0.15400  1.0000
  Cl  Cl2       1.0  0.96200  0.61700  0.16400  1.0000
  Cl  Cl3       1.0  0.96200  0.88300  0.16400  1.0000
  Cl  Cl4       1.0  0.66900  0.01960  0.17700  1.0000
  Cl  Cl5       1.0  0.66900  0.48000  0.17700  1.0000
  Cl  Cl6       1.0  0.16900  0.01960  0.32300  1.0000
  Cl  Cl7       1.0  0.16900  0.48000  0.32300  1.0000
  Cl  Cl8       1.0  0.46200  0.61700  0.33600  1.0000
  Cl  Cl9       1.0  0.46200  0.88300  0.33600  1.0000
  Cl  Cl10      1.0  0.18200  0.75000  0.34600  1.0000
  Cl  Cl11      1.0  0.81800  0.25000  0.65400  1.0000
  Cl  Cl12      1.0  0.53800  0.11700  0.66400  1.0000
  Cl  Cl13      1.0  0.53800  0.38300  0.66400  1.0000
  Cl  Cl14      1.0  0.83100  0.52000  0.67700  1.0000
  Cl  Cl15      1.0  0.83100  0.98000  0.67700  1.0000
  Cl  Cl16      1.0  0.33100  0.52000  0.82300  1.0000
  Cl  Cl17      1.0  0.33100  0.98000  0.82300  1.0000
  Cl  Cl18      1.0  0.03760  0.11700  0.83600  1.0000
  Cl  Cl19      1.0  0.03760  0.38300  0.83600  1.0000
  Cl  Cl20      1.0  0.31800  0.25000  0.84600  1.0000
  Dy  Dy1       1.0  0.38000  0.09780  0.04840  1.0000
  Dy  Dy2       1.0  0.38000  0.40200  0.04840  1.0000
  Dy  Dy3       1.0  0.96300  0.25000  0.05030  1.0000
  Dy  Dy4       1.0  0.46300  0.25000  0.45000  1.0000
  Dy  Dy5       1.0  0.88000  0.09780  0.45200  1.0000
  Dy  Dy6       1.0  0.88000  0.40200  0.45200  1.0000
  Dy  Dy7       1.0  0.12000  0.59800  0.54800  1.0000
  Dy  Dy8       1.0  0.12000  0.90200  0.54800  1.0000
  Dy  Dy9       1.0  0.53700  0.75000  0.55000  1.0000
  Dy  Dy10      1.0  0.03730  0.75000  0.95000  1.0000
  Dy  Dy11      1.0  0.62000  0.59800  0.95200  1.0000
  Dy  Dy12      1.0  0.62000  0.90200  0.95200  1.0000
  S   S1        1.0  0.67100  0.17200  0.19200  1.0000
  S   S2        1.0  0.67100  0.32800  0.19200  1.0000
  S   S3        1.0  0.17100  0.17200  0.30800  1.0000
  S   S4        1.0  0.17100  0.32800  0.30800  1.0000
  S   S5        1.0  0.82900  0.67200  0.69200  1.0000
  S   S6        1.0  0.82900  0.82800  0.69200  1.0000
  S   S7        1.0  0.32900  0.67200  0.80800  1.0000
  S   S8        1.0  0.32900  0.82800  0.80800  1.0000
