data_image0
_chemical_formula_structural       In4Na12O16Rb8
_chemical_formula_sum              "In4 Na12 O16 Rb8"
_cell_length_a       9.72515
_cell_length_b       9.54894
_cell_length_c       7.46947
_cell_angle_alpha    90
_cell_angle_beta     90
_cell_angle_gamma    90

_space_group_name_H-M_alt    "P 1"
_space_group_IT_number       1

loop_
  _space_group_symop_operation_xyz
  'x, y, z'

loop_
  _atom_site_type_symbol
  _atom_site_label
  _atom_site_symmetry_multiplicity
  _atom_site_fract_x
  _atom_site_fract_y
  _atom_site_fract_z
  _atom_site_occupancy
  In  In1       1.0  0.62800  0.27600  0.00000  1.0000
  In  In2       1.0  0.37200  0.72400  0.00000  1.0000
  In  In3       1.0  0.12800  0.22400  0.50000  1.0000
  In  In4       1.0  0.87200  0.77600  0.50000  1.0000
  Na  Na1       1.0  0.92000  0.23500  0.00000  1.0000
  Na  Na2       1.0  0.07960  0.76500  0.00000  1.0000
  Na  Na3       1.0  0.35300  0.48200  0.24800  1.0000
  Na  Na4       1.0  0.64700  0.51800  0.24800  1.0000
  Na  Na5       1.0  0.85300  0.01820  0.25200  1.0000
  Na  Na6       1.0  0.14700  0.98200  0.25200  1.0000
  Na  Na7       1.0  0.42000  0.26500  0.50000  1.0000
  Na  Na8       1.0  0.58000  0.73500  0.50000  1.0000
  Na  Na9       1.0  0.85300  0.01820  0.74800  1.0000
  Na  Na10      1.0  0.14700  0.98200  0.74800  1.0000
  Na  Na11      1.0  0.35300  0.48200  0.75200  1.0000
  Na  Na12      1.0  0.64700  0.51800  0.75200  1.0000
  O   O1        1.0  0.72600  0.07830  0.00000  1.0000
  O   O2        1.0  0.77700  0.43900  0.00000  1.0000
  O   O3        1.0  0.22300  0.56100  0.00000  1.0000
  O   O4        1.0  0.27400  0.92200  0.00000  1.0000
  O   O5        1.0  0.51800  0.30600  0.23600  1.0000
  O   O6        1.0  0.48200  0.69400  0.23600  1.0000
  O   O7        1.0  0.01760  0.19400  0.26400  1.0000
  O   O8        1.0  0.98200  0.80600  0.26400  1.0000
  O   O9        1.0  0.27700  0.06100  0.50000  1.0000
  O   O10       1.0  0.22600  0.42200  0.50000  1.0000
  O   O11       1.0  0.77400  0.57800  0.50000  1.0000
  O   O12       1.0  0.72300  0.93900  0.50000  1.0000
  O   O13       1.0  0.01760  0.19400  0.73600  1.0000
  O   O14       1.0  0.98200  0.80600  0.73600  1.0000
  O   O15       1.0  0.51800  0.30600  0.76400  1.0000
  O   O16       1.0  0.48200  0.69400  0.76400  1.0000
  Rb  Rb1       1.0  0.25900  0.23300  0.00000  1.0000
  Rb  Rb2       1.0  0.74100  0.76700  0.00000  1.0000
  Rb  Rb3       1.0  0.00000  0.50000  0.24500  1.0000
  Rb  Rb4       1.0  0.50000  0.00000  0.25500  1.0000
  Rb  Rb5       1.0  0.75900  0.26700  0.50000  1.0000
  Rb  Rb6       1.0  0.24100  0.73300  0.50000  1.0000
  Rb  Rb7       1.0  0.50000  0.00000  0.74500  1.0000
  Rb  Rb8       1.0  0.00000  0.50000  0.75500  1.0000
