data_image0
_chemical_formula_structural       C8F24P8
_chemical_formula_sum              "C8 F24 P8"
_cell_length_a       9.32524
_cell_length_b       9.32524
_cell_length_c       5.73767
_cell_angle_alpha    90
_cell_angle_beta     90
_cell_angle_gamma    90

_space_group_name_H-M_alt    "P 1"
_space_group_IT_number       1

loop_
  _space_group_symop_operation_xyz
  'x, y, z'

loop_
  _atom_site_type_symbol
  _atom_site_label
  _atom_site_symmetry_multiplicity
  _atom_site_fract_x
  _atom_site_fract_y
  _atom_site_fract_z
  _atom_site_occupancy
  C   C1        1.0  0.27700  0.00000  0.22300  1.0000
  C   C2        1.0  0.72300  0.00000  0.22300  1.0000
  C   C3        1.0  0.22300  0.50000  0.27700  1.0000
  C   C4        1.0  0.77700  0.50000  0.27700  1.0000
  C   C5        1.0  0.50000  0.22300  0.72300  1.0000
  C   C6        1.0  0.50000  0.77700  0.72300  1.0000
  C   C7        1.0  0.00000  0.27700  0.77700  1.0000
  C   C8        1.0  0.00000  0.72300  0.77700  1.0000
  F   F1        1.0  0.30500  0.50000  0.09260  1.0000
  F   F2        1.0  0.69500  0.50000  0.09260  1.0000
  F   F3        1.0  0.12400  0.27500  0.18400  1.0000
  F   F4        1.0  0.87600  0.27500  0.18400  1.0000
  F   F5        1.0  0.12400  0.72500  0.18400  1.0000
  F   F6        1.0  0.87600  0.72500  0.18400  1.0000
  F   F7        1.0  0.37600  0.22500  0.31600  1.0000
  F   F8        1.0  0.62400  0.22500  0.31600  1.0000
  F   F9        1.0  0.37600  0.77500  0.31600  1.0000
  F   F10       1.0  0.62400  0.77500  0.31600  1.0000
  F   F11       1.0  0.19500  0.00000  0.40700  1.0000
  F   F12       1.0  0.80500  0.00000  0.40700  1.0000
  F   F13       1.0  0.00000  0.19500  0.59300  1.0000
  F   F14       1.0  0.00000  0.80500  0.59300  1.0000
  F   F15       1.0  0.22500  0.37600  0.68400  1.0000
  F   F16       1.0  0.77500  0.37600  0.68400  1.0000
  F   F17       1.0  0.22500  0.62400  0.68400  1.0000
  F   F18       1.0  0.77500  0.62400  0.68400  1.0000
  F   F19       1.0  0.27500  0.12400  0.81600  1.0000
  F   F20       1.0  0.72500  0.12400  0.81600  1.0000
  F   F21       1.0  0.27500  0.87600  0.81600  1.0000
  F   F22       1.0  0.72500  0.87600  0.81600  1.0000
  F   F23       1.0  0.50000  0.30500  0.90700  1.0000
  F   F24       1.0  0.50000  0.69500  0.90700  1.0000
  P   P1        1.0  0.00000  0.17600  0.05920  1.0000
  P   P2        1.0  0.00000  0.82400  0.05920  1.0000
  P   P3        1.0  0.50000  0.32400  0.44100  1.0000
  P   P4        1.0  0.50000  0.67600  0.44100  1.0000
  P   P5        1.0  0.32400  0.50000  0.55900  1.0000
  P   P6        1.0  0.67600  0.50000  0.55900  1.0000
  P   P7        1.0  0.17600  0.00000  0.94100  1.0000
  P   P8        1.0  0.82400  0.00000  0.94100  1.0000
