data_image0
_chemical_formula_structural       O26P8Rb4Si2
_chemical_formula_sum              "O26 P8 Rb4 Si2"
_cell_length_a       4.84701
_cell_length_b       7.6516
_cell_length_c       14.7794
_cell_angle_alpha    83.3309
_cell_angle_beta     83.6821
_cell_angle_gamma    82.1279

_space_group_name_H-M_alt    "P 1"
_space_group_IT_number       1

loop_
  _space_group_symop_operation_xyz
  'x, y, z'

loop_
  _atom_site_type_symbol
  _atom_site_label
  _atom_site_symmetry_multiplicity
  _atom_site_fract_x
  _atom_site_fract_y
  _atom_site_fract_z
  _atom_site_occupancy
  O   O1        1.0  0.20300  0.71900  0.05620  1.0000
  O   O2        1.0  0.72800  0.45900  0.13200  1.0000
  O   O3        1.0  0.79600  0.86800  0.15000  1.0000
  O   O4        1.0  0.28000  0.93200  0.17000  1.0000
  O   O5        1.0  0.56000  0.16400  0.18900  1.0000
  O   O6        1.0  0.12700  0.63100  0.22800  1.0000
  O   O7        1.0  0.96600  0.25500  0.25700  1.0000
  O   O8        1.0  0.54100  0.72200  0.29100  1.0000
  O   O9        1.0  0.48500  0.40000  0.29600  1.0000
  O   O10       1.0  0.82000  0.95200  0.31100  1.0000
  O   O11       1.0  0.30300  0.02020  0.33100  1.0000
  O   O12       1.0  0.16900  0.58100  0.40200  1.0000
  O   O13       1.0  0.88400  0.15500  0.42900  1.0000
  O   O14       1.0  0.11600  0.84500  0.57100  1.0000
  O   O15       1.0  0.83100  0.41900  0.59800  1.0000
  O   O16       1.0  0.69700  0.98000  0.66900  1.0000
  O   O17       1.0  0.18000  0.04780  0.68900  1.0000
  O   O18       1.0  0.51500  0.60000  0.70400  1.0000
  O   O19       1.0  0.45900  0.27800  0.70900  1.0000
  O   O20       1.0  0.03390  0.74500  0.74300  1.0000
  O   O21       1.0  0.87300  0.36900  0.77200  1.0000
  O   O22       1.0  0.44000  0.83600  0.81100  1.0000
  O   O23       1.0  0.72000  0.06810  0.83000  1.0000
  O   O24       1.0  0.20400  0.13200  0.85000  1.0000
  O   O25       1.0  0.27200  0.54100  0.86800  1.0000
  O   O26       1.0  0.79700  0.28100  0.94400  1.0000
  P   P1        1.0  0.10800  0.79100  0.14500  1.0000
  P   P2        1.0  0.68500  0.32600  0.21100  1.0000
  P   P3        1.0  0.32000  0.59400  0.31000  1.0000
  P   P4        1.0  0.98900  0.09090  0.34000  1.0000
  P   P5        1.0  0.01140  0.90900  0.66000  1.0000
  P   P6        1.0  0.68000  0.40600  0.69000  1.0000
  P   P7        1.0  0.31500  0.67400  0.78900  1.0000
  P   P8        1.0  0.89200  0.20900  0.85500  1.0000
  Rb  Rb1       1.0  0.26700  0.30200  0.03330  1.0000
  Rb  Rb2       1.0  0.66100  0.74600  0.48900  1.0000
  Rb  Rb3       1.0  0.33900  0.25400  0.51100  1.0000
  Rb  Rb4       1.0  0.73300  0.69800  0.96700  1.0000
  Si  Si1       1.0  0.55000  0.94200  0.24000  1.0000
  Si  Si2       1.0  0.45000  0.05760  0.76000  1.0000
