data_image0
_chemical_formula_structural       B4F12H16O8
_chemical_formula_sum              "B4 F12 H16 O8"
_cell_length_a       5.21251
_cell_length_b       6.8024
_cell_length_c       8.1614
_cell_angle_alpha    89.9999
_cell_angle_beta     89.4419
_cell_angle_gamma    90.0001

_space_group_name_H-M_alt    "P 1"
_space_group_IT_number       1

loop_
  _space_group_symop_operation_xyz
  'x, y, z'

loop_
  _atom_site_type_symbol
  _atom_site_label
  _atom_site_symmetry_multiplicity
  _atom_site_fract_x
  _atom_site_fract_y
  _atom_site_fract_z
  _atom_site_occupancy
  B   B1        1.0  0.74700  0.69300  0.07880  1.0000
  B   B2        1.0  0.25300  0.19300  0.42100  1.0000
  B   B3        1.0  0.74700  0.80700  0.57900  1.0000
  B   B4        1.0  0.25300  0.30700  0.92100  1.0000
  F   F1        1.0  0.21700  0.39800  0.07420  1.0000
  F   F2        1.0  0.93900  0.84000  0.09670  1.0000
  F   F3        1.0  0.76500  0.56100  0.20800  1.0000
  F   F4        1.0  0.23500  0.06110  0.29200  1.0000
  F   F5        1.0  0.06130  0.34000  0.40300  1.0000
  F   F6        1.0  0.78300  0.89800  0.42600  1.0000
  F   F7        1.0  0.21700  0.10200  0.57400  1.0000
  F   F8        1.0  0.93900  0.66000  0.59700  1.0000
  F   F9        1.0  0.76500  0.93900  0.70800  1.0000
  F   F10       1.0  0.23500  0.43900  0.79200  1.0000
  F   F11       1.0  0.06130  0.16000  0.90300  1.0000
  F   F12       1.0  0.78300  0.60200  0.92600  1.0000
  H   H1        1.0  0.61100  0.20200  0.02020  1.0000
  H   H2        1.0  0.90000  0.28100  0.16000  1.0000
  H   H3        1.0  0.83700  0.05270  0.16200  1.0000
  H   H4        1.0  0.38300  0.74200  0.18700  1.0000
  H   H5        1.0  0.61700  0.24200  0.31300  1.0000
  H   H6        1.0  0.16300  0.55300  0.33800  1.0000
  H   H7        1.0  0.10000  0.78100  0.34000  1.0000
  H   H8        1.0  0.38900  0.70200  0.48000  1.0000
  H   H9        1.0  0.61100  0.29800  0.52000  1.0000
  H   H10       1.0  0.90000  0.21900  0.66000  1.0000
  H   H11       1.0  0.83700  0.44700  0.66200  1.0000
  H   H12       1.0  0.38300  0.75800  0.68700  1.0000
  H   H13       1.0  0.61700  0.25800  0.81300  1.0000
  H   H14       1.0  0.16300  0.94700  0.83800  1.0000
  H   H15       1.0  0.10000  0.71900  0.84000  1.0000
  H   H16       1.0  0.38900  0.79800  0.98000  1.0000
  O   O1        1.0  0.49500  0.78900  0.08770  1.0000
  O   O2        1.0  0.75800  0.18600  0.16700  1.0000
  O   O3        1.0  0.24200  0.68600  0.33300  1.0000
  O   O4        1.0  0.50500  0.28900  0.41200  1.0000
  O   O5        1.0  0.49500  0.71100  0.58800  1.0000
  O   O6        1.0  0.75800  0.31400  0.66700  1.0000
  O   O7        1.0  0.24200  0.81400  0.83300  1.0000
  O   O8        1.0  0.50500  0.21100  0.91200  1.0000
