data_image0
_chemical_formula_structural       Br16C4N8S12
_chemical_formula_sum              "Br16 C4 N8 S12"
_cell_length_a       7.76487
_cell_length_b       12.2625
_cell_length_c       10.4676
_cell_angle_alpha    90
_cell_angle_beta     90
_cell_angle_gamma    90

_space_group_name_H-M_alt    "P 1"
_space_group_IT_number       1

loop_
  _space_group_symop_operation_xyz
  'x, y, z'

loop_
  _atom_site_type_symbol
  _atom_site_label
  _atom_site_symmetry_multiplicity
  _atom_site_fract_x
  _atom_site_fract_y
  _atom_site_fract_z
  _atom_site_occupancy
  Br  Br1       1.0  0.59800  0.59000  0.25400  1.0000
  Br  Br2       1.0  0.09830  0.91000  0.25400  1.0000
  Br  Br3       1.0  0.85400  0.06620  0.27600  1.0000
  Br  Br4       1.0  0.35400  0.43400  0.27600  1.0000
  Br  Br5       1.0  0.62800  0.20600  0.29500  1.0000
  Br  Br6       1.0  0.12800  0.29400  0.29500  1.0000
  Br  Br7       1.0  0.16600  0.72300  0.45000  1.0000
  Br  Br8       1.0  0.66600  0.77700  0.45000  1.0000
  Br  Br9       1.0  0.90200  0.09000  0.75400  1.0000
  Br  Br10      1.0  0.40200  0.41000  0.75400  1.0000
  Br  Br11      1.0  0.64600  0.56600  0.77600  1.0000
  Br  Br12      1.0  0.14600  0.93400  0.77600  1.0000
  Br  Br13      1.0  0.87200  0.70600  0.79500  1.0000
  Br  Br14      1.0  0.37200  0.79400  0.79500  1.0000
  Br  Br15      1.0  0.33400  0.22300  0.95000  1.0000
  Br  Br16      1.0  0.83400  0.27700  0.95000  1.0000
  C   C1        1.0  0.94000  0.50000  0.05690  1.0000
  C   C2        1.0  0.44000  0.00000  0.05690  1.0000
  C   C3        1.0  0.56000  0.00023  0.55700  1.0000
  C   C4        1.0  0.06010  0.50000  0.55700  1.0000
  N   N1        1.0  0.14500  0.65900  0.08100  1.0000
  N   N2        1.0  0.64500  0.84100  0.08100  1.0000
  N   N3        1.0  0.93000  0.52000  0.47800  1.0000
  N   N4        1.0  0.43000  0.98000  0.47800  1.0000
  N   N5        1.0  0.35500  0.15900  0.58100  1.0000
  N   N6        1.0  0.85500  0.34100  0.58100  1.0000
  N   N7        1.0  0.57000  0.01950  0.97800  1.0000
  N   N8        1.0  0.07030  0.48000  0.97800  1.0000
  S   S1        1.0  0.26600  0.08380  0.07900  1.0000
  S   S2        1.0  0.76600  0.41600  0.07900  1.0000
  S   S3        1.0  0.96200  0.62500  0.14300  1.0000
  S   S4        1.0  0.46200  0.87500  0.14300  1.0000
  S   S5        1.0  0.28600  0.07450  0.47900  1.0000
  S   S6        1.0  0.78600  0.42500  0.47900  1.0000
  S   S7        1.0  0.23400  0.58400  0.57900  1.0000
  S   S8        1.0  0.73400  0.91600  0.57900  1.0000
  S   S9        1.0  0.53800  0.12500  0.64300  1.0000
  S   S10       1.0  0.03780  0.37500  0.64300  1.0000
  S   S11       1.0  0.21400  0.57500  0.97900  1.0000
  S   S12       1.0  0.71400  0.92500  0.97900  1.0000
