data_image0
_chemical_formula_structural       C4O24P4Sn8
_chemical_formula_sum              "C4 O24 P4 Sn8"
_cell_length_a       4.65231
_cell_length_b       5.75103
_cell_length_c       21.8743
_cell_angle_alpha    90
_cell_angle_beta     95.574
_cell_angle_gamma    90

_space_group_name_H-M_alt    "P 1"
_space_group_IT_number       1

loop_
  _space_group_symop_operation_xyz
  'x, y, z'

loop_
  _atom_site_type_symbol
  _atom_site_label
  _atom_site_symmetry_multiplicity
  _atom_site_fract_x
  _atom_site_fract_y
  _atom_site_fract_z
  _atom_site_occupancy
  C   C1        1.0  0.58400  0.41500  0.02220  1.0000
  C   C2        1.0  0.91600  0.91500  0.47800  1.0000
  C   C3        1.0  0.08380  0.08540  0.52200  1.0000
  C   C4        1.0  0.41600  0.58500  0.97800  1.0000
  O   O1        1.0  0.48700  0.21000  0.02340  1.0000
  O   O2        1.0  0.80800  0.48800  0.05420  1.0000
  O   O3        1.0  0.46800  0.83700  0.11000  1.0000
  O   O4        1.0  0.05440  0.70000  0.16400  1.0000
  O   O5        1.0  0.51400  0.48800  0.18500  1.0000
  O   O6        1.0  0.48000  0.91200  0.22300  1.0000
  O   O7        1.0  0.01970  0.41200  0.27700  1.0000
  O   O8        1.0  0.98600  0.98800  0.31500  1.0000
  O   O9        1.0  0.44600  0.20000  0.33600  1.0000
  O   O10       1.0  0.03220  0.33700  0.39000  1.0000
  O   O11       1.0  0.69200  0.98800  0.44600  1.0000
  O   O12       1.0  0.01290  0.71000  0.47700  1.0000
  O   O13       1.0  0.98700  0.29000  0.52300  1.0000
  O   O14       1.0  0.30800  0.01200  0.55400  1.0000
  O   O15       1.0  0.96800  0.66300  0.61000  1.0000
  O   O16       1.0  0.55400  0.80000  0.66400  1.0000
  O   O17       1.0  0.01400  0.01190  0.68500  1.0000
  O   O18       1.0  0.98000  0.58800  0.72300  1.0000
  O   O19       1.0  0.52000  0.08850  0.77700  1.0000
  O   O20       1.0  0.48600  0.51200  0.81500  1.0000
  O   O21       1.0  0.94600  0.30000  0.83600  1.0000
  O   O22       1.0  0.53200  0.16300  0.89000  1.0000
  O   O23       1.0  0.19200  0.51200  0.94600  1.0000
  O   O24       1.0  0.51300  0.79000  0.97700  1.0000
  P   P1        1.0  0.39100  0.73500  0.17200  1.0000
  P   P2        1.0  0.10900  0.23500  0.32800  1.0000
  P   P3        1.0  0.89100  0.76500  0.67200  1.0000
  P   P4        1.0  0.60900  0.26500  0.82800  1.0000
  Sn  Sn1       1.0  0.85400  0.89100  0.06680  1.0000
  Sn  Sn2       1.0  0.93400  0.33100  0.18100  1.0000
  Sn  Sn3       1.0  0.56600  0.83100  0.31900  1.0000
  Sn  Sn4       1.0  0.64600  0.39100  0.43300  1.0000
  Sn  Sn5       1.0  0.35400  0.60900  0.56700  1.0000
  Sn  Sn6       1.0  0.43400  0.16900  0.68100  1.0000
  Sn  Sn7       1.0  0.06610  0.66900  0.81900  1.0000
  Sn  Sn8       1.0  0.14600  0.10900  0.93300  1.0000
