data_image0
_chemical_formula_structural       As8F28K4
_chemical_formula_sum              "As8 F28 K4"
_cell_length_a       10.292
_cell_length_b       6.94881
_cell_length_c       8.07141
_cell_angle_alpha    90
_cell_angle_beta     109.763
_cell_angle_gamma    90

_space_group_name_H-M_alt    "P 1"
_space_group_IT_number       1

loop_
  _space_group_symop_operation_xyz
  'x, y, z'

loop_
  _atom_site_type_symbol
  _atom_site_label
  _atom_site_symmetry_multiplicity
  _atom_site_fract_x
  _atom_site_fract_y
  _atom_site_fract_z
  _atom_site_occupancy
  As  As1       1.0  0.41200  0.16700  0.13000  1.0000
  As  As2       1.0  0.23700  0.69500  0.16900  1.0000
  As  As3       1.0  0.76300  0.19500  0.33100  1.0000
  As  As4       1.0  0.58800  0.66700  0.37000  1.0000
  As  As5       1.0  0.41200  0.33300  0.63000  1.0000
  As  As6       1.0  0.23700  0.80500  0.66900  1.0000
  As  As7       1.0  0.76300  0.30500  0.83100  1.0000
  As  As8       1.0  0.58800  0.83300  0.87000  1.0000
  F   F1        1.0  0.22900  0.19900  0.02500  1.0000
  F   F2        1.0  0.38200  0.91700  0.04590  1.0000
  F   F3        1.0  0.81000  0.37100  0.06030  1.0000
  F   F4        1.0  0.07040  0.83600  0.09150  1.0000
  F   F5        1.0  0.62100  0.60700  0.17100  1.0000
  F   F6        1.0  0.38400  0.48400  0.20400  1.0000
  F   F7        1.0  0.13300  0.50600  0.21100  1.0000
  F   F8        1.0  0.86700  0.00631  0.28900  1.0000
  F   F9        1.0  0.61600  0.98400  0.29600  1.0000
  F   F10       1.0  0.37900  0.10700  0.32900  1.0000
  F   F11       1.0  0.93000  0.33600  0.40800  1.0000
  F   F12       1.0  0.19000  0.87100  0.44000  1.0000
  F   F13       1.0  0.61800  0.41700  0.45400  1.0000
  F   F14       1.0  0.77100  0.69900  0.47500  1.0000
  F   F15       1.0  0.22900  0.30100  0.52500  1.0000
  F   F16       1.0  0.38200  0.58300  0.54600  1.0000
  F   F17       1.0  0.81000  0.12900  0.56000  1.0000
  F   F18       1.0  0.07040  0.66400  0.59200  1.0000
  F   F19       1.0  0.62100  0.89300  0.67100  1.0000
  F   F20       1.0  0.38400  0.01610  0.70400  1.0000
  F   F21       1.0  0.13300  0.99400  0.71100  1.0000
  F   F22       1.0  0.86700  0.49400  0.78900  1.0000
  F   F23       1.0  0.61600  0.51600  0.79600  1.0000
  F   F24       1.0  0.37900  0.39300  0.82900  1.0000
  F   F25       1.0  0.93000  0.16400  0.90800  1.0000
  F   F26       1.0  0.19000  0.62900  0.94000  1.0000
  F   F27       1.0  0.61800  0.08300  0.95400  1.0000
  F   F28       1.0  0.77100  0.80100  0.97500  1.0000
  K   K1        1.0  0.07980  0.16100  0.23500  1.0000
  K   K2        1.0  0.92000  0.66100  0.26500  1.0000
  K   K3        1.0  0.07980  0.33900  0.73500  1.0000
  K   K4        1.0  0.92000  0.83900  0.76500  1.0000
