data_image0
_chemical_formula_structural       Ga4La12O4S20
_chemical_formula_sum              "Ga4 La12 O4 S20"
_cell_length_a       10.827
_cell_length_b       4.04112
_cell_length_c       20.0187
_cell_angle_alpha    90
_cell_angle_beta     90
_cell_angle_gamma    90

_space_group_name_H-M_alt    "P 1"
_space_group_IT_number       1

loop_
  _space_group_symop_operation_xyz
  'x, y, z'

loop_
  _atom_site_type_symbol
  _atom_site_label
  _atom_site_symmetry_multiplicity
  _atom_site_fract_x
  _atom_site_fract_y
  _atom_site_fract_z
  _atom_site_occupancy
  Ga  Ga1       1.0  0.70700  0.75000  0.21100  1.0000
  Ga  Ga2       1.0  0.20700  0.75000  0.28900  1.0000
  Ga  Ga3       1.0  0.79300  0.25000  0.71100  1.0000
  Ga  Ga4       1.0  0.29300  0.25000  0.78900  1.0000
  La  La1       1.0  0.64800  0.25000  0.00967  1.0000
  La  La2       1.0  0.02030  0.25000  0.10300  1.0000
  La  La3       1.0  0.40100  0.25000  0.16300  1.0000
  La  La4       1.0  0.90100  0.25000  0.33700  1.0000
  La  La5       1.0  0.52000  0.25000  0.39700  1.0000
  La  La6       1.0  0.14800  0.25000  0.49000  1.0000
  La  La7       1.0  0.85200  0.75000  0.51000  1.0000
  La  La8       1.0  0.48000  0.75000  0.60300  1.0000
  La  La9       1.0  0.09940  0.75000  0.66300  1.0000
  La  La10      1.0  0.59900  0.75000  0.83700  1.0000
  La  La11      1.0  0.98000  0.75000  0.89700  1.0000
  La  La12      1.0  0.35200  0.75000  0.99000  1.0000
  O   O1        1.0  0.42500  0.25000  0.04210  1.0000
  O   O2        1.0  0.92500  0.25000  0.45800  1.0000
  O   O3        1.0  0.07490  0.75000  0.54200  1.0000
  O   O4        1.0  0.57500  0.75000  0.95800  1.0000
  S   S1        1.0  0.87300  0.75000  0.03450  1.0000
  S   S2        1.0  0.22200  0.75000  0.11500  1.0000
  S   S3        1.0  0.58500  0.75000  0.12000  1.0000
  S   S4        1.0  0.91300  0.75000  0.21200  1.0000
  S   S5        1.0  0.14800  0.25000  0.23800  1.0000
  S   S6        1.0  0.64800  0.25000  0.26200  1.0000
  S   S7        1.0  0.41300  0.75000  0.28800  1.0000
  S   S8        1.0  0.08480  0.75000  0.38000  1.0000
  S   S9        1.0  0.72200  0.75000  0.38500  1.0000
  S   S10       1.0  0.37300  0.75000  0.46500  1.0000
  S   S11       1.0  0.62700  0.25000  0.53500  1.0000
  S   S12       1.0  0.27800  0.25000  0.61500  1.0000
  S   S13       1.0  0.91500  0.25000  0.62000  1.0000
  S   S14       1.0  0.58700  0.25000  0.71200  1.0000
  S   S15       1.0  0.35200  0.75000  0.73800  1.0000
  S   S16       1.0  0.85200  0.75000  0.76200  1.0000
  S   S17       1.0  0.08740  0.25000  0.78800  1.0000
  S   S18       1.0  0.41500  0.25000  0.88000  1.0000
  S   S19       1.0  0.77800  0.25000  0.88500  1.0000
  S   S20       1.0  0.12700  0.25000  0.96500  1.0000
