data_image0
_chemical_formula_structural       Au31Mn9
_chemical_formula_sum              "Au31 Mn9"
_cell_length_a       13.0632
_cell_length_b       13.0632
_cell_length_c       4.07785
_cell_angle_alpha    90
_cell_angle_beta     90
_cell_angle_gamma    90

_space_group_name_H-M_alt    "P 1"
_space_group_IT_number       1

loop_
  _space_group_symop_operation_xyz
  'x, y, z'

loop_
  _atom_site_type_symbol
  _atom_site_label
  _atom_site_symmetry_multiplicity
  _atom_site_fract_x
  _atom_site_fract_y
  _atom_site_fract_z
  _atom_site_occupancy
  Au  Au1       1.0  0.50000  0.00000  0.00000  1.0000
  Au  Au2       1.0  0.79800  0.09820  0.00000  1.0000
  Au  Au3       1.0  0.30300  0.09900  0.00000  1.0000
  Au  Au4       1.0  0.60000  0.19900  0.00000  1.0000
  Au  Au5       1.0  0.09820  0.20200  0.00000  1.0000
  Au  Au6       1.0  0.90100  0.30300  0.00000  1.0000
  Au  Au7       1.0  0.19900  0.40000  0.00000  1.0000
  Au  Au8       1.0  0.50000  0.50000  0.00000  1.0000
  Au  Au9       1.0  0.00000  0.50000  0.00000  1.0000
  Au  Au10      1.0  0.80100  0.60000  0.00000  1.0000
  Au  Au11      1.0  0.09900  0.69700  0.00000  1.0000
  Au  Au12      1.0  0.90200  0.79800  0.00000  1.0000
  Au  Au13      1.0  0.40000  0.80100  0.00000  1.0000
  Au  Au14      1.0  0.69700  0.90100  0.00000  1.0000
  Au  Au15      1.0  0.20200  0.90200  0.00000  1.0000
  Au  Au16      1.0  0.14900  0.04780  0.50000  1.0000
  Au  Au17      1.0  0.95200  0.14900  0.50000  1.0000
  Au  Au18      1.0  0.45100  0.15000  0.50000  1.0000
  Au  Au19      1.0  0.74700  0.25200  0.50000  1.0000
  Au  Au20      1.0  0.25200  0.25300  0.50000  1.0000
  Au  Au21      1.0  0.54800  0.35100  0.50000  1.0000
  Au  Au22      1.0  0.85000  0.45100  0.50000  1.0000
  Au  Au23      1.0  0.35100  0.45200  0.50000  1.0000
  Au  Au24      1.0  0.64900  0.54800  0.50000  1.0000
  Au  Au25      1.0  0.15000  0.54900  0.50000  1.0000
  Au  Au26      1.0  0.45200  0.64900  0.50000  1.0000
  Au  Au27      1.0  0.74800  0.74700  0.50000  1.0000
  Au  Au28      1.0  0.25300  0.74800  0.50000  1.0000
  Au  Au29      1.0  0.54900  0.85000  0.50000  1.0000
  Au  Au30      1.0  0.04780  0.85100  0.50000  1.0000
  Au  Au31      1.0  0.85100  0.95200  0.50000  1.0000
  Mn  Mn1       1.0  0.00000  0.00000  0.00000  1.0000
  Mn  Mn2       1.0  0.39900  0.29800  0.00000  1.0000
  Mn  Mn3       1.0  0.70200  0.39900  0.00000  1.0000
  Mn  Mn4       1.0  0.29800  0.60100  0.00000  1.0000
  Mn  Mn5       1.0  0.60100  0.70200  0.00000  1.0000
  Mn  Mn6       1.0  0.65100  0.05000  0.50000  1.0000
  Mn  Mn7       1.0  0.05000  0.34900  0.50000  1.0000
  Mn  Mn8       1.0  0.95000  0.65100  0.50000  1.0000
  Mn  Mn9       1.0  0.34900  0.95000  0.50000  1.0000
