data_image0
_chemical_formula_structural       Er8F4O22Si6
_chemical_formula_sum              "Er8 F4 O22 Si6"
_cell_length_a       6.42992
_cell_length_b       6.54803
_cell_length_c       13.1191
_cell_angle_alpha    87.4603
_cell_angle_beta     85.7634
_cell_angle_gamma    60.9124

_space_group_name_H-M_alt    "P 1"
_space_group_IT_number       1

loop_
  _space_group_symop_operation_xyz
  'x, y, z'

loop_
  _atom_site_type_symbol
  _atom_site_label
  _atom_site_symmetry_multiplicity
  _atom_site_fract_x
  _atom_site_fract_y
  _atom_site_fract_z
  _atom_site_occupancy
  Er  Er1       1.0  0.93700  0.27500  0.02700  1.0000
  Er  Er2       1.0  0.32500  0.37500  0.20200  1.0000
  Er  Er3       1.0  0.82000  0.31000  0.32900  1.0000
  Er  Er4       1.0  0.78100  0.78800  0.47200  1.0000
  Er  Er5       1.0  0.21900  0.21200  0.52800  1.0000
  Er  Er6       1.0  0.18000  0.69000  0.67100  1.0000
  Er  Er7       1.0  0.67500  0.62500  0.79800  1.0000
  Er  Er8       1.0  0.06290  0.72500  0.97300  1.0000
  F   F1        1.0  0.03680  0.26600  0.18500  1.0000
  F   F2        1.0  0.20800  0.25600  0.35400  1.0000
  F   F3        1.0  0.79200  0.74400  0.64600  1.0000
  F   F4        1.0  0.96300  0.73400  0.81500  1.0000
  O   O1        1.0  0.24800  0.90800  0.01750  1.0000
  O   O2        1.0  0.26500  0.33500  0.02130  1.0000
  O   O3        1.0  0.55700  0.49700  0.11300  1.0000
  O   O4        1.0  0.01280  0.71400  0.14500  1.0000
  O   O5        1.0  0.53000  0.90700  0.15400  1.0000
  O   O6        1.0  0.68900  0.11500  0.24700  1.0000
  O   O7        1.0  0.79700  0.67500  0.31400  1.0000
  O   O8        1.0  0.42200  0.54700  0.33000  1.0000
  O   O9        1.0  0.01180  0.94100  0.38700  1.0000
  O   O10       1.0  0.40800  0.84000  0.48000  1.0000
  O   O11       1.0  0.82600  0.40900  0.49200  1.0000
  O   O12       1.0  0.17400  0.59100  0.50800  1.0000
  O   O13       1.0  0.59200  0.16000  0.52000  1.0000
  O   O14       1.0  0.98800  0.05860  0.61300  1.0000
  O   O15       1.0  0.57800  0.45300  0.67000  1.0000
  O   O16       1.0  0.20300  0.32500  0.68600  1.0000
  O   O17       1.0  0.31100  0.88500  0.75300  1.0000
  O   O18       1.0  0.47000  0.09260  0.84600  1.0000
  O   O19       1.0  0.98700  0.28600  0.85500  1.0000
  O   O20       1.0  0.44300  0.50300  0.88700  1.0000
  O   O21       1.0  0.73500  0.66500  0.97900  1.0000
  O   O22       1.0  0.75200  0.09160  0.98200  1.0000
  Si  Si1       1.0  0.50600  0.75000  0.06500  1.0000
  Si  Si2       1.0  0.76900  0.84700  0.21700  1.0000
  Si  Si3       1.0  0.26800  0.73000  0.42000  1.0000
  Si  Si4       1.0  0.73200  0.27000  0.58000  1.0000
  Si  Si5       1.0  0.23100  0.15300  0.78300  1.0000
  Si  Si6       1.0  0.49400  0.25000  0.93500  1.0000
