data_image0
_chemical_formula_structural       As6Mg8Na2O24
_chemical_formula_sum              "As6 Mg8 Na2 O24"
_cell_length_a       6.81283
_cell_length_b       6.81283
_cell_length_c       10.6992
_cell_angle_alpha    108.565
_cell_angle_beta     108.565
_cell_angle_gamma    90

_space_group_name_H-M_alt    "P 1"
_space_group_IT_number       1

loop_
  _space_group_symop_operation_xyz
  'x, y, z'

loop_
  _atom_site_type_symbol
  _atom_site_label
  _atom_site_symmetry_multiplicity
  _atom_site_fract_x
  _atom_site_fract_y
  _atom_site_fract_z
  _atom_site_occupancy
  As  As1       1.0  0.00000  0.00000  0.00000  1.0000
  As  As2       1.0  0.46800  0.37500  0.25000  1.0000
  As  As3       1.0  0.78200  0.87500  0.25000  1.0000
  As  As4       1.0  0.25000  0.75000  0.50000  1.0000
  As  As5       1.0  0.62500  0.21800  0.75000  1.0000
  As  As6       1.0  0.12500  0.53200  0.75000  1.0000
  Mg  Mg1       1.0  0.02060  0.52100  0.04130  1.0000
  Mg  Mg2       1.0  0.88100  0.37500  0.25000  1.0000
  Mg  Mg3       1.0  0.36900  0.87500  0.25000  1.0000
  Mg  Mg4       1.0  0.22900  0.22900  0.45900  1.0000
  Mg  Mg5       1.0  0.77100  0.77100  0.54100  1.0000
  Mg  Mg6       1.0  0.12500  0.11900  0.75000  1.0000
  Mg  Mg7       1.0  0.62500  0.63100  0.75000  1.0000
  Mg  Mg8       1.0  0.47900  0.97900  0.95900  1.0000
  Na  Na1       1.0  0.50000  0.50000  0.00000  1.0000
  Na  Na2       1.0  0.75000  0.25000  0.50000  1.0000
  O   O1        1.0  0.98600  0.25500  0.08870  1.0000
  O   O2        1.0  0.10300  0.83400  0.08870  1.0000
  O   O3        1.0  0.56900  0.26200  0.11700  1.0000
  O   O4        1.0  0.54900  0.85500  0.11700  1.0000
  O   O5        1.0  0.32000  0.55600  0.19800  1.0000
  O   O6        1.0  0.87800  0.64200  0.19800  1.0000
  O   O7        1.0  0.93000  0.10800  0.30200  1.0000
  O   O8        1.0  0.37200  0.19400  0.30200  1.0000
  O   O9        1.0  0.70100  0.48800  0.38300  1.0000
  O   O10       1.0  0.68100  0.89500  0.38300  1.0000
  O   O11       1.0  0.14700  0.49500  0.41100  1.0000
  O   O12       1.0  0.26400  0.91600  0.41100  1.0000
  O   O13       1.0  0.50500  0.73600  0.58900  1.0000
  O   O14       1.0  0.08420  0.85300  0.58900  1.0000
  O   O15       1.0  0.10500  0.29900  0.61700  1.0000
  O   O16       1.0  0.51200  0.31900  0.61700  1.0000
  O   O17       1.0  0.80600  0.07020  0.69800  1.0000
  O   O18       1.0  0.89200  0.62800  0.69800  1.0000
  O   O19       1.0  0.44400  0.12200  0.80200  1.0000
  O   O20       1.0  0.35800  0.68000  0.80200  1.0000
  O   O21       1.0  0.14500  0.43100  0.88300  1.0000
  O   O22       1.0  0.73800  0.45100  0.88300  1.0000
  O   O23       1.0  0.16600  0.01380  0.91100  1.0000
  O   O24       1.0  0.74500  0.89700  0.91100  1.0000
