data_image0
_chemical_formula_structural       Cr4Gd12Se24
_chemical_formula_sum              "Cr4 Gd12 Se24"
_cell_length_a       16.7819
_cell_length_b       13.9996
_cell_length_c       3.96738
_cell_angle_alpha    90
_cell_angle_beta     90
_cell_angle_gamma    90

_space_group_name_H-M_alt    "P 1"
_space_group_IT_number       1

loop_
  _space_group_symop_operation_xyz
  'x, y, z'

loop_
  _atom_site_type_symbol
  _atom_site_label
  _atom_site_symmetry_multiplicity
  _atom_site_fract_x
  _atom_site_fract_y
  _atom_site_fract_z
  _atom_site_occupancy
  Cr  Cr1       1.0  0.00000  0.50000  0.00000  1.0000
  Cr  Cr2       1.0  0.50000  0.50000  0.00000  1.0000
  Cr  Cr3       1.0  0.00000  0.00000  0.50000  1.0000
  Cr  Cr4       1.0  0.50000  0.00000  0.50000  1.0000
  Gd  Gd1       1.0  0.72200  0.05310  0.00000  1.0000
  Gd  Gd2       1.0  0.14800  0.17900  0.00000  1.0000
  Gd  Gd3       1.0  0.90500  0.25900  0.00000  1.0000
  Gd  Gd4       1.0  0.09520  0.74100  0.00000  1.0000
  Gd  Gd5       1.0  0.85200  0.82100  0.00000  1.0000
  Gd  Gd6       1.0  0.27800  0.94700  0.00000  1.0000
  Gd  Gd7       1.0  0.40500  0.24100  0.50000  1.0000
  Gd  Gd8       1.0  0.64800  0.32100  0.50000  1.0000
  Gd  Gd9       1.0  0.22200  0.44700  0.50000  1.0000
  Gd  Gd10      1.0  0.77800  0.55300  0.50000  1.0000
  Gd  Gd11      1.0  0.35200  0.67900  0.50000  1.0000
  Gd  Gd12      1.0  0.59500  0.75900  0.50000  1.0000
  Se  Se1       1.0  0.90300  0.02450  0.00000  1.0000
  Se  Se2       1.0  0.42300  0.07940  0.00000  1.0000
  Se  Se3       1.0  0.29000  0.30900  0.00000  1.0000
  Se  Se4       1.0  0.52100  0.32000  0.00000  1.0000
  Se  Se5       1.0  0.10700  0.37800  0.00000  1.0000
  Se  Se6       1.0  0.75600  0.39800  0.00000  1.0000
  Se  Se7       1.0  0.24400  0.60200  0.00000  1.0000
  Se  Se8       1.0  0.89300  0.62200  0.00000  1.0000
  Se  Se9       1.0  0.47900  0.68000  0.00000  1.0000
  Se  Se10      1.0  0.71000  0.69100  0.00000  1.0000
  Se  Se11      1.0  0.57700  0.92100  0.00000  1.0000
  Se  Se12      1.0  0.09700  0.97500  0.00000  1.0000
  Se  Se13      1.0  0.25600  0.10200  0.50000  1.0000
  Se  Se14      1.0  0.60700  0.12200  0.50000  1.0000
  Se  Se15      1.0  0.02070  0.18000  0.50000  1.0000
  Se  Se16      1.0  0.79000  0.19100  0.50000  1.0000
  Se  Se17      1.0  0.92300  0.42100  0.50000  1.0000
  Se  Se18      1.0  0.40300  0.47500  0.50000  1.0000
  Se  Se19      1.0  0.59700  0.52500  0.50000  1.0000
  Se  Se20      1.0  0.07660  0.57900  0.50000  1.0000
  Se  Se21      1.0  0.21000  0.80900  0.50000  1.0000
  Se  Se22      1.0  0.97900  0.82000  0.50000  1.0000
  Se  Se23      1.0  0.39300  0.87800  0.50000  1.0000
  Se  Se24      1.0  0.74400  0.89800  0.50000  1.0000
