data_image0
_chemical_formula_structural       C16Co4O16Rb4
_chemical_formula_sum              "C16 Co4 O16 Rb4"
_cell_length_a       5.70602
_cell_length_b       11.4292
_cell_length_c       12.1486
_cell_angle_alpha    98.8685
_cell_angle_beta     103.582
_cell_angle_gamma    104.455

_space_group_name_H-M_alt    "P 1"
_space_group_IT_number       1

loop_
  _space_group_symop_operation_xyz
  'x, y, z'

loop_
  _atom_site_type_symbol
  _atom_site_label
  _atom_site_symmetry_multiplicity
  _atom_site_fract_x
  _atom_site_fract_y
  _atom_site_fract_z
  _atom_site_occupancy
  C   C1        1.0  0.41800  0.03810  0.15600  1.0000
  C   C2        1.0  0.72100  0.87000  0.15700  1.0000
  C   C3        1.0  0.25900  0.58000  0.16100  1.0000
  C   C4        1.0  0.53300  0.40300  0.19400  1.0000
  C   C5        1.0  0.93600  0.09670  0.30600  1.0000
  C   C6        1.0  0.51800  0.92000  0.33900  1.0000
  C   C7        1.0  0.69400  0.63000  0.34300  1.0000
  C   C8        1.0  0.22400  0.46200  0.34400  1.0000
  C   C9        1.0  0.77600  0.53800  0.65600  1.0000
  C   C10       1.0  0.30600  0.37000  0.65700  1.0000
  C   C11       1.0  0.48200  0.07990  0.66100  1.0000
  C   C12       1.0  0.06440  0.90300  0.69400  1.0000
  C   C13       1.0  0.46700  0.59700  0.80600  1.0000
  C   C14       1.0  0.74100  0.42000  0.83900  1.0000
  C   C15       1.0  0.27900  0.13000  0.84300  1.0000
  C   C16       1.0  0.58200  0.96200  0.84400  1.0000
  Co  Co1       1.0  0.64600  0.98700  0.23900  1.0000
  Co  Co2       1.0  0.42100  0.51300  0.26100  1.0000
  Co  Co3       1.0  0.57900  0.48700  0.73900  1.0000
  Co  Co4       1.0  0.35400  0.01300  0.76100  1.0000
  O   O1        1.0  0.15200  0.62600  0.09430  1.0000
  O   O2        1.0  0.25300  0.06600  0.09790  1.0000
  O   O3        1.0  0.77900  0.79200  0.10500  1.0000
  O   O4        1.0  0.61900  0.33200  0.15000  1.0000
  O   O5        1.0  0.13700  0.16800  0.35000  1.0000
  O   O6        1.0  0.88100  0.70800  0.39500  1.0000
  O   O7        1.0  0.08940  0.43400  0.40200  1.0000
  O   O8        1.0  0.43200  0.87400  0.40600  1.0000
  O   O9        1.0  0.56800  0.12600  0.59400  1.0000
  O   O10       1.0  0.91100  0.56600  0.59800  1.0000
  O   O11       1.0  0.11900  0.29200  0.60500  1.0000
  O   O12       1.0  0.86300  0.83200  0.65000  1.0000
  O   O13       1.0  0.38100  0.66800  0.85000  1.0000
  O   O14       1.0  0.22100  0.20800  0.89500  1.0000
  O   O15       1.0  0.74700  0.93400  0.90200  1.0000
  O   O16       1.0  0.84800  0.37400  0.90600  1.0000
  Rb  Rb1       1.0  0.92300  0.21400  0.05600  1.0000
  Rb  Rb2       1.0  0.65300  0.28600  0.44400  1.0000
  Rb  Rb3       1.0  0.34700  0.71400  0.55600  1.0000
  Rb  Rb4       1.0  0.07730  0.78600  0.94400  1.0000
