data_image0
_chemical_formula_structural       Ba14Ga8Sb18
_chemical_formula_sum              "Ba14 Ga8 Sb18"
_cell_length_a       18.309
_cell_length_b       10.9702
_cell_length_c       7.20148
_cell_angle_alpha    90
_cell_angle_beta     90
_cell_angle_gamma    90

_space_group_name_H-M_alt    "P 1"
_space_group_IT_number       1

loop_
  _space_group_symop_operation_xyz
  'x, y, z'

loop_
  _atom_site_type_symbol
  _atom_site_label
  _atom_site_symmetry_multiplicity
  _atom_site_fract_x
  _atom_site_fract_y
  _atom_site_fract_z
  _atom_site_occupancy
  Ba  Ba1       1.0  0.03690  0.25000  0.04080  1.0000
  Ba  Ba2       1.0  0.46300  0.25000  0.04080  1.0000
  Ba  Ba3       1.0  0.75000  0.25000  0.07710  1.0000
  Ba  Ba4       1.0  0.62500  0.52100  0.45700  1.0000
  Ba  Ba5       1.0  0.87500  0.52100  0.45700  1.0000
  Ba  Ba6       1.0  0.62500  0.97900  0.45700  1.0000
  Ba  Ba7       1.0  0.87500  0.97900  0.45700  1.0000
  Ba  Ba8       1.0  0.12500  0.02090  0.54300  1.0000
  Ba  Ba9       1.0  0.37500  0.02090  0.54300  1.0000
  Ba  Ba10      1.0  0.12500  0.47900  0.54300  1.0000
  Ba  Ba11      1.0  0.37500  0.47900  0.54300  1.0000
  Ba  Ba12      1.0  0.25000  0.75000  0.92300  1.0000
  Ba  Ba13      1.0  0.53700  0.75000  0.95900  1.0000
  Ba  Ba14      1.0  0.96300  0.75000  0.95900  1.0000
  Ga  Ga1       1.0  0.25000  0.06880  0.05790  1.0000
  Ga  Ga2       1.0  0.25000  0.43100  0.05790  1.0000
  Ga  Ga3       1.0  0.12200  0.75000  0.25900  1.0000
  Ga  Ga4       1.0  0.37800  0.75000  0.25900  1.0000
  Ga  Ga5       1.0  0.62200  0.25000  0.74100  1.0000
  Ga  Ga6       1.0  0.87800  0.25000  0.74100  1.0000
  Ga  Ga7       1.0  0.75000  0.56900  0.94200  1.0000
  Ga  Ga8       1.0  0.75000  0.93100  0.94200  1.0000
  Sb  Sb1       1.0  0.11700  0.54000  0.04540  1.0000
  Sb  Sb2       1.0  0.38300  0.54000  0.04540  1.0000
  Sb  Sb3       1.0  0.11700  0.96000  0.04540  1.0000
  Sb  Sb4       1.0  0.38300  0.96000  0.04540  1.0000
  Sb  Sb5       1.0  0.75000  0.75000  0.21100  1.0000
  Sb  Sb6       1.0  0.25000  0.25000  0.33000  1.0000
  Sb  Sb7       1.0  0.25000  0.75000  0.45600  1.0000
  Sb  Sb8       1.0  0.00694  0.75000  0.48000  1.0000
  Sb  Sb9       1.0  0.49300  0.75000  0.48000  1.0000
  Sb  Sb10      1.0  0.50700  0.25000  0.52000  1.0000
  Sb  Sb11      1.0  0.99300  0.25000  0.52000  1.0000
  Sb  Sb12      1.0  0.75000  0.25000  0.54400  1.0000
  Sb  Sb13      1.0  0.75000  0.75000  0.67000  1.0000
  Sb  Sb14      1.0  0.25000  0.25000  0.78900  1.0000
  Sb  Sb15      1.0  0.61700  0.04000  0.95500  1.0000
  Sb  Sb16      1.0  0.88300  0.04000  0.95500  1.0000
  Sb  Sb17      1.0  0.61700  0.46000  0.95500  1.0000
  Sb  Sb18      1.0  0.88300  0.46000  0.95500  1.0000
