data_image0
_chemical_formula_structural       Bi8Cs8Se20Zn4
_chemical_formula_sum              "Bi8 Cs8 Se20 Zn4"
_cell_length_a       16.6371
_cell_length_b       4.30823
_cell_length_c       19.0384
_cell_angle_alpha    90
_cell_angle_beta     90
_cell_angle_gamma    90

_space_group_name_H-M_alt    "P 1"
_space_group_IT_number       1

loop_
  _space_group_symop_operation_xyz
  'x, y, z'

loop_
  _atom_site_type_symbol
  _atom_site_label
  _atom_site_symmetry_multiplicity
  _atom_site_fract_x
  _atom_site_fract_y
  _atom_site_fract_z
  _atom_site_occupancy
  Bi  Bi1       1.0  0.25200  0.25000  0.01740  1.0000
  Bi  Bi2       1.0  0.20700  0.75000  0.19800  1.0000
  Bi  Bi3       1.0  0.70700  0.75000  0.30200  1.0000
  Bi  Bi4       1.0  0.75200  0.25000  0.48300  1.0000
  Bi  Bi5       1.0  0.24800  0.75000  0.51700  1.0000
  Bi  Bi6       1.0  0.29300  0.25000  0.69800  1.0000
  Bi  Bi7       1.0  0.79300  0.25000  0.80200  1.0000
  Bi  Bi8       1.0  0.74800  0.75000  0.98300  1.0000
  Cs  Cs1       1.0  0.96000  0.25000  0.11800  1.0000
  Cs  Cs2       1.0  0.49400  0.75000  0.12300  1.0000
  Cs  Cs3       1.0  0.99400  0.75000  0.37700  1.0000
  Cs  Cs4       1.0  0.46000  0.25000  0.38200  1.0000
  Cs  Cs5       1.0  0.54000  0.75000  0.61800  1.0000
  Cs  Cs6       1.0  0.00553  0.25000  0.62300  1.0000
  Cs  Cs7       1.0  0.50600  0.25000  0.87700  1.0000
  Cs  Cs8       1.0  0.03970  0.75000  0.88200  1.0000
  Se  Se1       1.0  0.63800  0.25000  0.02720  1.0000
  Se  Se2       1.0  0.13300  0.75000  0.06030  1.0000
  Se  Se3       1.0  0.32000  0.25000  0.15100  1.0000
  Se  Se4       1.0  0.78700  0.75000  0.15600  1.0000
  Se  Se5       1.0  0.60500  0.25000  0.24400  1.0000
  Se  Se6       1.0  0.10500  0.25000  0.25600  1.0000
  Se  Se7       1.0  0.28700  0.75000  0.34400  1.0000
  Se  Se8       1.0  0.82000  0.25000  0.34900  1.0000
  Se  Se9       1.0  0.63300  0.75000  0.44000  1.0000
  Se  Se10      1.0  0.13800  0.25000  0.47300  1.0000
  Se  Se11      1.0  0.86200  0.75000  0.52700  1.0000
  Se  Se12      1.0  0.36700  0.25000  0.56000  1.0000
  Se  Se13      1.0  0.18000  0.75000  0.65100  1.0000
  Se  Se14      1.0  0.71300  0.25000  0.65600  1.0000
  Se  Se15      1.0  0.89500  0.75000  0.74400  1.0000
  Se  Se16      1.0  0.39500  0.75000  0.75600  1.0000
  Se  Se17      1.0  0.21300  0.25000  0.84400  1.0000
  Se  Se18      1.0  0.68000  0.75000  0.84900  1.0000
  Se  Se19      1.0  0.86700  0.25000  0.94000  1.0000
  Se  Se20      1.0  0.36200  0.75000  0.97300  1.0000
  Zn  Zn1       1.0  0.70500  0.25000  0.14400  1.0000
  Zn  Zn2       1.0  0.20500  0.25000  0.35600  1.0000
  Zn  Zn3       1.0  0.79500  0.75000  0.64400  1.0000
  Zn  Zn4       1.0  0.29500  0.75000  0.85600  1.0000
