data_image0
_chemical_formula_structural       Cl4F32Ta4
_chemical_formula_sum              "Cl4 F32 Ta4"
_cell_length_a       9.17014
_cell_length_b       5.46567
_cell_length_c       9.90968
_cell_angle_alpha    90
_cell_angle_beta     90
_cell_angle_gamma    90

_space_group_name_H-M_alt    "P 1"
_space_group_IT_number       1

loop_
  _space_group_symop_operation_xyz
  'x, y, z'

loop_
  _atom_site_type_symbol
  _atom_site_label
  _atom_site_symmetry_multiplicity
  _atom_site_fract_x
  _atom_site_fract_y
  _atom_site_fract_z
  _atom_site_occupancy
  Cl  Cl1       1.0  0.25000  0.00000  0.02250  1.0000
  Cl  Cl2       1.0  0.75000  0.00000  0.47800  1.0000
  Cl  Cl3       1.0  0.25000  0.00000  0.52200  1.0000
  Cl  Cl4       1.0  0.75000  0.00000  0.97800  1.0000
  F   F1        1.0  0.86400  0.11100  0.08670  1.0000
  F   F2        1.0  0.63600  0.88900  0.08670  1.0000
  F   F3        1.0  0.60900  0.39000  0.08720  1.0000
  F   F4        1.0  0.89100  0.61000  0.08720  1.0000
  F   F5        1.0  0.38400  0.13200  0.17800  1.0000
  F   F6        1.0  0.11600  0.86800  0.17800  1.0000
  F   F7        1.0  0.13000  0.36200  0.18000  1.0000
  F   F8        1.0  0.37000  0.63800  0.18000  1.0000
  F   F9        1.0  0.87000  0.36200  0.32000  1.0000
  F   F10       1.0  0.63000  0.63800  0.32000  1.0000
  F   F11       1.0  0.61600  0.13200  0.32200  1.0000
  F   F12       1.0  0.88400  0.86800  0.32200  1.0000
  F   F13       1.0  0.39100  0.39000  0.41300  1.0000
  F   F14       1.0  0.10900  0.61000  0.41300  1.0000
  F   F15       1.0  0.13600  0.11100  0.41300  1.0000
  F   F16       1.0  0.36400  0.88900  0.41300  1.0000
  F   F17       1.0  0.63600  0.11100  0.58700  1.0000
  F   F18       1.0  0.86400  0.88900  0.58700  1.0000
  F   F19       1.0  0.89100  0.39000  0.58700  1.0000
  F   F20       1.0  0.60900  0.61000  0.58700  1.0000
  F   F21       1.0  0.11600  0.13200  0.67800  1.0000
  F   F22       1.0  0.38400  0.86800  0.67800  1.0000
  F   F23       1.0  0.37000  0.36200  0.68000  1.0000
  F   F24       1.0  0.13000  0.63800  0.68000  1.0000
  F   F25       1.0  0.63000  0.36200  0.82000  1.0000
  F   F26       1.0  0.87000  0.63800  0.82000  1.0000
  F   F27       1.0  0.88400  0.13200  0.82200  1.0000
  F   F28       1.0  0.61600  0.86800  0.82200  1.0000
  F   F29       1.0  0.10900  0.39000  0.91300  1.0000
  F   F30       1.0  0.39100  0.61000  0.91300  1.0000
  F   F31       1.0  0.36400  0.11100  0.91300  1.0000
  F   F32       1.0  0.13600  0.88900  0.91300  1.0000
  Ta  Ta1       1.0  0.50000  0.40800  0.25000  1.0000
  Ta  Ta2       1.0  0.00000  0.59200  0.25000  1.0000
  Ta  Ta3       1.0  0.00000  0.40800  0.75000  1.0000
  Ta  Ta4       1.0  0.50000  0.59200  0.75000  1.0000
