data_image0
_chemical_formula_structural       K8Na12O16Tl4
_chemical_formula_sum              "K8 Na12 O16 Tl4"
_cell_length_a       9.51334
_cell_length_b       9.22583
_cell_length_c       7.69685
_cell_angle_alpha    90
_cell_angle_beta     90
_cell_angle_gamma    90

_space_group_name_H-M_alt    "P 1"
_space_group_IT_number       1

loop_
  _space_group_symop_operation_xyz
  'x, y, z'

loop_
  _atom_site_type_symbol
  _atom_site_label
  _atom_site_symmetry_multiplicity
  _atom_site_fract_x
  _atom_site_fract_y
  _atom_site_fract_z
  _atom_site_occupancy
  K   K1        1.0  0.25500  0.23900  0.00000  1.0000
  K   K2        1.0  0.74500  0.76100  0.00000  1.0000
  K   K3        1.0  0.00000  0.50000  0.24600  1.0000
  K   K4        1.0  0.50000  0.00000  0.25400  1.0000
  K   K5        1.0  0.75500  0.26100  0.50000  1.0000
  K   K6        1.0  0.24500  0.73900  0.50000  1.0000
  K   K7        1.0  0.50000  0.00000  0.74600  1.0000
  K   K8        1.0  0.00000  0.50000  0.75400  1.0000
  Na  Na1       1.0  0.92000  0.24000  0.00000  1.0000
  Na  Na2       1.0  0.08050  0.76000  0.00000  1.0000
  Na  Na3       1.0  0.84800  0.01580  0.25000  1.0000
  Na  Na4       1.0  0.15200  0.98400  0.25000  1.0000
  Na  Na5       1.0  0.34800  0.48400  0.25000  1.0000
  Na  Na6       1.0  0.65200  0.51600  0.25000  1.0000
  Na  Na7       1.0  0.42000  0.26000  0.50000  1.0000
  Na  Na8       1.0  0.58000  0.74000  0.50000  1.0000
  Na  Na9       1.0  0.34800  0.48400  0.75000  1.0000
  Na  Na10      1.0  0.65200  0.51600  0.75000  1.0000
  Na  Na11      1.0  0.84800  0.01580  0.75000  1.0000
  Na  Na12      1.0  0.15200  0.98400  0.75000  1.0000
  O   O1        1.0  0.72300  0.05650  0.00000  1.0000
  O   O2        1.0  0.78100  0.45400  0.00000  1.0000
  O   O3        1.0  0.21900  0.54600  0.00000  1.0000
  O   O4        1.0  0.27700  0.94300  0.00000  1.0000
  O   O5        1.0  0.51500  0.30100  0.24500  1.0000
  O   O6        1.0  0.48500  0.69900  0.24500  1.0000
  O   O7        1.0  0.01490  0.19900  0.25500  1.0000
  O   O8        1.0  0.98500  0.80100  0.25500  1.0000
  O   O9        1.0  0.28100  0.04630  0.50000  1.0000
  O   O10       1.0  0.22300  0.44300  0.50000  1.0000
  O   O11       1.0  0.77700  0.55700  0.50000  1.0000
  O   O12       1.0  0.71900  0.95400  0.50000  1.0000
  O   O13       1.0  0.01490  0.19900  0.74500  1.0000
  O   O14       1.0  0.98500  0.80100  0.74500  1.0000
  O   O15       1.0  0.51500  0.30100  0.75500  1.0000
  O   O16       1.0  0.48500  0.69900  0.75500  1.0000
  Tl  Tl1       1.0  0.62300  0.27200  0.00000  1.0000
  Tl  Tl2       1.0  0.37700  0.72800  0.00000  1.0000
  Tl  Tl3       1.0  0.12300  0.22800  0.50000  1.0000
  Tl  Tl4       1.0  0.87700  0.77200  0.50000  1.0000
