data_image0
_chemical_formula_structural       P8S28Zr4
_chemical_formula_sum              "P8 S28 Zr4"
_cell_length_a       8.69469
_cell_length_b       8.69569
_cell_length_c       15.6166
_cell_angle_alpha    98.1731
_cell_angle_beta     98.1703
_cell_angle_gamma    119.303

_space_group_name_H-M_alt    "P 1"
_space_group_IT_number       1

loop_
  _space_group_symop_operation_xyz
  'x, y, z'

loop_
  _atom_site_type_symbol
  _atom_site_label
  _atom_site_symmetry_multiplicity
  _atom_site_fract_x
  _atom_site_fract_y
  _atom_site_fract_z
  _atom_site_occupancy
  P   P1        1.0  0.37400  0.00677  0.13500  1.0000
  P   P2        1.0  0.76200  0.62900  0.13500  1.0000
  P   P3        1.0  0.49300  0.12600  0.36500  1.0000
  P   P4        1.0  0.87100  0.73800  0.36500  1.0000
  P   P5        1.0  0.12900  0.26200  0.63500  1.0000
  P   P6        1.0  0.50700  0.87400  0.63500  1.0000
  P   P7        1.0  0.23800  0.37100  0.86500  1.0000
  P   P8        1.0  0.62600  0.99300  0.86500  1.0000
  S   S1        1.0  0.20600  0.01910  0.03640  1.0000
  S   S2        1.0  0.83100  0.51700  0.03640  1.0000
  S   S3        1.0  0.62300  0.12900  0.10500  1.0000
  S   S4        1.0  0.48200  0.47600  0.10500  1.0000
  S   S5        1.0  0.32700  0.76100  0.14900  1.0000
  S   S6        1.0  0.82200  0.88800  0.14900  1.0000
  S   S7        1.0  0.35000  0.15000  0.25000  1.0000
  S   S8        1.0  0.90000  0.60000  0.25000  1.0000
  S   S9        1.0  0.73900  0.17300  0.35100  1.0000
  S   S10       1.0  0.61200  0.67800  0.35100  1.0000
  S   S11       1.0  0.02380  0.01840  0.39500  1.0000
  S   S12       1.0  0.37100  0.87700  0.39500  1.0000
  S   S13       1.0  0.48100  0.29400  0.46400  1.0000
  S   S14       1.0  0.98300  0.66900  0.46400  1.0000
  S   S15       1.0  0.01740  0.33100  0.53600  1.0000
  S   S16       1.0  0.51900  0.70600  0.53600  1.0000
  S   S17       1.0  0.62900  0.12300  0.60500  1.0000
  S   S18       1.0  0.97600  0.98200  0.60500  1.0000
  S   S19       1.0  0.38800  0.32200  0.64900  1.0000
  S   S20       1.0  0.26100  0.82700  0.64900  1.0000
  S   S21       1.0  0.10000  0.40000  0.75000  1.0000
  S   S22       1.0  0.65000  0.85000  0.75000  1.0000
  S   S23       1.0  0.17800  0.11200  0.85100  1.0000
  S   S24       1.0  0.67300  0.23900  0.85100  1.0000
  S   S25       1.0  0.51800  0.52400  0.89500  1.0000
  S   S26       1.0  0.37700  0.87100  0.89500  1.0000
  S   S27       1.0  0.16900  0.48300  0.96400  1.0000
  S   S28       1.0  0.79400  0.98100  0.96400  1.0000
  Zr  Zr1       1.0  0.51500  0.76500  0.02970  1.0000
  Zr  Zr2       1.0  0.73500  0.98500  0.47000  1.0000
  Zr  Zr3       1.0  0.26500  0.01490  0.53000  1.0000
  Zr  Zr4       1.0  0.48500  0.23500  0.97000  1.0000
