data_image0
_chemical_formula_structural       Ce2O28P10
_chemical_formula_sum              "Ce2 O28 P10"
_cell_length_a       9.12086
_cell_length_b       8.742
_cell_length_c       7.14658
_cell_angle_alpha    109.754
_cell_angle_beta     102.247
_cell_angle_gamma    82.9728

_space_group_name_H-M_alt    "P 1"
_space_group_IT_number       1

loop_
  _space_group_symop_operation_xyz
  'x, y, z'

loop_
  _atom_site_type_symbol
  _atom_site_label
  _atom_site_symmetry_multiplicity
  _atom_site_fract_x
  _atom_site_fract_y
  _atom_site_fract_z
  _atom_site_occupancy
  Ce  Ce1       1.0  0.45700  0.50800  0.54300  1.0000
  Ce  Ce2       1.0  0.00572  0.00090  0.99900  1.0000
  O   O1        1.0  0.75200  0.98500  0.06100  1.0000
  O   O2        1.0  0.24900  0.10800  0.09450  1.0000
  O   O3        1.0  0.15200  0.77400  0.10700  1.0000
  O   O4        1.0  0.97400  0.57500  0.10700  1.0000
  O   O5        1.0  0.73400  0.47300  0.11800  1.0000
  O   O6        1.0  0.50100  0.97700  0.16400  1.0000
  O   O7        1.0  0.97200  0.30400  0.18000  1.0000
  O   O8        1.0  0.70200  0.77000  0.20600  1.0000
  O   O9        1.0  0.48100  0.28500  0.23600  1.0000
  O   O10       1.0  0.51500  0.62700  0.29100  1.0000
  O   O11       1.0  0.22700  0.59200  0.34100  1.0000
  O   O12       1.0  0.03880  0.05550  0.36900  1.0000
  O   O13       1.0  0.73900  0.05830  0.42500  1.0000
  O   O14       1.0  0.92700  0.58700  0.43500  1.0000
  O   O15       1.0  0.30500  0.00020  0.52700  1.0000
  O   O16       1.0  0.72000  0.51900  0.57800  1.0000
  O   O17       1.0  0.24100  0.40100  0.60000  1.0000
  O   O18       1.0  0.58400  0.96600  0.60500  1.0000
  O   O19       1.0  0.56700  0.26500  0.64200  1.0000
  O   O20       1.0  0.09100  0.92200  0.65800  1.0000
  O   O21       1.0  0.98000  0.43800  0.69000  1.0000
  O   O22       1.0  0.43300  0.79900  0.71300  1.0000
  O   O23       1.0  0.14000  0.20800  0.73900  1.0000
  O   O24       1.0  0.90400  0.74300  0.78800  1.0000
  O   O25       1.0  0.81400  0.13300  0.79500  1.0000
  O   O26       1.0  0.44400  0.10600  0.88400  1.0000
  O   O27       1.0  0.51500  0.58700  0.91700  1.0000
  O   O28       1.0  0.21200  0.47100  0.96700  1.0000
  P   P1        1.0  0.40900  0.13200  0.10600  1.0000
  P   P2        1.0  0.59600  0.61200  0.12700  1.0000
  P   P3        1.0  0.15100  0.61900  0.14900  1.0000
  P   P4        1.0  0.67800  0.95000  0.20500  1.0000
  P   P5        1.0  0.90700  0.47000  0.20800  1.0000
  P   P6        1.0  0.12800  0.03260  0.55800  1.0000
  P   P7        1.0  0.87200  0.58300  0.63300  1.0000
  P   P8        1.0  0.67800  0.12600  0.63800  1.0000
  P   P9        1.0  0.43900  0.95600  0.68300  1.0000
  P   P10       1.0  0.15000  0.38500  0.73800  1.0000
