data_image0
_chemical_formula_structural       K2O24P6Sn8
_chemical_formula_sum              "K2 O24 P6 Sn8"
_cell_length_a       9.5924
_cell_length_b       9.59241
_cell_length_c       9.74081
_cell_angle_alpha    60.5027
_cell_angle_beta     119.497
_cell_angle_gamma    120

_space_group_name_H-M_alt    "P 1"
_space_group_IT_number       1

loop_
  _space_group_symop_operation_xyz
  'x, y, z'

loop_
  _atom_site_type_symbol
  _atom_site_label
  _atom_site_symmetry_multiplicity
  _atom_site_fract_x
  _atom_site_fract_y
  _atom_site_fract_z
  _atom_site_occupancy
  K   K1        1.0  0.82400  0.17600  0.47300  1.0000
  K   K2        1.0  0.32400  0.67600  0.97300  1.0000
  O   O1        1.0  0.06050  0.55500  0.08080  1.0000
  O   O2        1.0  0.44500  0.42500  0.08080  1.0000
  O   O3        1.0  0.57500  0.94000  0.08080  1.0000
  O   O4        1.0  0.53800  0.11200  0.17900  1.0000
  O   O5        1.0  0.75300  0.46200  0.17900  1.0000
  O   O6        1.0  0.88800  0.24700  0.17900  1.0000
  O   O7        1.0  0.20500  0.32700  0.24100  1.0000
  O   O8        1.0  0.36300  0.79500  0.24100  1.0000
  O   O9        1.0  0.67300  0.63700  0.24100  1.0000
  O   O10       1.0  0.11900  0.40400  0.39100  1.0000
  O   O11       1.0  0.59600  0.32400  0.39100  1.0000
  O   O12       1.0  0.67600  0.88100  0.39100  1.0000
  O   O13       1.0  0.07490  0.05450  0.58100  1.0000
  O   O14       1.0  0.56000  0.92500  0.58100  1.0000
  O   O15       1.0  0.94500  0.44000  0.58100  1.0000
  O   O16       1.0  0.03780  0.74700  0.67900  1.0000
  O   O17       1.0  0.25300  0.61200  0.67900  1.0000
  O   O18       1.0  0.38800  0.96200  0.67900  1.0000
  O   O19       1.0  0.17300  0.29500  0.74100  1.0000
  O   O20       1.0  0.70500  0.13700  0.74100  1.0000
  O   O21       1.0  0.86300  0.82700  0.74100  1.0000
  O   O22       1.0  0.09620  0.38100  0.89100  1.0000
  O   O23       1.0  0.17600  0.90400  0.89100  1.0000
  O   O24       1.0  0.61900  0.82400  0.89100  1.0000
  P   P1        1.0  0.06790  0.38200  0.22200  1.0000
  P   P2        1.0  0.53700  0.93200  0.22200  1.0000
  P   P3        1.0  0.61800  0.46300  0.22200  1.0000
  P   P4        1.0  0.03670  0.88200  0.72200  1.0000
  P   P5        1.0  0.11800  0.43200  0.72200  1.0000
  P   P6        1.0  0.56800  0.96300  0.72200  1.0000
  Sn  Sn1       1.0  0.67100  0.32900  0.01200  1.0000
  Sn  Sn2       1.0  0.10300  0.78100  0.11100  1.0000
  Sn  Sn3       1.0  0.21900  0.21100  0.11100  1.0000
  Sn  Sn4       1.0  0.78900  0.89700  0.11100  1.0000
  Sn  Sn5       1.0  0.17100  0.82900  0.51200  1.0000
  Sn  Sn6       1.0  0.28900  0.28100  0.61100  1.0000
  Sn  Sn7       1.0  0.60300  0.71100  0.61100  1.0000
  Sn  Sn8       1.0  0.71900  0.39700  0.61100  1.0000
