data_image0
_chemical_formula_structural       As6Bi4K6O24
_chemical_formula_sum              "As6 Bi4 K6 O24"
_cell_length_a       6.9914
_cell_length_b       9.78256
_cell_length_c       9.78256
_cell_angle_alpha    90.9908
_cell_angle_beta     107.108
_cell_angle_gamma    72.8924

_space_group_name_H-M_alt    "P 1"
_space_group_IT_number       1

loop_
  _space_group_symop_operation_xyz
  'x, y, z'

loop_
  _atom_site_type_symbol
  _atom_site_label
  _atom_site_symmetry_multiplicity
  _atom_site_fract_x
  _atom_site_fract_y
  _atom_site_fract_z
  _atom_site_occupancy
  As  As1       1.0  0.64200  0.64800  0.13500  1.0000
  As  As2       1.0  0.25000  0.24300  0.24300  1.0000
  As  As3       1.0  0.14200  0.86500  0.35200  1.0000
  As  As4       1.0  0.85800  0.13500  0.64800  1.0000
  As  As5       1.0  0.75000  0.75700  0.75700  1.0000
  As  As6       1.0  0.35800  0.35200  0.86500  1.0000
  Bi  Bi1       1.0  0.16500  0.62000  0.09670  1.0000
  Bi  Bi2       1.0  0.66500  0.90300  0.38000  1.0000
  Bi  Bi3       1.0  0.33500  0.09670  0.62000  1.0000
  Bi  Bi4       1.0  0.83500  0.38000  0.90300  1.0000
  K   K1        1.0  0.75000  0.02120  0.02120  1.0000
  K   K2        1.0  0.75000  0.27700  0.27700  1.0000
  K   K3        1.0  0.00000  0.50000  0.50000  1.0000
  K   K4        1.0  0.50000  0.50000  0.50000  1.0000
  K   K5        1.0  0.25000  0.72300  0.72300  1.0000
  K   K6        1.0  0.25000  0.97900  0.97900  1.0000
  O   O1        1.0  0.40900  0.66000  0.00280  1.0000
  O   O2        1.0  0.85300  0.53800  0.08640  1.0000
  O   O3        1.0  0.04480  0.23000  0.09640  1.0000
  O   O4        1.0  0.67500  0.81500  0.14800  1.0000
  O   O5        1.0  0.17500  0.85200  0.18500  1.0000
  O   O6        1.0  0.45500  0.09640  0.23000  1.0000
  O   O7        1.0  0.33300  0.39100  0.24200  1.0000
  O   O8        1.0  0.63200  0.58400  0.29200  1.0000
  O   O9        1.0  0.90900  0.99700  0.34000  1.0000
  O   O10       1.0  0.16700  0.24200  0.39100  1.0000
  O   O11       1.0  0.13200  0.70800  0.41600  1.0000
  O   O12       1.0  0.35300  0.91400  0.46200  1.0000
  O   O13       1.0  0.64700  0.08640  0.53800  1.0000
  O   O14       1.0  0.86800  0.29200  0.58400  1.0000
  O   O15       1.0  0.83300  0.75800  0.60900  1.0000
  O   O16       1.0  0.09100  0.00280  0.66000  1.0000
  O   O17       1.0  0.36800  0.41600  0.70800  1.0000
  O   O18       1.0  0.66700  0.60900  0.75800  1.0000
  O   O19       1.0  0.54500  0.90400  0.77000  1.0000
  O   O20       1.0  0.82500  0.14800  0.81500  1.0000
  O   O21       1.0  0.32500  0.18500  0.85200  1.0000
  O   O22       1.0  0.95500  0.77000  0.90400  1.0000
  O   O23       1.0  0.14700  0.46200  0.91400  1.0000
  O   O24       1.0  0.59100  0.34000  0.99700  1.0000
