data_image0
_chemical_formula_structural       Au4Cl32P4
_chemical_formula_sum              "Au4 Cl32 P4"
_cell_length_a       11.6314
_cell_length_b       11.6314
_cell_length_c       11.6314
_cell_angle_alpha    94.1559
_cell_angle_beta     119.956
_cell_angle_gamma    115.353

_space_group_name_H-M_alt    "P 1"
_space_group_IT_number       1

loop_
  _space_group_symop_operation_xyz
  'x, y, z'

loop_
  _atom_site_type_symbol
  _atom_site_label
  _atom_site_symmetry_multiplicity
  _atom_site_fract_x
  _atom_site_fract_y
  _atom_site_fract_z
  _atom_site_occupancy
  Au  Au1       1.0  0.42100  0.25000  0.17100  1.0000
  Au  Au2       1.0  0.06660  0.75000  0.31700  1.0000
  Au  Au3       1.0  0.93300  0.25000  0.68300  1.0000
  Au  Au4       1.0  0.57900  0.75000  0.82900  1.0000
  Cl  Cl1       1.0  0.42200  0.10400  0.02570  1.0000
  Cl  Cl2       1.0  0.77700  0.75000  0.02720  1.0000
  Cl  Cl3       1.0  0.31300  0.59900  0.07270  1.0000
  Cl  Cl4       1.0  0.97300  0.26000  0.07270  1.0000
  Cl  Cl5       1.0  0.06600  0.60400  0.17000  1.0000
  Cl  Cl6       1.0  0.81500  0.22600  0.23700  1.0000
  Cl  Cl7       1.0  0.51100  0.92200  0.23700  1.0000
  Cl  Cl8       1.0  0.02660  0.09930  0.28700  1.0000
  Cl  Cl9       1.0  0.68700  0.76000  0.28700  1.0000
  Cl  Cl10      1.0  0.25000  0.93600  0.31400  1.0000
  Cl  Cl11      1.0  0.87800  0.56400  0.31400  1.0000
  Cl  Cl12      1.0  0.42200  0.39600  0.31800  1.0000
  Cl  Cl13      1.0  0.62100  0.25000  0.37100  1.0000
  Cl  Cl14      1.0  0.18500  0.42200  0.41100  1.0000
  Cl  Cl15      1.0  0.48900  0.72600  0.41100  1.0000
  Cl  Cl16      1.0  0.06600  0.89600  0.46200  1.0000
  Cl  Cl17      1.0  0.93400  0.10400  0.53800  1.0000
  Cl  Cl18      1.0  0.51100  0.27400  0.58900  1.0000
  Cl  Cl19      1.0  0.81500  0.57800  0.58900  1.0000
  Cl  Cl20      1.0  0.37900  0.75000  0.62900  1.0000
  Cl  Cl21      1.0  0.57800  0.60400  0.68200  1.0000
  Cl  Cl22      1.0  0.12200  0.43600  0.68600  1.0000
  Cl  Cl23      1.0  0.75000  0.06380  0.68600  1.0000
  Cl  Cl24      1.0  0.31300  0.24000  0.71300  1.0000
  Cl  Cl25      1.0  0.97300  0.90100  0.71300  1.0000
  Cl  Cl26      1.0  0.18500  0.77400  0.76300  1.0000
  Cl  Cl27      1.0  0.48900  0.07790  0.76300  1.0000
  Cl  Cl28      1.0  0.93400  0.39600  0.83000  1.0000
  Cl  Cl29      1.0  0.02660  0.74000  0.92700  1.0000
  Cl  Cl30      1.0  0.68700  0.40100  0.92700  1.0000
  Cl  Cl31      1.0  0.22300  0.25000  0.97300  1.0000
  Cl  Cl32      1.0  0.57800  0.89600  0.97400  1.0000
  P   P1        1.0  0.00000  0.25200  0.25200  1.0000
  P   P2        1.0  0.50000  0.75200  0.25200  1.0000
  P   P3        1.0  0.00000  0.74800  0.74800  1.0000
  P   P4        1.0  0.50000  0.24800  0.74800  1.0000
