data_image0
_chemical_formula_structural       As6Ba2
_chemical_formula_sum              "As6 Ba2"
_cell_length_a       6.1064
_cell_length_b       6.47756
_cell_length_c       6.47756
_cell_angle_alpha    105.284
_cell_angle_beta     108.46
_cell_angle_gamma    71.5398

_space_group_name_H-M_alt    "P 1"
_space_group_IT_number       1

loop_
  _space_group_symop_operation_xyz
  'x, y, z'

loop_
  _atom_site_type_symbol
  _atom_site_label
  _atom_site_symmetry_multiplicity
  _atom_site_fract_x
  _atom_site_fract_y
  _atom_site_fract_z
  _atom_site_occupancy
  As  As1       1.0  0.18400  0.37300  0.09500  1.0000
  As  As2       1.0  0.81600  0.09500  0.37300  1.0000
  As  As3       1.0  0.20600  0.50300  0.49700  1.0000
  As  As4       1.0  0.79400  0.49700  0.50300  1.0000
  As  As5       1.0  0.18400  0.90500  0.62700  1.0000
  As  As6       1.0  0.81600  0.62700  0.90500  1.0000
  Ba  Ba1       1.0  0.33700  0.83600  0.16400  1.0000
  Ba  Ba2       1.0  0.66300  0.16400  0.83600  1.0000
