data_image0
_chemical_formula_structural       Cu28In12
_chemical_formula_sum              "Cu28 In12"
_cell_length_a       6.67912
_cell_length_b       9.05373
_cell_length_c       9.99755
_cell_angle_alpha    73.2712
_cell_angle_beta     82.84
_cell_angle_gamma    89.8465

_space_group_name_H-M_alt    "P 1"
_space_group_IT_number       1

loop_
  _space_group_symop_operation_xyz
  'x, y, z'

loop_
  _atom_site_type_symbol
  _atom_site_label
  _atom_site_symmetry_multiplicity
  _atom_site_fract_x
  _atom_site_fract_y
  _atom_site_fract_z
  _atom_site_occupancy
  Cu  Cu1       1.0  0.00000  0.00000  0.00000  1.0000
  Cu  Cu2       1.0  0.30400  0.14400  0.06160  1.0000
  Cu  Cu3       1.0  0.93100  0.23500  0.08570  1.0000
  Cu  Cu4       1.0  0.52900  0.58800  0.13400  1.0000
  Cu  Cu5       1.0  0.55600  0.29300  0.13500  1.0000
  Cu  Cu6       1.0  0.66000  0.99700  0.16200  1.0000
  Cu  Cu7       1.0  0.84700  0.42800  0.22700  1.0000
  Cu  Cu8       1.0  0.03210  0.98100  0.25100  1.0000
  Cu  Cu9       1.0  0.14600  0.24100  0.28800  1.0000
  Cu  Cu10      1.0  0.15600  0.54300  0.30200  1.0000
  Cu  Cu11      1.0  0.75500  0.14300  0.33700  1.0000
  Cu  Cu12      1.0  0.46100  0.69500  0.34600  1.0000
  Cu  Cu13      1.0  0.72700  0.85000  0.41800  1.0000
  Cu  Cu14      1.0  0.77300  0.55000  0.43700  1.0000
  Cu  Cu15      1.0  0.00000  0.00000  0.50000  1.0000
  Cu  Cu16      1.0  0.22700  0.45000  0.56300  1.0000
  Cu  Cu17      1.0  0.27300  0.15000  0.58200  1.0000
  Cu  Cu18      1.0  0.53900  0.30500  0.65400  1.0000
  Cu  Cu19      1.0  0.24500  0.85700  0.66300  1.0000
  Cu  Cu20      1.0  0.84400  0.45700  0.69800  1.0000
  Cu  Cu21      1.0  0.85400  0.75900  0.71200  1.0000
  Cu  Cu22      1.0  0.96800  0.01940  0.74900  1.0000
  Cu  Cu23      1.0  0.15300  0.57200  0.77300  1.0000
  Cu  Cu24      1.0  0.34000  0.00283  0.83800  1.0000
  Cu  Cu25      1.0  0.44400  0.70700  0.86500  1.0000
  Cu  Cu26      1.0  0.47100  0.41200  0.86600  1.0000
  Cu  Cu27      1.0  0.06910  0.76500  0.91400  1.0000
  Cu  Cu28      1.0  0.69600  0.85600  0.93800  1.0000
  In  In1       1.0  0.20700  0.47200  0.05650  1.0000
  In  In2       1.0  0.32100  0.83500  0.10400  1.0000
  In  In3       1.0  0.85800  0.73500  0.18300  1.0000
  In  In4       1.0  0.38100  0.00603  0.36600  1.0000
  In  In5       1.0  0.48300  0.36600  0.37900  1.0000
  In  In6       1.0  0.07890  0.71900  0.48300  1.0000
  In  In7       1.0  0.92100  0.28100  0.51700  1.0000
  In  In8       1.0  0.51700  0.63400  0.62100  1.0000
  In  In9       1.0  0.61900  0.99400  0.63400  1.0000
  In  In10      1.0  0.14200  0.26500  0.81700  1.0000
  In  In11      1.0  0.67900  0.16500  0.89600  1.0000
  In  In12      1.0  0.79300  0.52800  0.94400  1.0000
