data_image0
_chemical_formula_structural       Cd4O12S4
_chemical_formula_sum              "Cd4 O12 S4"
_cell_length_a       4.42333
_cell_length_b       8.56356
_cell_length_c       7.19968
_cell_angle_alpha    90
_cell_angle_beta     95.0521
_cell_angle_gamma    90

_space_group_name_H-M_alt    "P 1"
_space_group_IT_number       1

loop_
  _space_group_symop_operation_xyz
  'x, y, z'

loop_
  _atom_site_type_symbol
  _atom_site_label
  _atom_site_symmetry_multiplicity
  _atom_site_fract_x
  _atom_site_fract_y
  _atom_site_fract_z
  _atom_site_occupancy
  Cd  Cd1       1.0  0.75800  0.20600  0.00885  1.0000
  Cd  Cd2       1.0  0.24200  0.70600  0.49100  1.0000
  Cd  Cd3       1.0  0.75800  0.29400  0.50900  1.0000
  Cd  Cd4       1.0  0.24200  0.79400  0.99100  1.0000
  O   O1        1.0  0.28000  0.12900  0.08200  1.0000
  O   O2        1.0  0.07250  0.60300  0.18600  1.0000
  O   O3        1.0  0.68500  0.40200  0.22000  1.0000
  O   O4        1.0  0.31500  0.90200  0.28000  1.0000
  O   O5        1.0  0.92800  0.10300  0.31400  1.0000
  O   O6        1.0  0.72000  0.62900  0.41800  1.0000
  O   O7        1.0  0.28000  0.37100  0.58200  1.0000
  O   O8        1.0  0.07250  0.89700  0.68600  1.0000
  O   O9        1.0  0.68500  0.09850  0.72000  1.0000
  O   O10       1.0  0.31500  0.59800  0.78000  1.0000
  O   O11       1.0  0.92800  0.39700  0.81400  1.0000
  O   O12       1.0  0.72000  0.87100  0.91800  1.0000
  S   S1        1.0  0.73400  0.57900  0.21000  1.0000
  S   S2        1.0  0.26600  0.07940  0.29000  1.0000
  S   S3        1.0  0.73400  0.92100  0.71000  1.0000
  S   S4        1.0  0.26600  0.42100  0.79000  1.0000
