data_image0
_chemical_formula_structural       Ba4F28Fe4Mn4
_chemical_formula_sum              "Ba4 F28 Fe4 Mn4"
_cell_length_a       5.3389
_cell_length_b       10.8154
_cell_length_c       8.88187
_cell_angle_alpha    90
_cell_angle_beta     94.0671
_cell_angle_gamma    90

_space_group_name_H-M_alt    "P 1"
_space_group_IT_number       1

loop_
  _space_group_symop_operation_xyz
  'x, y, z'

loop_
  _atom_site_type_symbol
  _atom_site_label
  _atom_site_symmetry_multiplicity
  _atom_site_fract_x
  _atom_site_fract_y
  _atom_site_fract_z
  _atom_site_occupancy
  Ba  Ba1       1.0  0.22300  0.16300  0.03770  1.0000
  Ba  Ba2       1.0  0.77700  0.66300  0.46200  1.0000
  Ba  Ba3       1.0  0.22300  0.33700  0.53800  1.0000
  Ba  Ba4       1.0  0.77700  0.83700  0.96200  1.0000
  F   F1        1.0  0.13600  0.40300  0.00081  1.0000
  F   F2        1.0  0.28700  0.90500  0.01930  1.0000
  F   F3        1.0  0.64200  0.34700  0.04100  1.0000
  F   F4        1.0  0.99800  0.98100  0.21600  1.0000
  F   F5        1.0  0.60400  0.78200  0.22100  1.0000
  F   F6        1.0  0.08500  0.73000  0.22500  1.0000
  F   F7        1.0  0.50400  0.53500  0.24000  1.0000
  F   F8        1.0  0.49600  0.03520  0.26000  1.0000
  F   F9        1.0  0.91500  0.23000  0.27500  1.0000
  F   F10       1.0  0.39600  0.28200  0.27900  1.0000
  F   F11       1.0  0.00209  0.48100  0.28400  1.0000
  F   F12       1.0  0.35800  0.84700  0.45900  1.0000
  F   F13       1.0  0.71300  0.40500  0.48100  1.0000
  F   F14       1.0  0.86400  0.90300  0.49900  1.0000
  F   F15       1.0  0.13600  0.09690  0.50100  1.0000
  F   F16       1.0  0.28700  0.59500  0.51900  1.0000
  F   F17       1.0  0.64200  0.15300  0.54100  1.0000
  F   F18       1.0  0.99800  0.51900  0.71600  1.0000
  F   F19       1.0  0.60400  0.71800  0.72100  1.0000
  F   F20       1.0  0.08500  0.77000  0.72500  1.0000
  F   F21       1.0  0.50400  0.96500  0.74000  1.0000
  F   F22       1.0  0.49600  0.46500  0.76000  1.0000
  F   F23       1.0  0.91500  0.27000  0.77500  1.0000
  F   F24       1.0  0.39600  0.21800  0.77900  1.0000
  F   F25       1.0  0.00209  0.01880  0.78400  1.0000
  F   F26       1.0  0.35800  0.65300  0.95900  1.0000
  F   F27       1.0  0.71300  0.09460  0.98100  1.0000
  F   F28       1.0  0.86400  0.59700  0.99900  1.0000
  Fe  Fe1       1.0  0.30600  0.87500  0.23900  1.0000
  Fe  Fe2       1.0  0.69400  0.37500  0.26100  1.0000
  Fe  Fe3       1.0  0.30600  0.62500  0.73900  1.0000
  Fe  Fe4       1.0  0.69400  0.12500  0.76100  1.0000
  Mn  Mn1       1.0  0.18900  0.56700  0.12200  1.0000
  Mn  Mn2       1.0  0.81100  0.06670  0.37800  1.0000
  Mn  Mn3       1.0  0.18900  0.93300  0.62200  1.0000
  Mn  Mn4       1.0  0.81100  0.43300  0.87800  1.0000
