data_image0
_chemical_formula_structural       C4Cl4N20S12
_chemical_formula_sum              "C4 Cl4 N20 S12"
_cell_length_a       4.64633
_cell_length_b       10.3535
_cell_length_c       13.9073
_cell_angle_alpha    90
_cell_angle_beta     103.306
_cell_angle_gamma    90

_space_group_name_H-M_alt    "P 1"
_space_group_IT_number       1

loop_
  _space_group_symop_operation_xyz
  'x, y, z'

loop_
  _atom_site_type_symbol
  _atom_site_label
  _atom_site_symmetry_multiplicity
  _atom_site_fract_x
  _atom_site_fract_y
  _atom_site_fract_z
  _atom_site_occupancy
  C   C1        1.0  0.94100  0.36100  0.18700  1.0000
  C   C2        1.0  0.05860  0.86100  0.31300  1.0000
  C   C3        1.0  0.94100  0.13900  0.68700  1.0000
  C   C4        1.0  0.05860  0.63900  0.81300  1.0000
  Cl  Cl1       1.0  0.66100  0.37600  0.07940  1.0000
  Cl  Cl2       1.0  0.33900  0.87600  0.42100  1.0000
  Cl  Cl3       1.0  0.66100  0.12400  0.57900  1.0000
  Cl  Cl4       1.0  0.33900  0.62400  0.92100  1.0000
  N   N1        1.0  0.84100  0.96600  0.07720  1.0000
  N   N2        1.0  0.86900  0.70700  0.09740  1.0000
  N   N3        1.0  0.49600  0.84400  0.17800  1.0000
  N   N4        1.0  0.02330  0.24000  0.20700  1.0000
  N   N5        1.0  0.02690  0.47300  0.22800  1.0000
  N   N6        1.0  0.97300  0.97300  0.27200  1.0000
  N   N7        1.0  0.97700  0.74000  0.29300  1.0000
  N   N8        1.0  0.50400  0.34400  0.32200  1.0000
  N   N9        1.0  0.13100  0.20700  0.40300  1.0000
  N   N10       1.0  0.15900  0.46600  0.42300  1.0000
  N   N11       1.0  0.84100  0.53400  0.57700  1.0000
  N   N12       1.0  0.86900  0.79300  0.59700  1.0000
  N   N13       1.0  0.49600  0.65600  0.67800  1.0000
  N   N14       1.0  0.02330  0.26000  0.70700  1.0000
  N   N15       1.0  0.02690  0.02650  0.72800  1.0000
  N   N16       1.0  0.97300  0.52700  0.77200  1.0000
  N   N17       1.0  0.97700  0.76000  0.79300  1.0000
  N   N18       1.0  0.50400  0.15600  0.82200  1.0000
  N   N19       1.0  0.13100  0.29300  0.90300  1.0000
  N   N20       1.0  0.15900  0.03350  0.92300  1.0000
  S   S1        1.0  0.90400  0.83100  0.03730  1.0000
  S   S2        1.0  0.68400  0.97700  0.17800  1.0000
  S   S3        1.0  0.70200  0.71400  0.19700  1.0000
  S   S4        1.0  0.29800  0.21400  0.30300  1.0000
  S   S5        1.0  0.31600  0.47700  0.32200  1.0000
  S   S6        1.0  0.09650  0.33100  0.46300  1.0000
  S   S7        1.0  0.90400  0.66900  0.53700  1.0000
  S   S8        1.0  0.68400  0.52300  0.67800  1.0000
  S   S9        1.0  0.70200  0.78600  0.69700  1.0000
  S   S10       1.0  0.29800  0.28600  0.80300  1.0000
  S   S11       1.0  0.31600  0.02270  0.82200  1.0000
  S   S12       1.0  0.09650  0.16900  0.96300  1.0000
