data_image0
_chemical_formula_structural       Bi14MoO24
_chemical_formula_sum              "Bi14 Mo1 O24"
_cell_length_a       8.5879
_cell_length_b       8.5879
_cell_length_c       10.4361
_cell_angle_alpha    114.296
_cell_angle_beta     114.296
_cell_angle_gamma    90

_space_group_name_H-M_alt    "P 1"
_space_group_IT_number       1

loop_
  _space_group_symop_operation_xyz
  'x, y, z'

loop_
  _atom_site_type_symbol
  _atom_site_label
  _atom_site_symmetry_multiplicity
  _atom_site_fract_x
  _atom_site_fract_y
  _atom_site_fract_z
  _atom_site_occupancy
  Bi  Bi1       1.0  0.55500  0.19800  0.00000  1.0000
  Bi  Bi2       1.0  0.19800  0.44500  0.00000  1.0000
  Bi  Bi3       1.0  0.80200  0.55500  0.00000  1.0000
  Bi  Bi4       1.0  0.44500  0.80200  0.00000  1.0000
  Bi  Bi5       1.0  0.66000  0.66000  0.32000  1.0000
  Bi  Bi6       1.0  0.87700  0.05320  0.33200  1.0000
  Bi  Bi7       1.0  0.45500  0.27900  0.33200  1.0000
  Bi  Bi8       1.0  0.05320  0.45500  0.33200  1.0000
  Bi  Bi9       1.0  0.27900  0.87700  0.33200  1.0000
  Bi  Bi10      1.0  0.72100  0.12300  0.66800  1.0000
  Bi  Bi11      1.0  0.94700  0.54500  0.66800  1.0000
  Bi  Bi12      1.0  0.54500  0.72100  0.66800  1.0000
  Bi  Bi13      1.0  0.12300  0.94700  0.66800  1.0000
  Bi  Bi14      1.0  0.34000  0.34000  0.68000  1.0000
  Mo  Mo1       1.0  0.00000  0.00000  0.00000  1.0000
  O   O1        1.0  0.78400  0.02760  0.00000  1.0000
  O   O2        1.0  0.02760  0.21600  0.00000  1.0000
  O   O3        1.0  0.97200  0.78400  0.00000  1.0000
  O   O4        1.0  0.21600  0.97200  0.00000  1.0000
  O   O5        1.0  0.44100  0.40400  0.16600  1.0000
  O   O6        1.0  0.76200  0.44100  0.16600  1.0000
  O   O7        1.0  0.40400  0.72500  0.16600  1.0000
  O   O8        1.0  0.72500  0.76200  0.16600  1.0000
  O   O9        1.0  0.61800  0.11800  0.23600  1.0000
  O   O10       1.0  0.11800  0.61800  0.23600  1.0000
  O   O11       1.0  0.66300  0.49800  0.49400  1.0000
  O   O12       1.0  0.99600  0.66300  0.49400  1.0000
  O   O13       1.0  0.49800  0.83000  0.49400  1.0000
  O   O14       1.0  0.83000  0.99600  0.49400  1.0000
  O   O15       1.0  0.17000  0.00424  0.50600  1.0000
  O   O16       1.0  0.50200  0.17000  0.50600  1.0000
  O   O17       1.0  0.00424  0.33700  0.50600  1.0000
  O   O18       1.0  0.33700  0.50200  0.50600  1.0000
  O   O19       1.0  0.88200  0.38200  0.76400  1.0000
  O   O20       1.0  0.38200  0.88200  0.76400  1.0000
  O   O21       1.0  0.27500  0.23800  0.83400  1.0000
  O   O22       1.0  0.59600  0.27500  0.83400  1.0000
  O   O23       1.0  0.23800  0.55900  0.83400  1.0000
  O   O24       1.0  0.55900  0.59600  0.83400  1.0000
