data_image0
_chemical_formula_structural       Br3CsGe
_chemical_formula_sum              "Br3 Cs1 Ge1"
_cell_length_a       5.71115
_cell_length_b       5.71114
_cell_length_c       5.71115
_cell_angle_alpha    88.8488
_cell_angle_beta     88.8488
_cell_angle_gamma    88.8488

_space_group_name_H-M_alt    "P 1"
_space_group_IT_number       1

loop_
  _space_group_symop_operation_xyz
  'x, y, z'

loop_
  _atom_site_type_symbol
  _atom_site_label
  _atom_site_symmetry_multiplicity
  _atom_site_fract_x
  _atom_site_fract_y
  _atom_site_fract_z
  _atom_site_occupancy
  Br  Br1       1.0  0.50200  0.50200  0.02490  1.0000
  Br  Br2       1.0  0.02490  0.50200  0.50200  1.0000
  Br  Br3       1.0  0.50200  0.02490  0.50200  1.0000
  Cs  Cs1       1.0  0.00000  1.00000  1.00000  1.0000
  Ge  Ge1       1.0  0.47800  0.47800  0.47800  1.0000
