data_image0
_chemical_formula_structural       O26P8Pb6
_chemical_formula_sum              "O26 P8 Pb6"
_cell_length_a       7.77522
_cell_length_b       7.31238
_cell_length_c       10.1561
_cell_angle_alpha    104.176
_cell_angle_beta     101.688
_cell_angle_gamma    94.4287

_space_group_name_H-M_alt    "P 1"
_space_group_IT_number       1

loop_
  _space_group_symop_operation_xyz
  'x, y, z'

loop_
  _atom_site_type_symbol
  _atom_site_label
  _atom_site_symmetry_multiplicity
  _atom_site_fract_x
  _atom_site_fract_y
  _atom_site_fract_z
  _atom_site_occupancy
  O   O1        1.0  0.09600  0.72900  0.00783  1.0000
  O   O2        1.0  0.69200  0.00661  0.01990  1.0000
  O   O3        1.0  0.61000  0.34500  0.05210  1.0000
  O   O4        1.0  0.22100  0.38700  0.10500  1.0000
  O   O5        1.0  0.38200  0.85400  0.18800  1.0000
  O   O6        1.0  0.03900  0.19800  0.21600  1.0000
  O   O7        1.0  0.98200  0.53900  0.22000  1.0000
  O   O8        1.0  0.99100  0.93200  0.31700  1.0000
  O   O9        1.0  0.64300  0.57500  0.33200  1.0000
  O   O10       1.0  0.78000  0.18200  0.34600  1.0000
  O   O11       1.0  0.32400  0.46400  0.41800  1.0000
  O   O12       1.0  0.39100  0.15100  0.46900  1.0000
  O   O13       1.0  0.09040  0.26600  0.48000  1.0000
  O   O14       1.0  0.91000  0.73400  0.52000  1.0000
  O   O15       1.0  0.60900  0.84900  0.53100  1.0000
  O   O16       1.0  0.67600  0.53600  0.58200  1.0000
  O   O17       1.0  0.22000  0.81800  0.65400  1.0000
  O   O18       1.0  0.35700  0.42500  0.66800  1.0000
  O   O19       1.0  0.00909  0.06800  0.68300  1.0000
  O   O20       1.0  0.01760  0.46100  0.78000  1.0000
  O   O21       1.0  0.96100  0.80200  0.78400  1.0000
  O   O22       1.0  0.61800  0.14600  0.81200  1.0000
  O   O23       1.0  0.77900  0.61300  0.89500  1.0000
  O   O24       1.0  0.39000  0.65500  0.94800  1.0000
  O   O25       1.0  0.30800  0.99300  0.98000  1.0000
  O   O26       1.0  0.90400  0.27100  0.99200  1.0000
  P   P1        1.0  0.30500  0.81600  0.03120  1.0000
  P   P2        1.0  0.04170  0.36400  0.13800  1.0000
  P   P3        1.0  0.96400  0.13900  0.33900  1.0000
  P   P4        1.0  0.69500  0.66700  0.48900  1.0000
  P   P5        1.0  0.30500  0.33300  0.51100  1.0000
  P   P6        1.0  0.03610  0.86100  0.66100  1.0000
  P   P7        1.0  0.95800  0.63600  0.86200  1.0000
  P   P8        1.0  0.69500  0.18400  0.96900  1.0000
  Pb  Pb1       1.0  0.72300  0.70100  0.14600  1.0000
  Pb  Pb2       1.0  0.47600  0.24300  0.23100  1.0000
  Pb  Pb3       1.0  0.27000  0.79000  0.38500  1.0000
  Pb  Pb4       1.0  0.73000  0.21000  0.61500  1.0000
  Pb  Pb5       1.0  0.52400  0.75700  0.76900  1.0000
  Pb  Pb6       1.0  0.27700  0.29900  0.85400  1.0000
