data_image0
_chemical_formula_structural       KMo3
_chemical_formula_sum              "K1 Mo3"
_cell_length_a       5.53007
_cell_length_b       5.53007
_cell_length_c       5.53007
_cell_angle_alpha    138.502
_cell_angle_beta     138.502
_cell_angle_gamma    60.1351

_space_group_name_H-M_alt    "P 1"
_space_group_IT_number       1

loop_
  _space_group_symop_operation_xyz
  'x, y, z'

loop_
  _atom_site_type_symbol
  _atom_site_label
  _atom_site_symmetry_multiplicity
  _atom_site_fract_x
  _atom_site_fract_y
  _atom_site_fract_z
  _atom_site_occupancy
  K   K1        1.0  0.00000  0.00000  0.00000  1.0000
  Mo  Mo1       1.0  0.75000  0.25000  0.50000  1.0000
  Mo  Mo2       1.0  0.25000  0.75000  0.50000  1.0000
  Mo  Mo3       1.0  0.50000  0.50000  0.00000  1.0000
