data_image0
_chemical_formula_structural       Cl32I4P4
_chemical_formula_sum              "Cl32 I4 P4"
_cell_length_a       11.9367
_cell_length_b       11.9367
_cell_length_c       11.9367
_cell_angle_alpha    93.2471
_cell_angle_beta     118.502
_cell_angle_gamma    117.786

_space_group_name_H-M_alt    "P 1"
_space_group_IT_number       1

loop_
  _space_group_symop_operation_xyz
  'x, y, z'

loop_
  _atom_site_type_symbol
  _atom_site_label
  _atom_site_symmetry_multiplicity
  _atom_site_fract_x
  _atom_site_fract_y
  _atom_site_fract_z
  _atom_site_occupancy
  Cl  Cl1       1.0  0.94000  0.09600  0.03560  1.0000
  Cl  Cl2       1.0  0.81900  0.57800  0.09360  1.0000
  Cl  Cl3       1.0  0.51600  0.27500  0.09360  1.0000
  Cl  Cl4       1.0  0.36200  0.75000  0.11200  1.0000
  Cl  Cl5       1.0  0.57000  0.59600  0.16500  1.0000
  Cl  Cl6       1.0  0.14600  0.45400  0.19200  1.0000
  Cl  Cl7       1.0  0.73900  0.04610  0.19200  1.0000
  Cl  Cl8       1.0  0.98000  0.89800  0.21500  1.0000
  Cl  Cl9       1.0  0.31700  0.23500  0.21500  1.0000
  Cl  Cl10      1.0  0.48400  0.07800  0.25900  1.0000
  Cl  Cl11      1.0  0.18100  0.77500  0.25900  1.0000
  Cl  Cl12      1.0  0.94000  0.40400  0.34400  1.0000
  Cl  Cl13      1.0  0.02020  0.73500  0.41800  1.0000
  Cl  Cl14      1.0  0.68300  0.39800  0.41800  1.0000
  Cl  Cl15      1.0  0.22300  0.25000  0.47300  1.0000
  Cl  Cl16      1.0  0.57000  0.90400  0.47400  1.0000
  Cl  Cl17      1.0  0.43000  0.09600  0.52600  1.0000
  Cl  Cl18      1.0  0.77700  0.75000  0.52700  1.0000
  Cl  Cl19      1.0  0.98000  0.26500  0.58200  1.0000
  Cl  Cl20      1.0  0.31700  0.60200  0.58200  1.0000
  Cl  Cl21      1.0  0.06040  0.59600  0.65600  1.0000
  Cl  Cl22      1.0  0.51600  0.92200  0.74100  1.0000
  Cl  Cl23      1.0  0.81900  0.22500  0.74100  1.0000
  Cl  Cl24      1.0  0.02020  0.10200  0.78500  1.0000
  Cl  Cl25      1.0  0.68300  0.76500  0.78500  1.0000
  Cl  Cl26      1.0  0.85400  0.54600  0.80800  1.0000
  Cl  Cl27      1.0  0.26100  0.95400  0.80800  1.0000
  Cl  Cl28      1.0  0.43000  0.40400  0.83500  1.0000
  Cl  Cl29      1.0  0.63800  0.25000  0.88800  1.0000
  Cl  Cl30      1.0  0.18100  0.42200  0.90600  1.0000
  Cl  Cl31      1.0  0.48400  0.72500  0.90600  1.0000
  Cl  Cl32      1.0  0.06040  0.90400  0.96400  1.0000
  I   I1        1.0  0.93800  0.25000  0.18800  1.0000
  I   I2        1.0  0.57200  0.75000  0.32200  1.0000
  I   I3        1.0  0.42800  0.25000  0.67800  1.0000
  I   I4        1.0  0.06150  0.75000  0.81200  1.0000
  P   P1        1.0  0.50000  0.24700  0.24700  1.0000
  P   P2        1.0  0.00000  0.74700  0.24700  1.0000
  P   P3        1.0  0.00000  0.25300  0.75300  1.0000
  P   P4        1.0  0.50000  0.75300  0.75300  1.0000
