data_image0
_chemical_formula_structural       H6Pu2
_chemical_formula_sum              "H6 Pu2"
_cell_length_a       3.6805
_cell_length_b       3.68006
_cell_length_c       6.55813
_cell_angle_alpha    90
_cell_angle_beta     90
_cell_angle_gamma    120.004

_space_group_name_H-M_alt    "P 1"
_space_group_IT_number       1

loop_
  _space_group_symop_operation_xyz
  'x, y, z'

loop_
  _atom_site_type_symbol
  _atom_site_label
  _atom_site_symmetry_multiplicity
  _atom_site_fract_x
  _atom_site_fract_y
  _atom_site_fract_z
  _atom_site_occupancy
  H   H1        1.0  0.66700  0.33300  0.09490  1.0000
  H   H2        1.0  0.00001  0.00003  0.25000  1.0000
  H   H3        1.0  0.66700  0.33300  0.40500  1.0000
  H   H4        1.0  0.33300  0.66700  0.59500  1.0000
  H   H5        1.0  0.00000  0.00000  0.75000  1.0000
  H   H6        1.0  0.33300  0.66700  0.90500  1.0000
  Pu  Pu1       1.0  0.33300  0.66700  0.25000  1.0000
  Pu  Pu2       1.0  0.66700  0.33300  0.75000  1.0000
