data_image0
_chemical_formula_structural       In4K12Na8O16
_chemical_formula_sum              "In4 K12 Na8 O16"
_cell_length_a       10.0711
_cell_length_b       9.64461
_cell_length_c       7.26402
_cell_angle_alpha    90
_cell_angle_beta     91.0983
_cell_angle_gamma    90

_space_group_name_H-M_alt    "P 1"
_space_group_IT_number       1

loop_
  _space_group_symop_operation_xyz
  'x, y, z'

loop_
  _atom_site_type_symbol
  _atom_site_label
  _atom_site_symmetry_multiplicity
  _atom_site_fract_x
  _atom_site_fract_y
  _atom_site_fract_z
  _atom_site_occupancy
  In  In1       1.0  0.23100  0.86700  0.02310  1.0000
  In  In2       1.0  0.26900  0.36700  0.47700  1.0000
  In  In3       1.0  0.73100  0.63300  0.52300  1.0000
  In  In4       1.0  0.76900  0.13300  0.97700  1.0000
  K   K1        1.0  0.66500  0.74400  0.10500  1.0000
  K   K2        1.0  0.10300  0.16300  0.17300  1.0000
  K   K3        1.0  0.01610  0.50700  0.23700  1.0000
  K   K4        1.0  0.48400  0.00719  0.26300  1.0000
  K   K5        1.0  0.39700  0.66300  0.32700  1.0000
  K   K6        1.0  0.83500  0.24400  0.39500  1.0000
  K   K7        1.0  0.16500  0.75600  0.60500  1.0000
  K   K8        1.0  0.60300  0.33700  0.67300  1.0000
  K   K9        1.0  0.51600  0.99300  0.73700  1.0000
  K   K10       1.0  0.98400  0.49300  0.76300  1.0000
  K   K11       1.0  0.89700  0.83700  0.82700  1.0000
  K   K12       1.0  0.33500  0.25600  0.89500  1.0000
  Na  Na1       1.0  0.72300  0.43200  0.04050  1.0000
  Na  Na2       1.0  0.99400  0.83400  0.24400  1.0000
  Na  Na3       1.0  0.50600  0.33400  0.25600  1.0000
  Na  Na4       1.0  0.77700  0.93200  0.45900  1.0000
  Na  Na5       1.0  0.22300  0.06790  0.54100  1.0000
  Na  Na6       1.0  0.49400  0.66600  0.74400  1.0000
  Na  Na7       1.0  0.00593  0.16600  0.75600  1.0000
  Na  Na8       1.0  0.27700  0.56800  0.95900  1.0000
  O   O1        1.0  0.90900  0.29600  0.01060  1.0000
  O   O2        1.0  0.57900  0.21400  0.01180  1.0000
  O   O3        1.0  0.81800  0.97400  0.15800  1.0000
  O   O4        1.0  0.28700  0.41700  0.19600  1.0000
  O   O5        1.0  0.21300  0.91700  0.30400  1.0000
  O   O6        1.0  0.68200  0.47400  0.34200  1.0000
  O   O7        1.0  0.92100  0.71400  0.48800  1.0000
  O   O8        1.0  0.59100  0.79600  0.48900  1.0000
  O   O9        1.0  0.40900  0.20400  0.51100  1.0000
  O   O10       1.0  0.07940  0.28600  0.51200  1.0000
  O   O11       1.0  0.31800  0.52600  0.65800  1.0000
  O   O12       1.0  0.78700  0.08320  0.69600  1.0000
  O   O13       1.0  0.71300  0.58300  0.80400  1.0000
  O   O14       1.0  0.18200  0.02620  0.84200  1.0000
  O   O15       1.0  0.42100  0.78600  0.98800  1.0000
  O   O16       1.0  0.09100  0.70400  0.98900  1.0000
