data_image0
_chemical_formula_structural       Ag2As6Cu8O24
_chemical_formula_sum              "Ag2 As6 Cu8 O24"
_cell_length_a       7.24546
_cell_length_b       8.65975
_cell_length_c       8.65975
_cell_angle_alpha    92.2974
_cell_angle_beta     108.752
_cell_angle_gamma    108.752

_space_group_name_H-M_alt    "P 1"
_space_group_IT_number       1

loop_
  _space_group_symop_operation_xyz
  'x, y, z'

loop_
  _atom_site_type_symbol
  _atom_site_label
  _atom_site_symmetry_multiplicity
  _atom_site_fract_x
  _atom_site_fract_y
  _atom_site_fract_z
  _atom_site_occupancy
  Ag  Ag1       1.0  0.25000  0.98900  0.01130  1.0000
  Ag  Ag2       1.0  0.75000  0.01130  0.98900  1.0000
  As  As1       1.0  0.62100  0.34700  0.10800  1.0000
  As  As2       1.0  0.25000  0.72500  0.27500  1.0000
  As  As3       1.0  0.12100  0.10800  0.34700  1.0000
  As  As4       1.0  0.87900  0.89200  0.65300  1.0000
  As  As5       1.0  0.75000  0.27500  0.72500  1.0000
  As  As6       1.0  0.37900  0.65300  0.89200  1.0000
  Cu  Cu1       1.0  0.13900  0.37800  0.06490  1.0000
  Cu  Cu2       1.0  0.75000  0.73600  0.26400  1.0000
  Cu  Cu3       1.0  0.63900  0.06490  0.37800  1.0000
  Cu  Cu4       1.0  0.25000  0.50600  0.49400  1.0000
  Cu  Cu5       1.0  0.75000  0.49400  0.50600  1.0000
  Cu  Cu6       1.0  0.36100  0.93500  0.62200  1.0000
  Cu  Cu7       1.0  0.25000  0.26400  0.73600  1.0000
  Cu  Cu8       1.0  0.86100  0.62200  0.93500  1.0000
  O   O1        1.0  0.62700  0.68500  0.02300  1.0000
  O   O2        1.0  0.81300  0.41300  0.02380  1.0000
  O   O3        1.0  0.02830  0.75500  0.15800  1.0000
  O   O4        1.0  0.12100  0.17200  0.16000  1.0000
  O   O5        1.0  0.62100  0.16000  0.17200  1.0000
  O   O6        1.0  0.47200  0.84200  0.24500  1.0000
  O   O7        1.0  0.67800  0.49700  0.27400  1.0000
  O   O8        1.0  0.24000  0.51600  0.27500  1.0000
  O   O9        1.0  0.87300  0.97700  0.31500  1.0000
  O   O10       1.0  0.31300  0.02380  0.41300  1.0000
  O   O11       1.0  0.26000  0.72500  0.48400  1.0000
  O   O12       1.0  0.17800  0.27400  0.49700  1.0000
  O   O13       1.0  0.82200  0.72600  0.50300  1.0000
  O   O14       1.0  0.74000  0.27500  0.51600  1.0000
  O   O15       1.0  0.68700  0.97600  0.58700  1.0000
  O   O16       1.0  0.12700  0.02300  0.68500  1.0000
  O   O17       1.0  0.76000  0.48400  0.72500  1.0000
  O   O18       1.0  0.32200  0.50300  0.72600  1.0000
  O   O19       1.0  0.52800  0.15800  0.75500  1.0000
  O   O20       1.0  0.37900  0.84000  0.82800  1.0000
  O   O21       1.0  0.87900  0.82800  0.84000  1.0000
  O   O22       1.0  0.97200  0.24500  0.84200  1.0000
  O   O23       1.0  0.18700  0.58700  0.97600  1.0000
  O   O24       1.0  0.37300  0.31500  0.97700  1.0000
