data_image0
_chemical_formula_structural       As6Cu8K2O24
_chemical_formula_sum              "As6 Cu8 K2 O24"
_cell_length_a       7.2801
_cell_length_b       8.71937
_cell_length_c       8.71937
_cell_angle_alpha    91.1846
_cell_angle_beta     109.088
_cell_angle_gamma    109.088

_space_group_name_H-M_alt    "P 1"
_space_group_IT_number       1

loop_
  _space_group_symop_operation_xyz
  'x, y, z'

loop_
  _atom_site_type_symbol
  _atom_site_label
  _atom_site_symmetry_multiplicity
  _atom_site_fract_x
  _atom_site_fract_y
  _atom_site_fract_z
  _atom_site_occupancy
  As  As1       1.0  0.62500  0.35300  0.11300  1.0000
  As  As2       1.0  0.25000  0.72500  0.27500  1.0000
  As  As3       1.0  0.12500  0.11300  0.35300  1.0000
  As  As4       1.0  0.87500  0.88700  0.64700  1.0000
  As  As5       1.0  0.75000  0.27500  0.72500  1.0000
  As  As6       1.0  0.37500  0.64700  0.88700  1.0000
  Cu  Cu1       1.0  0.14300  0.38100  0.06870  1.0000
  Cu  Cu2       1.0  0.75000  0.73800  0.26200  1.0000
  Cu  Cu3       1.0  0.64300  0.06870  0.38100  1.0000
  Cu  Cu4       1.0  0.25000  0.50500  0.49500  1.0000
  Cu  Cu5       1.0  0.75000  0.49500  0.50500  1.0000
  Cu  Cu6       1.0  0.35700  0.93100  0.61900  1.0000
  Cu  Cu7       1.0  0.25000  0.26200  0.73800  1.0000
  Cu  Cu8       1.0  0.85700  0.61900  0.93100  1.0000
  K   K1        1.0  0.25000  0.98900  0.01090  1.0000
  K   K2        1.0  0.75000  0.01090  0.98900  1.0000
  O   O1        1.0  0.62400  0.68400  0.02060  1.0000
  O   O2        1.0  0.81100  0.41500  0.02320  1.0000
  O   O3        1.0  0.02870  0.75300  0.15500  1.0000
  O   O4        1.0  0.14100  0.18700  0.17600  1.0000
  O   O5        1.0  0.64100  0.17600  0.18700  1.0000
  O   O6        1.0  0.47100  0.84500  0.24700  1.0000
  O   O7        1.0  0.67800  0.50300  0.27400  1.0000
  O   O8        1.0  0.23900  0.51800  0.27600  1.0000
  O   O9        1.0  0.87600  0.97900  0.31600  1.0000
  O   O10       1.0  0.31100  0.02320  0.41500  1.0000
  O   O11       1.0  0.26100  0.72400  0.48200  1.0000
  O   O12       1.0  0.82200  0.72600  0.49700  1.0000
  O   O13       1.0  0.17800  0.27400  0.50300  1.0000
  O   O14       1.0  0.73900  0.27600  0.51800  1.0000
  O   O15       1.0  0.68900  0.97700  0.58500  1.0000
  O   O16       1.0  0.12400  0.02060  0.68400  1.0000
  O   O17       1.0  0.76100  0.48200  0.72400  1.0000
  O   O18       1.0  0.32200  0.49700  0.72600  1.0000
  O   O19       1.0  0.52900  0.15500  0.75300  1.0000
  O   O20       1.0  0.35900  0.82400  0.81300  1.0000
  O   O21       1.0  0.85900  0.81300  0.82400  1.0000
  O   O22       1.0  0.97100  0.24700  0.84500  1.0000
  O   O23       1.0  0.18900  0.58500  0.97700  1.0000
  O   O24       1.0  0.37600  0.31600  0.97900  1.0000
