data_image0
_chemical_formula_structural       Bi2Te3
_chemical_formula_sum              "Bi2 Te3"
_cell_length_a       4.44649
_cell_length_b       4.44649
_cell_length_c       10.1745
_cell_angle_alpha    90
_cell_angle_beta     102.622
_cell_angle_gamma    120

_space_group_name_H-M_alt    "P 1"
_space_group_IT_number       1

loop_
  _space_group_symop_operation_xyz
  'x, y, z'

loop_
  _atom_site_type_symbol
  _atom_site_label
  _atom_site_symmetry_multiplicity
  _atom_site_fract_x
  _atom_site_fract_y
  _atom_site_fract_z
  _atom_site_occupancy
  Bi  Bi1       1.0  0.38200  0.19100  0.57300  1.0000
  Bi  Bi2       1.0  0.19800  0.59900  0.79700  1.0000
  Te  Te1       1.0  0.98800  0.99400  0.98200  1.0000
  Te  Te2       1.0  0.78900  0.39500  0.18400  1.0000
  Te  Te3       1.0  0.59300  0.79600  0.38900  1.0000
