data_image0
_chemical_formula_structural       In4K8Na12O16
_chemical_formula_sum              "In4 K8 Na12 O16"
_cell_length_a       9.48451
_cell_length_b       9.21588
_cell_length_c       7.55341
_cell_angle_alpha    90
_cell_angle_beta     90
_cell_angle_gamma    90

_space_group_name_H-M_alt    "P 1"
_space_group_IT_number       1

loop_
  _space_group_symop_operation_xyz
  'x, y, z'

loop_
  _atom_site_type_symbol
  _atom_site_label
  _atom_site_symmetry_multiplicity
  _atom_site_fract_x
  _atom_site_fract_y
  _atom_site_fract_z
  _atom_site_occupancy
  In  In1       1.0  0.62900  0.27200  0.00000  1.0000
  In  In2       1.0  0.37100  0.72800  0.00000  1.0000
  In  In3       1.0  0.12900  0.22800  0.50000  1.0000
  In  In4       1.0  0.87100  0.77200  0.50000  1.0000
  K   K1        1.0  0.26400  0.23200  0.00000  1.0000
  K   K2        1.0  0.73600  0.76800  0.00000  1.0000
  K   K3        1.0  0.00000  0.50000  0.24500  1.0000
  K   K4        1.0  0.50000  0.00000  0.25500  1.0000
  K   K5        1.0  0.76400  0.26800  0.50000  1.0000
  K   K6        1.0  0.23600  0.73200  0.50000  1.0000
  K   K7        1.0  0.50000  0.00000  0.74500  1.0000
  K   K8        1.0  0.00000  0.50000  0.75500  1.0000
  Na  Na1       1.0  0.92700  0.23800  0.00000  1.0000
  Na  Na2       1.0  0.07320  0.76200  0.00000  1.0000
  Na  Na3       1.0  0.34900  0.48200  0.24800  1.0000
  Na  Na4       1.0  0.65100  0.51800  0.24800  1.0000
  Na  Na5       1.0  0.84900  0.01830  0.25200  1.0000
  Na  Na6       1.0  0.15100  0.98200  0.25200  1.0000
  Na  Na7       1.0  0.42700  0.26200  0.50000  1.0000
  Na  Na8       1.0  0.57300  0.73800  0.50000  1.0000
  Na  Na9       1.0  0.84900  0.01830  0.74800  1.0000
  Na  Na10      1.0  0.15100  0.98200  0.74800  1.0000
  Na  Na11      1.0  0.34900  0.48200  0.75200  1.0000
  Na  Na12      1.0  0.65100  0.51800  0.75200  1.0000
  O   O1        1.0  0.72300  0.06580  0.00000  1.0000
  O   O2        1.0  0.78000  0.44400  0.00000  1.0000
  O   O3        1.0  0.22000  0.55600  0.00000  1.0000
  O   O4        1.0  0.27700  0.93400  0.00000  1.0000
  O   O5        1.0  0.51700  0.30000  0.23400  1.0000
  O   O6        1.0  0.48300  0.70000  0.23400  1.0000
  O   O7        1.0  0.01710  0.20000  0.26600  1.0000
  O   O8        1.0  0.98300  0.80000  0.26600  1.0000
  O   O9        1.0  0.28000  0.05580  0.50000  1.0000
  O   O10       1.0  0.22300  0.43400  0.50000  1.0000
  O   O11       1.0  0.77700  0.56600  0.50000  1.0000
  O   O12       1.0  0.72000  0.94400  0.50000  1.0000
  O   O13       1.0  0.01710  0.20000  0.73400  1.0000
  O   O14       1.0  0.98300  0.80000  0.73400  1.0000
  O   O15       1.0  0.51700  0.30000  0.76600  1.0000
  O   O16       1.0  0.48300  0.70000  0.76600  1.0000
