data_image0
_chemical_formula_structural       Cd4O28S8
_chemical_formula_sum              "Cd4 O28 S8"
_cell_length_a       5.04714
_cell_length_b       12.7986
_cell_length_c       8.06777
_cell_angle_alpha    90
_cell_angle_beta     92.1891
_cell_angle_gamma    90

_space_group_name_H-M_alt    "P 1"
_space_group_IT_number       1

loop_
  _space_group_symop_operation_xyz
  'x, y, z'

loop_
  _atom_site_type_symbol
  _atom_site_label
  _atom_site_symmetry_multiplicity
  _atom_site_fract_x
  _atom_site_fract_y
  _atom_site_fract_z
  _atom_site_occupancy
  Cd  Cd1       1.0  0.31700  0.15700  0.16500  1.0000
  Cd  Cd2       1.0  0.18300  0.65700  0.33500  1.0000
  Cd  Cd3       1.0  0.81700  0.34300  0.66500  1.0000
  Cd  Cd4       1.0  0.68300  0.84300  0.83500  1.0000
  O   O1        1.0  0.54500  0.29600  0.06270  1.0000
  O   O2        1.0  0.03180  0.66900  0.06860  1.0000
  O   O3        1.0  0.86800  0.88700  0.08920  1.0000
  O   O4        1.0  0.67800  0.06110  0.11800  1.0000
  O   O5        1.0  0.83500  0.44300  0.14900  1.0000
  O   O6        1.0  0.96800  0.26200  0.21100  1.0000
  O   O7        1.0  0.40800  0.51500  0.23200  1.0000
  O   O8        1.0  0.09150  0.01470  0.26800  1.0000
  O   O9        1.0  0.53200  0.76200  0.28900  1.0000
  O   O10       1.0  0.66500  0.94300  0.35100  1.0000
  O   O11       1.0  0.82200  0.56100  0.38200  1.0000
  O   O12       1.0  0.63200  0.38700  0.41100  1.0000
  O   O13       1.0  0.46800  0.16900  0.43100  1.0000
  O   O14       1.0  0.95500  0.79600  0.43700  1.0000
  O   O15       1.0  0.04500  0.20400  0.56300  1.0000
  O   O16       1.0  0.53200  0.83100  0.56900  1.0000
  O   O17       1.0  0.36800  0.61300  0.58900  1.0000
  O   O18       1.0  0.17800  0.43900  0.61800  1.0000
  O   O19       1.0  0.33500  0.05680  0.64900  1.0000
  O   O20       1.0  0.46800  0.23800  0.71100  1.0000
  O   O21       1.0  0.90800  0.98500  0.73200  1.0000
  O   O22       1.0  0.59200  0.48500  0.76800  1.0000
  O   O23       1.0  0.03240  0.73800  0.78900  1.0000
  O   O24       1.0  0.16500  0.55700  0.85100  1.0000
  O   O25       1.0  0.32200  0.93900  0.88200  1.0000
  O   O26       1.0  0.13200  0.11300  0.91100  1.0000
  O   O27       1.0  0.96800  0.33100  0.93100  1.0000
  O   O28       1.0  0.45500  0.70400  0.93700  1.0000
  S   S1        1.0  0.82500  0.32200  0.08320  1.0000
  S   S2        1.0  0.84100  0.97900  0.19400  1.0000
  S   S3        1.0  0.65900  0.47900  0.30600  1.0000
  S   S4        1.0  0.67500  0.82200  0.41700  1.0000
  S   S5        1.0  0.32500  0.17800  0.58300  1.0000
  S   S6        1.0  0.34100  0.52100  0.69400  1.0000
  S   S7        1.0  0.15900  0.02080  0.80600  1.0000
  S   S8        1.0  0.17500  0.67800  0.91700  1.0000
