data_image0
_chemical_formula_structural       F16H8O8P8
_chemical_formula_sum              "F16 H8 O8 P8"
_cell_length_a       13.4683
_cell_length_b       5.55483
_cell_length_c       5.86743
_cell_angle_alpha    90
_cell_angle_beta     90
_cell_angle_gamma    90

_space_group_name_H-M_alt    "P 1"
_space_group_IT_number       1

loop_
  _space_group_symop_operation_xyz
  'x, y, z'

loop_
  _atom_site_type_symbol
  _atom_site_label
  _atom_site_symmetry_multiplicity
  _atom_site_fract_x
  _atom_site_fract_y
  _atom_site_fract_z
  _atom_site_occupancy
  F   F1        1.0  0.09920  0.38500  0.00912  1.0000
  F   F2        1.0  0.40100  0.88500  0.00912  1.0000
  F   F3        1.0  0.95400  0.15200  0.20200  1.0000
  F   F4        1.0  0.54600  0.65200  0.20200  1.0000
  F   F5        1.0  0.45400  0.15200  0.29800  1.0000
  F   F6        1.0  0.04640  0.65200  0.29800  1.0000
  F   F7        1.0  0.59900  0.38500  0.49100  1.0000
  F   F8        1.0  0.90100  0.88500  0.49100  1.0000
  F   F9        1.0  0.09920  0.11500  0.50900  1.0000
  F   F10       1.0  0.40100  0.61500  0.50900  1.0000
  F   F11       1.0  0.95400  0.34800  0.70200  1.0000
  F   F12       1.0  0.54600  0.84800  0.70200  1.0000
  F   F13       1.0  0.45400  0.34800  0.79800  1.0000
  F   F14       1.0  0.04640  0.84800  0.79800  1.0000
  F   F15       1.0  0.59900  0.11500  0.99100  1.0000
  F   F16       1.0  0.90100  0.61500  0.99100  1.0000
  H   H1        1.0  0.68500  0.40600  0.14300  1.0000
  H   H2        1.0  0.81500  0.90600  0.14300  1.0000
  H   H3        1.0  0.18500  0.40600  0.35700  1.0000
  H   H4        1.0  0.31500  0.90600  0.35700  1.0000
  H   H5        1.0  0.68500  0.09390  0.64300  1.0000
  H   H6        1.0  0.81500  0.59400  0.64300  1.0000
  H   H7        1.0  0.18500  0.09390  0.85700  1.0000
  H   H8        1.0  0.31500  0.59400  0.85700  1.0000
  O   O1        1.0  0.29400  0.24500  0.08320  1.0000
  O   O2        1.0  0.20600  0.74500  0.08320  1.0000
  O   O3        1.0  0.79400  0.24500  0.41700  1.0000
  O   O4        1.0  0.70600  0.74500  0.41700  1.0000
  O   O5        1.0  0.29400  0.25500  0.58300  1.0000
  O   O6        1.0  0.20600  0.75500  0.58300  1.0000
  O   O7        1.0  0.79400  0.25500  0.91700  1.0000
  O   O8        1.0  0.70600  0.75500  0.91700  1.0000
  P   P1        1.0  0.35500  0.05660  0.19300  1.0000
  P   P2        1.0  0.14500  0.55700  0.19300  1.0000
  P   P3        1.0  0.85500  0.05660  0.30700  1.0000
  P   P4        1.0  0.64500  0.55700  0.30700  1.0000
  P   P5        1.0  0.35500  0.44300  0.69300  1.0000
  P   P6        1.0  0.14500  0.94300  0.69300  1.0000
  P   P7        1.0  0.85500  0.44300  0.80700  1.0000
  P   P8        1.0  0.64500  0.94300  0.80700  1.0000
