data_image0
_chemical_formula_structural       C4Ce4Na4O24Si2Ti2
_chemical_formula_sum              "C4 Ce4 Na4 O24 Si2 Ti2"
_cell_length_a       7.55598
_cell_length_b       13.7755
_cell_length_c       5.01801
_cell_angle_alpha    100.091
_cell_angle_beta     70.8384
_cell_angle_gamma    100.395

_space_group_name_H-M_alt    "P 1"
_space_group_IT_number       1

loop_
  _space_group_symop_operation_xyz
  'x, y, z'

loop_
  _atom_site_type_symbol
  _atom_site_label
  _atom_site_symmetry_multiplicity
  _atom_site_fract_x
  _atom_site_fract_y
  _atom_site_fract_z
  _atom_site_occupancy
  C   C1        1.0  0.60800  0.64900  0.06190  1.0000
  C   C2        1.0  0.79200  0.35800  0.23800  1.0000
  C   C3        1.0  0.20800  0.64200  0.76200  1.0000
  C   C4        1.0  0.39200  0.35100  0.93800  1.0000
  Ce  Ce1       1.0  0.22200  0.77500  0.31100  1.0000
  Ce  Ce2       1.0  0.34100  0.22200  0.40200  1.0000
  Ce  Ce3       1.0  0.65900  0.77800  0.59800  1.0000
  Ce  Ce4       1.0  0.77800  0.22500  0.68900  1.0000
  Na  Na1       1.0  0.13000  0.47000  0.18200  1.0000
  Na  Na2       1.0  0.50000  0.50000  0.50000  1.0000
  Na  Na3       1.0  0.00000  0.00000  0.50000  1.0000
  Na  Na4       1.0  0.87000  0.53000  0.81800  1.0000
  O   O1        1.0  0.12400  0.61500  0.01040  1.0000
  O   O2        1.0  0.40800  0.91500  0.06610  1.0000
  O   O3        1.0  0.20400  0.08330  0.09210  1.0000
  O   O4        1.0  0.55100  0.73800  0.13600  1.0000
  O   O5        1.0  0.39900  0.39900  0.17700  1.0000
  O   O6        1.0  0.67600  0.61900  0.23100  1.0000
  O   O7        1.0  0.96000  0.84300  0.23200  1.0000
  O   O8        1.0  0.69100  0.26900  0.25000  1.0000
  O   O9        1.0  0.83600  0.08550  0.27800  1.0000
  O   O10       1.0  0.06460  0.25000  0.28700  1.0000
  O   O11       1.0  0.80600  0.41000  0.46900  1.0000
  O   O12       1.0  0.55400  0.91800  0.49700  1.0000
  O   O13       1.0  0.44600  0.08220  0.50300  1.0000
  O   O14       1.0  0.19400  0.59000  0.53100  1.0000
  O   O15       1.0  0.93500  0.75000  0.71300  1.0000
  O   O16       1.0  0.16400  0.91400  0.72200  1.0000
  O   O17       1.0  0.30900  0.73100  0.75000  1.0000
  O   O18       1.0  0.04050  0.15700  0.76800  1.0000
  O   O19       1.0  0.32400  0.38100  0.76900  1.0000
  O   O20       1.0  0.60100  0.60100  0.82300  1.0000
  O   O21       1.0  0.44900  0.26200  0.86400  1.0000
  O   O22       1.0  0.79600  0.91700  0.90800  1.0000
  O   O23       1.0  0.59200  0.08450  0.93400  1.0000
  O   O24       1.0  0.87600  0.38500  0.99000  1.0000
  Si  Si1       1.0  0.03620  0.14400  0.08600  1.0000
  Si  Si2       1.0  0.96400  0.85600  0.91400  1.0000
  Ti  Ti1       1.0  0.60800  1.00000  0.19600  1.0000
  Ti  Ti2       1.0  0.39200  0.00012  0.80400  1.0000
