data_image0
_chemical_formula_structural       Cl8F8O16S8
_chemical_formula_sum              "Cl8 F8 O16 S8"
_cell_length_a       10.378
_cell_length_b       7.29917
_cell_length_c       8.59777
_cell_angle_alpha    90
_cell_angle_beta     90
_cell_angle_gamma    90

_space_group_name_H-M_alt    "P 1"
_space_group_IT_number       1

loop_
  _space_group_symop_operation_xyz
  'x, y, z'

loop_
  _atom_site_type_symbol
  _atom_site_label
  _atom_site_symmetry_multiplicity
  _atom_site_fract_x
  _atom_site_fract_y
  _atom_site_fract_z
  _atom_site_occupancy
  Cl  Cl1       1.0  0.18600  0.00552  0.35500  1.0000
  Cl  Cl2       1.0  0.68600  0.99400  0.35500  1.0000
  Cl  Cl3       1.0  0.43200  0.48600  0.43300  1.0000
  Cl  Cl4       1.0  0.93200  0.51400  0.43300  1.0000
  Cl  Cl5       1.0  0.31400  0.00552  0.85500  1.0000
  Cl  Cl6       1.0  0.81400  0.99400  0.85500  1.0000
  Cl  Cl7       1.0  0.06850  0.48600  0.93300  1.0000
  Cl  Cl8       1.0  0.56800  0.51400  0.93300  1.0000
  F   F1        1.0  0.29600  0.36300  0.05170  1.0000
  F   F2        1.0  0.79600  0.63700  0.05170  1.0000
  F   F3        1.0  0.95700  0.14400  0.25700  1.0000
  F   F4        1.0  0.45700  0.85600  0.25700  1.0000
  F   F5        1.0  0.20400  0.36300  0.55200  1.0000
  F   F6        1.0  0.70400  0.63700  0.55200  1.0000
  F   F7        1.0  0.54300  0.14400  0.75700  1.0000
  F   F8        1.0  0.04270  0.85600  0.75700  1.0000
  O   O1        1.0  0.10300  0.06640  0.04950  1.0000
  O   O2        1.0  0.60300  0.93400  0.04950  1.0000
  O   O3        1.0  0.76200  0.31300  0.08370  1.0000
  O   O4        1.0  0.26200  0.68700  0.08370  1.0000
  O   O5        1.0  0.48600  0.17600  0.19700  1.0000
  O   O6        1.0  0.98600  0.82400  0.19700  1.0000
  O   O7        1.0  0.14300  0.45800  0.24500  1.0000
  O   O8        1.0  0.64300  0.54200  0.24500  1.0000
  O   O9        1.0  0.39700  0.06640  0.54900  1.0000
  O   O10       1.0  0.89700  0.93400  0.54900  1.0000
  O   O11       1.0  0.73800  0.31300  0.58400  1.0000
  O   O12       1.0  0.23800  0.68700  0.58400  1.0000
  O   O13       1.0  0.01390  0.17600  0.69700  1.0000
  O   O14       1.0  0.51400  0.82400  0.69700  1.0000
  O   O15       1.0  0.35700  0.45800  0.74500  1.0000
  O   O16       1.0  0.85700  0.54200  0.74500  1.0000
  S   S1        1.0  0.69700  0.48300  0.10000  1.0000
  S   S2        1.0  0.19700  0.51700  0.10000  1.0000
  S   S3        1.0  0.55300  0.00617  0.19100  1.0000
  S   S4        1.0  0.05280  0.99400  0.19100  1.0000
  S   S5        1.0  0.80300  0.48300  0.60000  1.0000
  S   S6        1.0  0.30300  0.51700  0.60000  1.0000
  S   S7        1.0  0.94700  0.00617  0.69100  1.0000
  S   S8        1.0  0.44700  0.99400  0.69100  1.0000
