data_image0
_chemical_formula_structural       F20O8Sb12
_chemical_formula_sum              "F20 O8 Sb12"
_cell_length_a       12.8602
_cell_length_b       5.67149
_cell_length_c       8.60649
_cell_angle_alpha    90
_cell_angle_beta     107.483
_cell_angle_gamma    90

_space_group_name_H-M_alt    "P 1"
_space_group_IT_number       1

loop_
  _space_group_symop_operation_xyz
  'x, y, z'

loop_
  _atom_site_type_symbol
  _atom_site_label
  _atom_site_symmetry_multiplicity
  _atom_site_fract_x
  _atom_site_fract_y
  _atom_site_fract_z
  _atom_site_occupancy
  F   F1        1.0  0.21300  0.43900  0.03430  1.0000
  F   F2        1.0  0.35400  0.75500  0.07090  1.0000
  F   F3        1.0  0.45700  0.25900  0.07500  1.0000
  F   F4        1.0  0.65300  0.11500  0.22300  1.0000
  F   F5        1.0  0.85000  0.78900  0.24500  1.0000
  F   F6        1.0  0.15000  0.78900  0.25500  1.0000
  F   F7        1.0  0.34700  0.11500  0.27700  1.0000
  F   F8        1.0  0.54300  0.25900  0.42500  1.0000
  F   F9        1.0  0.64600  0.75500  0.42900  1.0000
  F   F10       1.0  0.78700  0.43900  0.46600  1.0000
  F   F11       1.0  0.21300  0.56100  0.53400  1.0000
  F   F12       1.0  0.35400  0.24500  0.57100  1.0000
  F   F13       1.0  0.45700  0.74100  0.57500  1.0000
  F   F14       1.0  0.65300  0.88500  0.72300  1.0000
  F   F15       1.0  0.85000  0.21100  0.74500  1.0000
  F   F16       1.0  0.15000  0.21100  0.75500  1.0000
  F   F17       1.0  0.34700  0.88500  0.77700  1.0000
  F   F18       1.0  0.54300  0.74100  0.92500  1.0000
  F   F19       1.0  0.64600  0.24500  0.92900  1.0000
  F   F20       1.0  0.78700  0.56100  0.96600  1.0000
  O   O1        1.0  0.99400  0.19300  0.06060  1.0000
  O   O2        1.0  0.83900  0.26400  0.20800  1.0000
  O   O3        1.0  0.16100  0.26400  0.29200  1.0000
  O   O4        1.0  0.00568  0.19300  0.43900  1.0000
  O   O5        1.0  0.99400  0.80700  0.56100  1.0000
  O   O6        1.0  0.83900  0.73600  0.70800  1.0000
  O   O7        1.0  0.16100  0.73600  0.79200  1.0000
  O   O8        1.0  0.00568  0.80700  0.93900  1.0000
  Sb  Sb1       1.0  0.14300  0.03640  0.07920  1.0000
  Sb  Sb2       1.0  0.70300  0.45600  0.12300  1.0000
  Sb  Sb3       1.0  0.00000  0.41500  0.25000  1.0000
  Sb  Sb4       1.0  0.50000  0.01470  0.25000  1.0000
  Sb  Sb5       1.0  0.29700  0.45600  0.37700  1.0000
  Sb  Sb6       1.0  0.85700  0.03640  0.42100  1.0000
  Sb  Sb7       1.0  0.14300  0.96400  0.57900  1.0000
  Sb  Sb8       1.0  0.70300  0.54400  0.62300  1.0000
  Sb  Sb9       1.0  0.00000  0.58500  0.75000  1.0000
  Sb  Sb10      1.0  0.50000  0.98500  0.75000  1.0000
  Sb  Sb11      1.0  0.29700  0.54400  0.87700  1.0000
  Sb  Sb12      1.0  0.85700  0.96400  0.92100  1.0000
