data_image0
_chemical_formula_structural       Mg4Pt2Si2
_chemical_formula_sum              "Mg4 Pt2 Si2"
_cell_length_a       4.30061
_cell_length_b       4.3006
_cell_length_c       8.54368
_cell_angle_alpha    90
_cell_angle_beta     90
_cell_angle_gamma    120

_space_group_name_H-M_alt    "P 1"
_space_group_IT_number       1

loop_
  _space_group_symop_operation_xyz
  'x, y, z'

loop_
  _atom_site_type_symbol
  _atom_site_label
  _atom_site_symmetry_multiplicity
  _atom_site_fract_x
  _atom_site_fract_y
  _atom_site_fract_z
  _atom_site_occupancy
  Mg  Mg1       1.0  0.66700  0.33300  0.08360  1.0000
  Mg  Mg2       1.0  0.66700  0.33300  0.41600  1.0000
  Mg  Mg3       1.0  0.33300  0.66700  0.58400  1.0000
  Mg  Mg4       1.0  0.33300  0.66700  0.91600  1.0000
  Pt  Pt1       1.0  0.33300  0.66700  0.25000  1.0000
  Pt  Pt2       1.0  0.66700  0.33300  0.75000  1.0000
  Si  Si1       1.0  0.00000  0.00000  0.25000  1.0000
  Si  Si2       1.0  0.00000  0.00000  0.75000  1.0000
