data_image0
_chemical_formula_structural       I32Te8
_chemical_formula_sum              "I32 Te8"
_cell_length_a       12.0531
_cell_length_b       13.6431
_cell_length_c       13.6431
_cell_angle_alpha    101.252
_cell_angle_beta     116.214
_cell_angle_gamma    63.7856

_space_group_name_H-M_alt    "P 1"
_space_group_IT_number       1

loop_
  _space_group_symop_operation_xyz
  'x, y, z'

loop_
  _atom_site_type_symbol
  _atom_site_label
  _atom_site_symmetry_multiplicity
  _atom_site_fract_x
  _atom_site_fract_y
  _atom_site_fract_z
  _atom_site_occupancy
  I   I1        1.0  0.00000  0.87600  0.12400  1.0000
  I   I2        1.0  0.12400  0.12400  0.12400  1.0000
  I   I3        1.0  0.24500  0.36800  0.12500  1.0000
  I   I4        1.0  0.88100  0.63200  0.12500  1.0000
  I   I5        1.0  0.62600  0.12600  0.12600  1.0000
  I   I6        1.0  0.50000  0.87400  0.12600  1.0000
  I   I7        1.0  0.76300  0.37500  0.13200  1.0000
  I   I8        1.0  0.36900  0.62500  0.13200  1.0000
  I   I9        1.0  0.48700  0.12500  0.36800  1.0000
  I   I10       1.0  0.88100  0.87500  0.36800  1.0000
  I   I11       1.0  0.62400  0.37400  0.37400  1.0000
  I   I12       1.0  0.75000  0.62600  0.37400  1.0000
  I   I13       1.0  0.00517  0.13200  0.37500  1.0000
  I   I14       1.0  0.36900  0.86800  0.37500  1.0000
  I   I15       1.0  0.25000  0.62400  0.37600  1.0000
  I   I16       1.0  0.12600  0.37600  0.37600  1.0000
  I   I17       1.0  0.49800  0.37600  0.62400  1.0000
  I   I18       1.0  0.12600  0.62400  0.62400  1.0000
  I   I19       1.0  0.86200  0.13200  0.62500  1.0000
  I   I20       1.0  0.76300  0.86800  0.62500  1.0000
  I   I21       1.0  0.00183  0.37400  0.62600  1.0000
  I   I22       1.0  0.62400  0.62600  0.62600  1.0000
  I   I23       1.0  0.38800  0.12500  0.63200  1.0000
  I   I24       1.0  0.24500  0.87500  0.63200  1.0000
  I   I25       1.0  0.00517  0.62500  0.86800  1.0000
  I   I26       1.0  0.86200  0.37500  0.86800  1.0000
  I   I27       1.0  0.24800  0.12600  0.87400  1.0000
  I   I28       1.0  0.62600  0.87400  0.87400  1.0000
  I   I29       1.0  0.48700  0.63200  0.87500  1.0000
  I   I30       1.0  0.38800  0.36800  0.87500  1.0000
  I   I31       1.0  0.75200  0.12400  0.87600  1.0000
  I   I32       1.0  0.12400  0.87600  0.87600  1.0000
  Te  Te1       1.0  0.78300  0.86100  0.13900  1.0000
  Te  Te2       1.0  0.35600  0.13900  0.13900  1.0000
  Te  Te3       1.0  0.46700  0.63900  0.36100  1.0000
  Te  Te4       1.0  0.89400  0.36100  0.36100  1.0000
  Te  Te5       1.0  0.74400  0.36100  0.63900  1.0000
  Te  Te6       1.0  0.89400  0.63900  0.63900  1.0000
  Te  Te7       1.0  0.35600  0.86100  0.86100  1.0000
  Te  Te8       1.0  0.50600  0.13900  0.86100  1.0000
