data_image0
_chemical_formula_structural       O24Sb10Sm6
_chemical_formula_sum              "O24 Sb10 Sm6"
_cell_length_a       9.43609
_cell_length_b       9.43609
_cell_length_c       9.43609
_cell_angle_alpha    109.471
_cell_angle_beta     109.471
_cell_angle_gamma    109.471

_space_group_name_H-M_alt    "P 1"
_space_group_IT_number       1

loop_
  _space_group_symop_operation_xyz
  'x, y, z'

loop_
  _atom_site_type_symbol
  _atom_site_label
  _atom_site_symmetry_multiplicity
  _atom_site_fract_x
  _atom_site_fract_y
  _atom_site_fract_z
  _atom_site_occupancy
  O   O1        1.0  0.49100  0.28900  0.00000  1.0000
  O   O2        1.0  0.28900  0.49100  0.00000  1.0000
  O   O3        1.0  0.80100  0.52500  0.00000  1.0000
  O   O4        1.0  0.52500  0.80100  0.00000  1.0000
  O   O5        1.0  0.72400  0.19900  0.19900  1.0000
  O   O6        1.0  0.19900  0.72400  0.19900  1.0000
  O   O7        1.0  0.71100  0.71100  0.20200  1.0000
  O   O8        1.0  0.47500  0.47500  0.27600  1.0000
  O   O9        1.0  0.49100  0.00000  0.28900  1.0000
  O   O10       1.0  0.00000  0.49100  0.28900  1.0000
  O   O11       1.0  0.47500  0.27600  0.47500  1.0000
  O   O12       1.0  0.27600  0.47500  0.47500  1.0000
  O   O13       1.0  0.28900  0.00000  0.49100  1.0000
  O   O14       1.0  0.00000  0.28900  0.49100  1.0000
  O   O15       1.0  0.79800  0.50900  0.50900  1.0000
  O   O16       1.0  0.50900  0.79800  0.50900  1.0000
  O   O17       1.0  0.80100  0.00000  0.52500  1.0000
  O   O18       1.0  0.00000  0.80100  0.52500  1.0000
  O   O19       1.0  0.71100  0.20200  0.71100  1.0000
  O   O20       1.0  0.20200  0.71100  0.71100  1.0000
  O   O21       1.0  0.19900  0.19900  0.72400  1.0000
  O   O22       1.0  0.50900  0.50900  0.79800  1.0000
  O   O23       1.0  0.52500  0.00000  0.80100  1.0000
  O   O24       1.0  0.00000  0.52500  0.80100  1.0000
  Sb  Sb1       1.0  0.48600  0.00000  0.00000  1.0000
  Sb  Sb2       1.0  0.27700  0.27700  0.00000  1.0000
  Sb  Sb3       1.0  0.00000  0.48600  0.00000  1.0000
  Sb  Sb4       1.0  0.72300  0.72300  0.00000  1.0000
  Sb  Sb5       1.0  0.27700  0.00000  0.27700  1.0000
  Sb  Sb6       1.0  0.00000  0.27700  0.27700  1.0000
  Sb  Sb7       1.0  0.00000  0.00000  0.48600  1.0000
  Sb  Sb8       1.0  0.51400  0.51400  0.51400  1.0000
  Sb  Sb9       1.0  0.72300  0.00000  0.72300  1.0000
  Sb  Sb10      1.0  0.00000  0.72300  0.72300  1.0000
  Sm  Sm1       1.0  0.75000  0.50000  0.25000  1.0000
  Sm  Sm2       1.0  0.50000  0.75000  0.25000  1.0000
  Sm  Sm3       1.0  0.75000  0.25000  0.50000  1.0000
  Sm  Sm4       1.0  0.25000  0.75000  0.50000  1.0000
  Sm  Sm5       1.0  0.50000  0.25000  0.75000  1.0000
  Sm  Sm6       1.0  0.25000  0.50000  0.75000  1.0000
