data_image0
_chemical_formula_structural       BiK9O24U6
_chemical_formula_sum              "Bi1 K9 O24 U6"
_cell_length_a       8.69319
_cell_length_b       8.69319
_cell_length_c       8.69319
_cell_angle_alpha    90
_cell_angle_beta     90
_cell_angle_gamma    90

_space_group_name_H-M_alt    "P 1"
_space_group_IT_number       1

loop_
  _space_group_symop_operation_xyz
  'x, y, z'

loop_
  _atom_site_type_symbol
  _atom_site_label
  _atom_site_symmetry_multiplicity
  _atom_site_fract_x
  _atom_site_fract_y
  _atom_site_fract_z
  _atom_site_occupancy
  Bi  Bi1       1.0  0.50000  0.50000  0.50000  1.0000
  K   K1        1.0  0.00000  0.00000  0.00000  1.0000
  K   K2        1.0  0.24900  0.24900  0.24900  1.0000
  K   K3        1.0  0.75100  0.24900  0.24900  1.0000
  K   K4        1.0  0.24900  0.75100  0.24900  1.0000
  K   K5        1.0  0.75100  0.75100  0.24900  1.0000
  K   K6        1.0  0.24900  0.24900  0.75100  1.0000
  K   K7        1.0  0.75100  0.24900  0.75100  1.0000
  K   K8        1.0  0.24900  0.75100  0.75100  1.0000
  K   K9        1.0  0.75100  0.75100  0.75100  1.0000
  O   O1        1.0  0.28400  0.00000  0.00000  1.0000
  O   O2        1.0  0.71600  0.00000  0.00000  1.0000
  O   O3        1.0  0.50000  0.25500  0.00000  1.0000
  O   O4        1.0  0.00000  0.28400  0.00000  1.0000
  O   O5        1.0  0.25500  0.50000  0.00000  1.0000
  O   O6        1.0  0.74500  0.50000  0.00000  1.0000
  O   O7        1.0  0.00000  0.71600  0.00000  1.0000
  O   O8        1.0  0.50000  0.74500  0.00000  1.0000
  O   O9        1.0  0.50000  0.50000  0.23400  1.0000
  O   O10       1.0  0.50000  0.00000  0.25500  1.0000
  O   O11       1.0  0.00000  0.50000  0.25500  1.0000
  O   O12       1.0  0.00000  0.00000  0.28400  1.0000
  O   O13       1.0  0.25500  0.00000  0.50000  1.0000
  O   O14       1.0  0.74500  0.00000  0.50000  1.0000
  O   O15       1.0  0.50000  0.23400  0.50000  1.0000
  O   O16       1.0  0.00000  0.25500  0.50000  1.0000
  O   O17       1.0  0.23400  0.50000  0.50000  1.0000
  O   O18       1.0  0.76600  0.50000  0.50000  1.0000
  O   O19       1.0  0.00000  0.74500  0.50000  1.0000
  O   O20       1.0  0.50000  0.76600  0.50000  1.0000
  O   O21       1.0  0.00000  0.00000  0.71600  1.0000
  O   O22       1.0  0.50000  0.00000  0.74500  1.0000
  O   O23       1.0  0.00000  0.50000  0.74500  1.0000
  O   O24       1.0  0.50000  0.50000  0.76600  1.0000
  U   U1        1.0  0.50000  0.00000  0.00000  1.0000
  U   U2        1.0  0.00000  0.50000  0.00000  1.0000
  U   U3        1.0  0.50000  0.50000  0.00000  1.0000
  U   U4        1.0  0.00000  0.00000  0.50000  1.0000
  U   U5        1.0  0.50000  0.00000  0.50000  1.0000
  U   U6        1.0  0.00000  0.50000  0.50000  1.0000
