data_image0
_chemical_formula_structural       Mg8Na2O24V6
_chemical_formula_sum              "Mg8 Na2 O24 V6"
_cell_length_a       6.87229
_cell_length_b       6.87229
_cell_length_c       10.7028
_cell_angle_alpha    108.726
_cell_angle_beta     108.726
_cell_angle_gamma    90

_space_group_name_H-M_alt    "P 1"
_space_group_IT_number       1

loop_
  _space_group_symop_operation_xyz
  'x, y, z'

loop_
  _atom_site_type_symbol
  _atom_site_label
  _atom_site_symmetry_multiplicity
  _atom_site_fract_x
  _atom_site_fract_y
  _atom_site_fract_z
  _atom_site_occupancy
  Mg  Mg1       1.0  0.02430  0.52400  0.04850  1.0000
  Mg  Mg2       1.0  0.36900  0.37500  0.25000  1.0000
  Mg  Mg3       1.0  0.88100  0.87500  0.25000  1.0000
  Mg  Mg4       1.0  0.22600  0.22600  0.45100  1.0000
  Mg  Mg5       1.0  0.77400  0.77400  0.54900  1.0000
  Mg  Mg6       1.0  0.62500  0.11900  0.75000  1.0000
  Mg  Mg7       1.0  0.12500  0.63100  0.75000  1.0000
  Mg  Mg8       1.0  0.47600  0.97600  0.95100  1.0000
  Na  Na1       1.0  0.50000  0.50000  0.00000  1.0000
  Na  Na2       1.0  0.75000  0.25000  0.50000  1.0000
  O   O1        1.0  0.09980  0.25600  0.09200  1.0000
  O   O2        1.0  0.99200  0.83600  0.09200  1.0000
  O   O3        1.0  0.54700  0.25800  0.11600  1.0000
  O   O4        1.0  0.56900  0.85900  0.11600  1.0000
  O   O5        1.0  0.87000  0.55800  0.19500  1.0000
  O   O6        1.0  0.32600  0.63700  0.19500  1.0000
  O   O7        1.0  0.38000  0.11300  0.30500  1.0000
  O   O8        1.0  0.92400  0.19200  0.30500  1.0000
  O   O9        1.0  0.68100  0.49200  0.38400  1.0000
  O   O10       1.0  0.70300  0.89100  0.38400  1.0000
  O   O11       1.0  0.25800  0.49400  0.40800  1.0000
  O   O12       1.0  0.15000  0.91400  0.40800  1.0000
  O   O13       1.0  0.08560  0.74200  0.59200  1.0000
  O   O14       1.0  0.50600  0.85000  0.59200  1.0000
  O   O15       1.0  0.50800  0.29700  0.61600  1.0000
  O   O16       1.0  0.10900  0.31900  0.61600  1.0000
  O   O17       1.0  0.88700  0.07560  0.69500  1.0000
  O   O18       1.0  0.80800  0.62000  0.69500  1.0000
  O   O19       1.0  0.36300  0.13000  0.80500  1.0000
  O   O20       1.0  0.44200  0.67400  0.80500  1.0000
  O   O21       1.0  0.74200  0.43100  0.88400  1.0000
  O   O22       1.0  0.14100  0.45300  0.88400  1.0000
  O   O23       1.0  0.74400  0.00779  0.90800  1.0000
  O   O24       1.0  0.16400  0.90000  0.90800  1.0000
  V   V1        1.0  0.00000  0.00000  0.00000  1.0000
  V   V2        1.0  0.77800  0.37500  0.25000  1.0000
  V   V3        1.0  0.47200  0.87500  0.25000  1.0000
  V   V4        1.0  0.25000  0.75000  0.50000  1.0000
  V   V5        1.0  0.12500  0.22200  0.75000  1.0000
  V   V6        1.0  0.62500  0.52800  0.75000  1.0000
