data_image0
_chemical_formula_structural       As6Cu8Na2O24
_chemical_formula_sum              "As6 Cu8 Na2 O24"
_cell_length_a       7.25829
_cell_length_b       8.61758
_cell_length_c       8.61758
_cell_angle_alpha    92.2171
_cell_angle_beta     108.814
_cell_angle_gamma    108.814

_space_group_name_H-M_alt    "P 1"
_space_group_IT_number       1

loop_
  _space_group_symop_operation_xyz
  'x, y, z'

loop_
  _atom_site_type_symbol
  _atom_site_label
  _atom_site_symmetry_multiplicity
  _atom_site_fract_x
  _atom_site_fract_y
  _atom_site_fract_z
  _atom_site_occupancy
  As  As1       1.0  0.62100  0.34400  0.10700  1.0000
  As  As2       1.0  0.25000  0.72600  0.27400  1.0000
  As  As3       1.0  0.12100  0.10700  0.34400  1.0000
  As  As4       1.0  0.87900  0.89300  0.65600  1.0000
  As  As5       1.0  0.75000  0.27400  0.72600  1.0000
  As  As6       1.0  0.37900  0.65600  0.89300  1.0000
  Cu  Cu1       1.0  0.14000  0.37600  0.06440  1.0000
  Cu  Cu2       1.0  0.75000  0.73500  0.26500  1.0000
  Cu  Cu3       1.0  0.64000  0.06440  0.37600  1.0000
  Cu  Cu4       1.0  0.25000  0.50600  0.49400  1.0000
  Cu  Cu5       1.0  0.75000  0.49400  0.50600  1.0000
  Cu  Cu6       1.0  0.36000  0.93600  0.62400  1.0000
  Cu  Cu7       1.0  0.25000  0.26500  0.73500  1.0000
  Cu  Cu8       1.0  0.86000  0.62400  0.93600  1.0000
  Na  Na1       1.0  0.25000  0.99300  0.00667  1.0000
  Na  Na2       1.0  0.75000  0.00667  0.99300  1.0000
  O   O1        1.0  0.62900  0.69000  0.02400  1.0000
  O   O2        1.0  0.81300  0.41500  0.02400  1.0000
  O   O3        1.0  0.03180  0.76000  0.15700  1.0000
  O   O4        1.0  0.12000  0.16900  0.15800  1.0000
  O   O5        1.0  0.62000  0.15800  0.16900  1.0000
  O   O6        1.0  0.46800  0.84300  0.24000  1.0000
  O   O7        1.0  0.67500  0.49600  0.27300  1.0000
  O   O8        1.0  0.24000  0.51600  0.27400  1.0000
  O   O9        1.0  0.87100  0.97600  0.31000  1.0000
  O   O10       1.0  0.31300  0.02400  0.41500  1.0000
  O   O11       1.0  0.26000  0.72600  0.48400  1.0000
  O   O12       1.0  0.17500  0.27300  0.49600  1.0000
  O   O13       1.0  0.82500  0.72700  0.50400  1.0000
  O   O14       1.0  0.74000  0.27400  0.51600  1.0000
  O   O15       1.0  0.68700  0.97600  0.58500  1.0000
  O   O16       1.0  0.12900  0.02400  0.69000  1.0000
  O   O17       1.0  0.76000  0.48400  0.72600  1.0000
  O   O18       1.0  0.32500  0.50400  0.72700  1.0000
  O   O19       1.0  0.53200  0.15700  0.76000  1.0000
  O   O20       1.0  0.38000  0.84200  0.83100  1.0000
  O   O21       1.0  0.88000  0.83100  0.84200  1.0000
  O   O22       1.0  0.96800  0.24000  0.84300  1.0000
  O   O23       1.0  0.18700  0.58500  0.97600  1.0000
  O   O24       1.0  0.37100  0.31000  0.97600  1.0000
