data_image0
_chemical_formula_structural       C16Co4K4O16
_chemical_formula_sum              "C16 Co4 K4 O16"
_cell_length_a       5.65284
_cell_length_b       10.9678
_cell_length_c       11.7131
_cell_angle_alpha    98.4952
_cell_angle_beta     103.964
_cell_angle_gamma    104.934

_space_group_name_H-M_alt    "P 1"
_space_group_IT_number       1

loop_
  _space_group_symop_operation_xyz
  'x, y, z'

loop_
  _atom_site_type_symbol
  _atom_site_label
  _atom_site_symmetry_multiplicity
  _atom_site_fract_x
  _atom_site_fract_y
  _atom_site_fract_z
  _atom_site_occupancy
  C   C1        1.0  0.27000  0.58100  0.15200  1.0000
  C   C2        1.0  0.42600  0.03830  0.15800  1.0000
  C   C3        1.0  0.74300  0.87100  0.16100  1.0000
  C   C4        1.0  0.54400  0.39600  0.18600  1.0000
  C   C5        1.0  0.96100  0.10400  0.31400  1.0000
  C   C6        1.0  0.71100  0.62900  0.33900  1.0000
  C   C7        1.0  0.23000  0.46200  0.34200  1.0000
  C   C8        1.0  0.53800  0.91900  0.34800  1.0000
  C   C9        1.0  0.46200  0.08090  0.65200  1.0000
  C   C10       1.0  0.77000  0.53800  0.65800  1.0000
  C   C11       1.0  0.28900  0.37100  0.66100  1.0000
  C   C12       1.0  0.03860  0.89600  0.68600  1.0000
  C   C13       1.0  0.45600  0.60400  0.81400  1.0000
  C   C14       1.0  0.25700  0.12900  0.83900  1.0000
  C   C15       1.0  0.57400  0.96200  0.84200  1.0000
  C   C16       1.0  0.73000  0.41900  0.84800  1.0000
  Co  Co1       1.0  0.66400  0.99100  0.24500  1.0000
  Co  Co2       1.0  0.42900  0.50900  0.25500  1.0000
  Co  Co3       1.0  0.57100  0.49100  0.74500  1.0000
  Co  Co4       1.0  0.33600  0.00919  0.75500  1.0000
  K   K1        1.0  0.93800  0.20900  0.06050  1.0000
  K   K2        1.0  0.66800  0.29100  0.43900  1.0000
  K   K3        1.0  0.33200  0.70900  0.56100  1.0000
  K   K4        1.0  0.06220  0.79100  0.93900  1.0000
  O   O1        1.0  0.16800  0.63200  0.08390  1.0000
  O   O2        1.0  0.25100  0.06120  0.09710  1.0000
  O   O3        1.0  0.80600  0.79100  0.10900  1.0000
  O   O4        1.0  0.63900  0.32600  0.14300  1.0000
  O   O5        1.0  0.17100  0.17400  0.35700  1.0000
  O   O6        1.0  0.90600  0.70900  0.39100  1.0000
  O   O7        1.0  0.09230  0.43900  0.40300  1.0000
  O   O8        1.0  0.45200  0.86800  0.41600  1.0000
  O   O9        1.0  0.54800  0.13200  0.58400  1.0000
  O   O10       1.0  0.90800  0.56100  0.59700  1.0000
  O   O11       1.0  0.09440  0.29100  0.60900  1.0000
  O   O12       1.0  0.82900  0.82600  0.64300  1.0000
  O   O13       1.0  0.36100  0.67400  0.85700  1.0000
  O   O14       1.0  0.19400  0.20900  0.89100  1.0000
  O   O15       1.0  0.74900  0.93900  0.90300  1.0000
  O   O16       1.0  0.83200  0.36800  0.91600  1.0000
