data_image0
_chemical_formula_structural       Ba2Cl4H12O22
_chemical_formula_sum              "Ba2 Cl4 H12 O22"
_cell_length_a       7.11512
_cell_length_b       7.1151
_cell_length_c       9.41362
_cell_angle_alpha    90
_cell_angle_beta     90
_cell_angle_gamma    120

_space_group_name_H-M_alt    "P 1"
_space_group_IT_number       1

loop_
  _space_group_symop_operation_xyz
  'x, y, z'

loop_
  _atom_site_type_symbol
  _atom_site_label
  _atom_site_symmetry_multiplicity
  _atom_site_fract_x
  _atom_site_fract_y
  _atom_site_fract_z
  _atom_site_occupancy
  Ba  Ba1       1.0  0.00000  0.00000  0.00000  1.0000
  Ba  Ba2       1.0  0.00000  0.00000  0.50000  1.0000
  Cl  Cl1       1.0  0.33300  0.66700  0.03670  1.0000
  Cl  Cl2       1.0  0.33300  0.66700  0.46300  1.0000
  Cl  Cl3       1.0  0.66700  0.33300  0.53700  1.0000
  Cl  Cl4       1.0  0.66700  0.33300  0.96300  1.0000
  H   H1        1.0  0.40200  0.17800  0.25000  1.0000
  H   H2        1.0  0.82200  0.22300  0.25000  1.0000
  H   H3        1.0  0.29100  0.31900  0.25000  1.0000
  H   H4        1.0  0.77700  0.59800  0.25000  1.0000
  H   H5        1.0  0.02740  0.70900  0.25000  1.0000
  H   H6        1.0  0.68100  0.97300  0.25000  1.0000
  H   H7        1.0  0.31900  0.02740  0.75000  1.0000
  H   H8        1.0  0.97300  0.29100  0.75000  1.0000
  H   H9        1.0  0.22300  0.40200  0.75000  1.0000
  H   H10       1.0  0.70900  0.68100  0.75000  1.0000
  H   H11       1.0  0.17800  0.77700  0.75000  1.0000
  H   H12       1.0  0.59800  0.82200  0.75000  1.0000
  O   O1        1.0  0.17000  0.45400  0.08870  1.0000
  O   O2        1.0  0.28400  0.83000  0.08870  1.0000
  O   O3        1.0  0.54600  0.71600  0.08870  1.0000
  O   O4        1.0  0.66700  0.33300  0.11700  1.0000
  O   O5        1.0  0.83200  0.09130  0.25000  1.0000
  O   O6        1.0  0.25900  0.16800  0.25000  1.0000
  O   O7        1.0  0.90900  0.74100  0.25000  1.0000
  O   O8        1.0  0.66700  0.33300  0.38300  1.0000
  O   O9        1.0  0.54600  0.71600  0.41100  1.0000
  O   O10       1.0  0.17000  0.45400  0.41100  1.0000
  O   O11       1.0  0.28400  0.83000  0.41100  1.0000
  O   O12       1.0  0.83000  0.54600  0.58900  1.0000
  O   O13       1.0  0.71600  0.17000  0.58900  1.0000
  O   O14       1.0  0.45400  0.28400  0.58900  1.0000
  O   O15       1.0  0.33300  0.66700  0.61700  1.0000
  O   O16       1.0  0.09130  0.25900  0.75000  1.0000
  O   O17       1.0  0.74100  0.83200  0.75000  1.0000
  O   O18       1.0  0.16800  0.90900  0.75000  1.0000
  O   O19       1.0  0.33300  0.66700  0.88300  1.0000
  O   O20       1.0  0.45400  0.28400  0.91100  1.0000
  O   O21       1.0  0.71600  0.17000  0.91100  1.0000
  O   O22       1.0  0.83000  0.54600  0.91100  1.0000
