data_image0
_chemical_formula_structural       Cd2H8Mg2N8O20
_chemical_formula_sum              "Cd2 H8 Mg2 N8 O20"
_cell_length_a       6.49264
_cell_length_b       6.49264
_cell_length_c       11.8136
_cell_angle_alpha    91.3675
_cell_angle_beta     91.3675
_cell_angle_gamma    61.7452

_space_group_name_H-M_alt    "P 1"
_space_group_IT_number       1

loop_
  _space_group_symop_operation_xyz
  'x, y, z'

loop_
  _atom_site_type_symbol
  _atom_site_label
  _atom_site_symmetry_multiplicity
  _atom_site_fract_x
  _atom_site_fract_y
  _atom_site_fract_z
  _atom_site_occupancy
  Cd  Cd1       1.0  0.98500  0.01530  0.25000  1.0000
  Cd  Cd2       1.0  0.01530  0.98500  0.75000  1.0000
  H   H1        1.0  0.57500  0.79300  0.06420  1.0000
  H   H2        1.0  0.42000  0.21600  0.06880  1.0000
  H   H3        1.0  0.78400  0.58000  0.43100  1.0000
  H   H4        1.0  0.20700  0.42500  0.43600  1.0000
  H   H5        1.0  0.79300  0.57500  0.56400  1.0000
  H   H6        1.0  0.21600  0.42000  0.56900  1.0000
  H   H7        1.0  0.58000  0.78400  0.93100  1.0000
  H   H8        1.0  0.42500  0.20700  0.93600  1.0000
  Mg  Mg1       1.0  0.00000  0.50000  0.00000  1.0000
  Mg  Mg2       1.0  0.50000  0.00000  0.50000  1.0000
  N   N1        1.0  0.28600  0.70300  0.07820  1.0000
  N   N2        1.0  0.85400  0.50700  0.23100  1.0000
  N   N3        1.0  0.49300  0.14600  0.26900  1.0000
  N   N4        1.0  0.29700  0.71400  0.42200  1.0000
  N   N5        1.0  0.70300  0.28600  0.57800  1.0000
  N   N6        1.0  0.50700  0.85400  0.73100  1.0000
  N   N7        1.0  0.14600  0.49300  0.76900  1.0000
  N   N8        1.0  0.71400  0.29700  0.92200  1.0000
  O   O1        1.0  0.32000  0.23700  0.00041  1.0000
  O   O2        1.0  0.08290  0.72800  0.09750  1.0000
  O   O3        1.0  0.34100  0.82800  0.14200  1.0000
  O   O4        1.0  0.94800  0.36100  0.14900  1.0000
  O   O5        1.0  0.59000  0.16700  0.18200  1.0000
  O   O6        1.0  0.83300  0.41000  0.31800  1.0000
  O   O7        1.0  0.63900  0.05210  0.35100  1.0000
  O   O8        1.0  0.17200  0.65900  0.35800  1.0000
  O   O9        1.0  0.27200  0.91700  0.40200  1.0000
  O   O10       1.0  0.76300  0.68000  0.50000  1.0000
  O   O11       1.0  0.23700  0.32000  0.50000  1.0000
  O   O12       1.0  0.72800  0.08290  0.59800  1.0000
  O   O13       1.0  0.82800  0.34100  0.64200  1.0000
  O   O14       1.0  0.36100  0.94800  0.64900  1.0000
  O   O15       1.0  0.16700  0.59000  0.68200  1.0000
  O   O16       1.0  0.41000  0.83300  0.81800  1.0000
  O   O17       1.0  0.05210  0.63900  0.85100  1.0000
  O   O18       1.0  0.65900  0.17200  0.85800  1.0000
  O   O19       1.0  0.91700  0.27200  0.90200  1.0000
  O   O20       1.0  0.68000  0.76300  1.00000  1.0000
