data_image0
_chemical_formula_structural       Be8Na16O16
_chemical_formula_sum              "Be8 Na16 O16"
_cell_length_a       11.3949
_cell_length_b       5.27257
_cell_length_c       7.80943
_cell_angle_alpha    90
_cell_angle_beta     98.684
_cell_angle_gamma    90

_space_group_name_H-M_alt    "P 1"
_space_group_IT_number       1

loop_
  _space_group_symop_operation_xyz
  'x, y, z'

loop_
  _atom_site_type_symbol
  _atom_site_label
  _atom_site_symmetry_multiplicity
  _atom_site_fract_x
  _atom_site_fract_y
  _atom_site_fract_z
  _atom_site_occupancy
  Be  Be1       1.0  0.21100  0.04420  0.12200  1.0000
  Be  Be2       1.0  0.87300  0.62000  0.13300  1.0000
  Be  Be3       1.0  0.62700  0.38200  0.36500  1.0000
  Be  Be4       1.0  0.28800  0.95800  0.38000  1.0000
  Be  Be5       1.0  0.71200  0.45800  0.62000  1.0000
  Be  Be6       1.0  0.37300  0.88200  0.63500  1.0000
  Be  Be7       1.0  0.12700  0.12000  0.86700  1.0000
  Be  Be8       1.0  0.78900  0.54400  0.87800  1.0000
  Na  Na1       1.0  0.58200  0.62000  0.00490  1.0000
  Na  Na2       1.0  0.71700  0.17100  0.07250  1.0000
  Na  Na3       1.0  0.98500  0.06060  0.16200  1.0000
  Na  Na4       1.0  0.12500  0.55600  0.20100  1.0000
  Na  Na5       1.0  0.37500  0.44500  0.30000  1.0000
  Na  Na6       1.0  0.51400  0.94100  0.33800  1.0000
  Na  Na7       1.0  0.78300  0.83100  0.42500  1.0000
  Na  Na8       1.0  0.91900  0.38000  0.49400  1.0000
  Na  Na9       1.0  0.08110  0.88000  0.50600  1.0000
  Na  Na10      1.0  0.21700  0.33100  0.57500  1.0000
  Na  Na11      1.0  0.48600  0.44100  0.66200  1.0000
  Na  Na12      1.0  0.62500  0.94500  0.70000  1.0000
  Na  Na13      1.0  0.87500  0.05600  0.79900  1.0000
  Na  Na14      1.0  0.01510  0.56100  0.83800  1.0000
  Na  Na15      1.0  0.28300  0.67100  0.92800  1.0000
  Na  Na16      1.0  0.41800  0.12000  0.99500  1.0000
  O   O1        1.0  0.89200  0.38600  0.01790  1.0000
  O   O2        1.0  0.77100  0.77700  0.02020  1.0000
  O   O3        1.0  0.55500  0.30700  0.19200  1.0000
  O   O4        1.0  0.32700  0.86500  0.19600  1.0000
  O   O5        1.0  0.17300  0.13600  0.30600  1.0000
  O   O6        1.0  0.94500  0.69500  0.30600  1.0000
  O   O7        1.0  0.72900  0.22600  0.47700  1.0000
  O   O8        1.0  0.60800  0.61600  0.48000  1.0000
  O   O9        1.0  0.39200  0.11600  0.52000  1.0000
  O   O10       1.0  0.27100  0.72600  0.52300  1.0000
  O   O11       1.0  0.05530  0.19500  0.69400  1.0000
  O   O12       1.0  0.82700  0.63600  0.69400  1.0000
  O   O13       1.0  0.67300  0.36500  0.80400  1.0000
  O   O14       1.0  0.44500  0.80700  0.80800  1.0000
  O   O15       1.0  0.22900  0.27700  0.98000  1.0000
  O   O16       1.0  0.10800  0.88600  0.98200  1.0000
