data_image0
_chemical_formula_structural       Cs12Cu8I20
_chemical_formula_sum              "Cs12 Cu8 I20"
_cell_length_a       14.5414
_cell_length_b       10.3249
_cell_length_c       11.7855
_cell_angle_alpha    90
_cell_angle_beta     90
_cell_angle_gamma    90

_space_group_name_H-M_alt    "P 1"
_space_group_IT_number       1

loop_
  _space_group_symop_operation_xyz
  'x, y, z'

loop_
  _atom_site_type_symbol
  _atom_site_label
  _atom_site_symmetry_multiplicity
  _atom_site_fract_x
  _atom_site_fract_y
  _atom_site_fract_z
  _atom_site_occupancy
  Cs  Cs1       1.0  0.17600  0.44700  0.01230  1.0000
  Cs  Cs2       1.0  0.32400  0.94700  0.01230  1.0000
  Cs  Cs3       1.0  0.95200  0.09340  0.25000  1.0000
  Cs  Cs4       1.0  0.54800  0.59300  0.25000  1.0000
  Cs  Cs5       1.0  0.17600  0.44700  0.48800  1.0000
  Cs  Cs6       1.0  0.32400  0.94700  0.48800  1.0000
  Cs  Cs7       1.0  0.67600  0.05340  0.51200  1.0000
  Cs  Cs8       1.0  0.82400  0.55300  0.51200  1.0000
  Cs  Cs9       1.0  0.45200  0.40700  0.75000  1.0000
  Cs  Cs10      1.0  0.04800  0.90700  0.75000  1.0000
  Cs  Cs11      1.0  0.67600  0.05340  0.98800  1.0000
  Cs  Cs12      1.0  0.82400  0.55300  0.98800  1.0000
  Cu  Cu1       1.0  0.54500  0.21500  0.25000  1.0000
  Cu  Cu2       1.0  0.37400  0.23700  0.25000  1.0000
  Cu  Cu3       1.0  0.95500  0.71500  0.25000  1.0000
  Cu  Cu4       1.0  0.12600  0.73700  0.25000  1.0000
  Cu  Cu5       1.0  0.87400  0.26300  0.75000  1.0000
  Cu  Cu6       1.0  0.04520  0.28500  0.75000  1.0000
  Cu  Cu7       1.0  0.62600  0.76300  0.75000  1.0000
  Cu  Cu8       1.0  0.45500  0.78500  0.75000  1.0000
  I   I1        1.0  0.44900  0.30900  0.06170  1.0000
  I   I2        1.0  0.05060  0.80900  0.06170  1.0000
  I   I3        1.0  0.20900  0.16100  0.25000  1.0000
  I   I4        1.0  0.71200  0.29700  0.25000  1.0000
  I   I5        1.0  0.98800  0.46700  0.25000  1.0000
  I   I6        1.0  0.29100  0.66100  0.25000  1.0000
  I   I7        1.0  0.78800  0.79700  0.25000  1.0000
  I   I8        1.0  0.51200  0.96700  0.25000  1.0000
  I   I9        1.0  0.44900  0.30900  0.43800  1.0000
  I   I10       1.0  0.05060  0.80900  0.43800  1.0000
  I   I11       1.0  0.94900  0.19100  0.56200  1.0000
  I   I12       1.0  0.55100  0.69100  0.56200  1.0000
  I   I13       1.0  0.48800  0.03340  0.75000  1.0000
  I   I14       1.0  0.21200  0.20300  0.75000  1.0000
  I   I15       1.0  0.70900  0.33900  0.75000  1.0000
  I   I16       1.0  0.01220  0.53300  0.75000  1.0000
  I   I17       1.0  0.28800  0.70300  0.75000  1.0000
  I   I18       1.0  0.79100  0.83900  0.75000  1.0000
  I   I19       1.0  0.94900  0.19100  0.93800  1.0000
  I   I20       1.0  0.55100  0.69100  0.93800  1.0000
