data_image0
_chemical_formula_structural       Ag4C16Co4O16
_chemical_formula_sum              "Ag4 C16 Co4 O16"
_cell_length_a       6.12985
_cell_length_b       10.3983
_cell_length_c       10.3983
_cell_angle_alpha    112.474
_cell_angle_beta     93.5496
_cell_angle_gamma    93.5496

_space_group_name_H-M_alt    "P 1"
_space_group_IT_number       1

loop_
  _space_group_symop_operation_xyz
  'x, y, z'

loop_
  _atom_site_type_symbol
  _atom_site_label
  _atom_site_symmetry_multiplicity
  _atom_site_fract_x
  _atom_site_fract_y
  _atom_site_fract_z
  _atom_site_occupancy
  Ag  Ag1       1.0  0.59200  0.47100  0.30200  1.0000
  Ag  Ag2       1.0  0.59200  0.30200  0.47100  1.0000
  Ag  Ag3       1.0  0.40800  0.69800  0.52900  1.0000
  Ag  Ag4       1.0  0.40800  0.52900  0.69800  1.0000
  C   C1        1.0  0.79300  0.22700  0.06380  1.0000
  C   C2        1.0  0.60500  0.66500  0.13100  1.0000
  C   C3        1.0  0.43000  0.19100  0.19100  1.0000
  C   C4        1.0  0.79300  0.06380  0.22700  1.0000
  C   C5        1.0  0.25100  0.59800  0.24700  1.0000
  C   C6        1.0  0.39500  0.86900  0.33500  1.0000
  C   C7        1.0  0.93200  0.33700  0.33700  1.0000
  C   C8        1.0  0.74900  0.75300  0.40200  1.0000
  C   C9        1.0  0.25100  0.24700  0.59800  1.0000
  C   C10       1.0  0.06820  0.66300  0.66300  1.0000
  C   C11       1.0  0.60500  0.13100  0.66500  1.0000
  C   C12       1.0  0.74900  0.40200  0.75300  1.0000
  C   C13       1.0  0.20700  0.93600  0.77300  1.0000
  C   C14       1.0  0.57000  0.80900  0.80900  1.0000
  C   C15       1.0  0.39500  0.33500  0.86900  1.0000
  C   C16       1.0  0.20700  0.77300  0.93600  1.0000
  Co  Co1       1.0  0.71900  0.22200  0.22200  1.0000
  Co  Co2       1.0  0.50000  0.70600  0.29400  1.0000
  Co  Co3       1.0  0.50000  0.29400  0.70600  1.0000
  Co  Co4       1.0  0.28100  0.77800  0.77800  1.0000
  O   O1        1.0  0.67100  0.64300  0.02330  1.0000
  O   O2        1.0  0.15300  0.77200  0.04090  1.0000
  O   O3        1.0  0.24600  0.15400  0.15400  1.0000
  O   O4        1.0  0.07780  0.53800  0.20400  1.0000
  O   O5        1.0  0.84700  0.95900  0.22800  1.0000
  O   O6        1.0  0.32900  0.97700  0.35700  1.0000
  O   O7        1.0  0.09750  0.39800  0.39800  1.0000
  O   O8        1.0  0.92200  0.79600  0.46200  1.0000
  O   O9        1.0  0.07780  0.20400  0.53800  1.0000
  O   O10       1.0  0.90200  0.60200  0.60200  1.0000
  O   O11       1.0  0.67100  0.02330  0.64300  1.0000
  O   O12       1.0  0.15300  0.04090  0.77200  1.0000
  O   O13       1.0  0.92200  0.46200  0.79600  1.0000
  O   O14       1.0  0.75400  0.84600  0.84600  1.0000
  O   O15       1.0  0.84700  0.22800  0.95900  1.0000
  O   O16       1.0  0.32900  0.35700  0.97700  1.0000
