data_image0
_chemical_formula_structural       CsGeI3
_chemical_formula_sum              "Cs1 Ge1 I3"
_cell_length_a       6.05861
_cell_length_b       6.0586
_cell_length_c       6.05861
_cell_angle_alpha    88.6944
_cell_angle_beta     88.6944
_cell_angle_gamma    88.6944

_space_group_name_H-M_alt    "P 1"
_space_group_IT_number       1

loop_
  _space_group_symop_operation_xyz
  'x, y, z'

loop_
  _atom_site_type_symbol
  _atom_site_label
  _atom_site_symmetry_multiplicity
  _atom_site_fract_x
  _atom_site_fract_y
  _atom_site_fract_z
  _atom_site_occupancy
  Cs  Cs1       1.0  0.00000  0.00000  0.00000  1.0000
  Ge  Ge1       1.0  0.47100  0.47100  0.47100  1.0000
  I   I1        1.0  0.50300  0.50300  0.01040  1.0000
  I   I2        1.0  0.01040  0.50300  0.50300  1.0000
  I   I3        1.0  0.50300  0.01040  0.50300  1.0000
