data_image0
_chemical_formula_structural       B4F32N4
_chemical_formula_sum              "B4 F32 N4"
_cell_length_a       8.93746
_cell_length_b       8.93746
_cell_length_c       4.95751
_cell_angle_alpha    90
_cell_angle_beta     90
_cell_angle_gamma    90

_space_group_name_H-M_alt    "P 1"
_space_group_IT_number       1

loop_
  _space_group_symop_operation_xyz
  'x, y, z'

loop_
  _atom_site_type_symbol
  _atom_site_label
  _atom_site_symmetry_multiplicity
  _atom_site_fract_x
  _atom_site_fract_y
  _atom_site_fract_z
  _atom_site_occupancy
  B   B1        1.0  0.26000  0.24000  0.41300  1.0000
  B   B2        1.0  0.74000  0.76000  0.41300  1.0000
  B   B3        1.0  0.76000  0.26000  0.58700  1.0000
  B   B4        1.0  0.24000  0.74000  0.58700  1.0000
  F   F1        1.0  0.91300  0.41300  0.11200  1.0000
  F   F2        1.0  0.08740  0.58700  0.11200  1.0000
  F   F3        1.0  0.95200  0.11200  0.15500  1.0000
  F   F4        1.0  0.61200  0.45200  0.15500  1.0000
  F   F5        1.0  0.38800  0.54800  0.15500  1.0000
  F   F6        1.0  0.04850  0.88800  0.15500  1.0000
  F   F7        1.0  0.58600  0.08600  0.19500  1.0000
  F   F8        1.0  0.41400  0.91400  0.19500  1.0000
  F   F9        1.0  0.75500  0.25500  0.30500  1.0000
  F   F10       1.0  0.24500  0.74500  0.30500  1.0000
  F   F11       1.0  0.15700  0.34300  0.30500  1.0000
  F   F12       1.0  0.84300  0.65700  0.30500  1.0000
  F   F13       1.0  0.22300  0.09470  0.33000  1.0000
  F   F14       1.0  0.40500  0.27700  0.33000  1.0000
  F   F15       1.0  0.59500  0.72300  0.33000  1.0000
  F   F16       1.0  0.77700  0.90500  0.33000  1.0000
  F   F17       1.0  0.90500  0.22300  0.67000  1.0000
  F   F18       1.0  0.72300  0.40500  0.67000  1.0000
  F   F19       1.0  0.27700  0.59500  0.67000  1.0000
  F   F20       1.0  0.09470  0.77700  0.67000  1.0000
  F   F21       1.0  0.65700  0.15700  0.69500  1.0000
  F   F22       1.0  0.34300  0.84300  0.69500  1.0000
  F   F23       1.0  0.25500  0.24500  0.69500  1.0000
  F   F24       1.0  0.74500  0.75500  0.69500  1.0000
  F   F25       1.0  0.08600  0.41400  0.80500  1.0000
  F   F26       1.0  0.91400  0.58600  0.80500  1.0000
  F   F27       1.0  0.11200  0.04850  0.84500  1.0000
  F   F28       1.0  0.45200  0.38800  0.84500  1.0000
  F   F29       1.0  0.54800  0.61200  0.84500  1.0000
  F   F30       1.0  0.88800  0.95200  0.84500  1.0000
  F   F31       1.0  0.41300  0.08740  0.88800  1.0000
  F   F32       1.0  0.58700  0.91300  0.88800  1.0000
  N   N1        1.0  0.00000  0.00000  0.00000  1.0000
  N   N2        1.0  0.50000  0.50000  0.00000  1.0000
  N   N3        1.0  0.50000  0.00000  0.04190  1.0000
  N   N4        1.0  0.00000  0.50000  0.95800  1.0000
