data_image0
_chemical_formula_structural       Mn6Sn2
_chemical_formula_sum              "Mn6 Sn2"
_cell_length_a       5.57066
_cell_length_b       5.57506
_cell_length_c       4.4633
_cell_angle_alpha    90
_cell_angle_beta     90
_cell_angle_gamma    119.974

_space_group_name_H-M_alt    "P 1"
_space_group_IT_number       1

loop_
  _space_group_symop_operation_xyz
  'x, y, z'

loop_
  _atom_site_type_symbol
  _atom_site_label
  _atom_site_symmetry_multiplicity
  _atom_site_fract_x
  _atom_site_fract_y
  _atom_site_fract_z
  _atom_site_occupancy
  Mn  Mn1       1.0  0.32200  0.16100  0.25000  1.0000
  Mn  Mn2       1.0  0.83900  0.16100  0.25000  1.0000
  Mn  Mn3       1.0  0.83900  0.67800  0.25000  1.0000
  Mn  Mn4       1.0  0.16100  0.32200  0.75000  1.0000
  Mn  Mn5       1.0  0.16100  0.83900  0.75000  1.0000
  Mn  Mn6       1.0  0.67800  0.83900  0.75000  1.0000
  Sn  Sn1       1.0  0.33300  0.66700  0.25000  1.0000
  Sn  Sn2       1.0  0.66700  0.33300  0.75000  1.0000
