data_image0
_chemical_formula_structural       Ca4Cu4H8O20Si4
_chemical_formula_sum              "Ca4 Cu4 H8 O20 Si4"
_cell_length_a       5.0073
_cell_length_b       15.9779
_cell_length_c       5.3202
_cell_angle_alpha    90
_cell_angle_beta     102.267
_cell_angle_gamma    90

_space_group_name_H-M_alt    "P 1"
_space_group_IT_number       1

loop_
  _space_group_symop_operation_xyz
  'x, y, z'

loop_
  _atom_site_type_symbol
  _atom_site_label
  _atom_site_symmetry_multiplicity
  _atom_site_fract_x
  _atom_site_fract_y
  _atom_site_fract_z
  _atom_site_occupancy
  Ca  Ca1       1.0  0.35300  0.67700  0.15600  1.0000
  Ca  Ca2       1.0  0.64700  0.17700  0.34400  1.0000
  Ca  Ca3       1.0  0.35300  0.82300  0.65600  1.0000
  Ca  Ca4       1.0  0.64700  0.32300  0.84400  1.0000
  Cu  Cu1       1.0  0.50000  0.00000  0.00000  1.0000
  Cu  Cu2       1.0  0.00000  0.50000  0.00000  1.0000
  Cu  Cu3       1.0  0.00000  0.00000  0.50000  1.0000
  Cu  Cu4       1.0  0.50000  0.50000  0.50000  1.0000
  H   H1        1.0  0.16500  0.25700  0.07790  1.0000
  H   H2        1.0  0.65900  0.83000  0.24200  1.0000
  H   H3        1.0  0.34100  0.33000  0.25800  1.0000
  H   H4        1.0  0.83500  0.75700  0.42200  1.0000
  H   H5        1.0  0.16500  0.24300  0.57800  1.0000
  H   H6        1.0  0.65900  0.67000  0.74200  1.0000
  H   H7        1.0  0.34100  0.17000  0.75800  1.0000
  H   H8        1.0  0.83500  0.74300  0.92200  1.0000
  O   O1        1.0  0.90000  0.20700  0.02600  1.0000
  O   O2        1.0  0.31600  0.10400  0.03290  1.0000
  O   O3        1.0  0.35100  0.28900  0.11900  1.0000
  O   O4        1.0  0.84100  0.05180  0.16700  1.0000
  O   O5        1.0  0.84100  0.41400  0.16800  1.0000
  O   O6        1.0  0.15900  0.91400  0.33200  1.0000
  O   O7        1.0  0.15900  0.55200  0.33300  1.0000
  O   O8        1.0  0.64900  0.78900  0.38100  1.0000
  O   O9        1.0  0.68400  0.60400  0.46700  1.0000
  O   O10       1.0  0.09980  0.70700  0.47400  1.0000
  O   O11       1.0  0.90000  0.29300  0.52600  1.0000
  O   O12       1.0  0.31600  0.39600  0.53300  1.0000
  O   O13       1.0  0.35100  0.21100  0.61900  1.0000
  O   O14       1.0  0.84100  0.44800  0.66700  1.0000
  O   O15       1.0  0.84100  0.08590  0.66800  1.0000
  O   O16       1.0  0.15900  0.58600  0.83200  1.0000
  O   O17       1.0  0.15900  0.94800  0.83300  1.0000
  O   O18       1.0  0.64900  0.71100  0.88100  1.0000
  O   O19       1.0  0.68400  0.89600  0.96700  1.0000
  O   O20       1.0  0.09980  0.79300  0.97400  1.0000
  Si  Si1       1.0  0.02010  0.88900  0.03280  1.0000
  Si  Si2       1.0  0.98000  0.38900  0.46700  1.0000
  Si  Si3       1.0  0.02010  0.61100  0.53300  1.0000
  Si  Si4       1.0  0.98000  0.11100  0.96700  1.0000
