data_image0
_chemical_formula_structural       Gd3Sm
_chemical_formula_sum              "Gd3 Sm1"
_cell_length_a       6.22254
_cell_length_b       6.22254
_cell_length_c       6.22254
_cell_angle_alpha    132.037
_cell_angle_beta     132.037
_cell_angle_gamma    70.1709

_space_group_name_H-M_alt    "P 1"
_space_group_IT_number       1

loop_
  _space_group_symop_operation_xyz
  'x, y, z'

loop_
  _atom_site_type_symbol
  _atom_site_label
  _atom_site_symmetry_multiplicity
  _atom_site_fract_x
  _atom_site_fract_y
  _atom_site_fract_z
  _atom_site_occupancy
  Gd  Gd1       1.0  0.75000  0.25000  0.50000  1.0000
  Gd  Gd2       1.0  0.25000  0.75000  0.50000  1.0000
  Gd  Gd3       1.0  0.50000  0.50000  0.00000  1.0000
  Sm  Sm1       1.0  0.00000  0.00000  0.00000  1.0000
