data_image0
_chemical_formula_structural       C12Fe4N4O16Tl4
_chemical_formula_sum              "C12 Fe4 N4 O16 Tl4"
_cell_length_a       8.6455
_cell_length_b       8.6455
_cell_length_c       8.6455
_cell_angle_alpha    90
_cell_angle_beta     90
_cell_angle_gamma    90

_space_group_name_H-M_alt    "P 1"
_space_group_IT_number       1

loop_
  _space_group_symop_operation_xyz
  'x, y, z'

loop_
  _atom_site_type_symbol
  _atom_site_label
  _atom_site_symmetry_multiplicity
  _atom_site_fract_x
  _atom_site_fract_y
  _atom_site_fract_z
  _atom_site_occupancy
  C   C1        1.0  0.90700  0.64200  0.05890  1.0000
  C   C2        1.0  0.14200  0.44100  0.09290  1.0000
  C   C3        1.0  0.44100  0.09290  0.14200  1.0000
  C   C4        1.0  0.55900  0.59300  0.35800  1.0000
  C   C5        1.0  0.85800  0.94100  0.40700  1.0000
  C   C6        1.0  0.09290  0.14200  0.44100  1.0000
  C   C7        1.0  0.59300  0.35800  0.55900  1.0000
  C   C8        1.0  0.35800  0.55900  0.59300  1.0000
  C   C9        1.0  0.05890  0.90700  0.64200  1.0000
  C   C10       1.0  0.94100  0.40700  0.85800  1.0000
  C   C11       1.0  0.64200  0.05890  0.90700  1.0000
  C   C12       1.0  0.40700  0.85800  0.94100  1.0000
  Fe  Fe1       1.0  0.94200  0.44200  0.05790  1.0000
  Fe  Fe2       1.0  0.05790  0.94200  0.44200  1.0000
  Fe  Fe3       1.0  0.55800  0.55800  0.55800  1.0000
  Fe  Fe4       1.0  0.44200  0.05790  0.94200  1.0000
  N   N1        1.0  0.83300  0.33300  0.16700  1.0000
  N   N2        1.0  0.16700  0.83300  0.33300  1.0000
  N   N3        1.0  0.66700  0.66700  0.66700  1.0000
  N   N4        1.0  0.33300  0.16700  0.83300  1.0000
  O   O1        1.0  0.88100  0.77500  0.06640  1.0000
  O   O2        1.0  0.27500  0.43400  0.11900  1.0000
  O   O3        1.0  0.56600  0.61900  0.22500  1.0000
  O   O4        1.0  0.75200  0.25200  0.24800  1.0000
  O   O5        1.0  0.24800  0.75200  0.25200  1.0000
  O   O6        1.0  0.43400  0.11900  0.27500  1.0000
  O   O7        1.0  0.72500  0.93400  0.38100  1.0000
  O   O8        1.0  0.11900  0.27500  0.43400  1.0000
  O   O9        1.0  0.61900  0.22500  0.56600  1.0000
  O   O10       1.0  0.22500  0.56600  0.61900  1.0000
  O   O11       1.0  0.93400  0.38100  0.72500  1.0000
  O   O12       1.0  0.74800  0.74800  0.74800  1.0000
  O   O13       1.0  0.25200  0.24800  0.75200  1.0000
  O   O14       1.0  0.06640  0.88100  0.77500  1.0000
  O   O15       1.0  0.77500  0.06640  0.88100  1.0000
  O   O16       1.0  0.38100  0.72500  0.93400  1.0000
  Tl  Tl1       1.0  0.06400  0.06400  0.06400  1.0000
  Tl  Tl2       1.0  0.93600  0.56400  0.43600  1.0000
  Tl  Tl3       1.0  0.43600  0.93600  0.56400  1.0000
  Tl  Tl4       1.0  0.56400  0.43600  0.93600  1.0000
