data_image0
_chemical_formula_structural       Fe4K4O24Se8
_chemical_formula_sum              "Fe4 K4 O24 Se8"
_cell_length_a       12.7547
_cell_length_b       5.46225
_cell_length_c       8.01041
_cell_angle_alpha    90
_cell_angle_beta     90
_cell_angle_gamma    90

_space_group_name_H-M_alt    "P 1"
_space_group_IT_number       1

loop_
  _space_group_symop_operation_xyz
  'x, y, z'

loop_
  _atom_site_type_symbol
  _atom_site_label
  _atom_site_symmetry_multiplicity
  _atom_site_fract_x
  _atom_site_fract_y
  _atom_site_fract_z
  _atom_site_occupancy
  Fe  Fe1       1.0  0.90200  0.75000  0.20300  1.0000
  Fe  Fe2       1.0  0.40200  0.75000  0.29700  1.0000
  Fe  Fe3       1.0  0.59800  0.25000  0.70300  1.0000
  Fe  Fe4       1.0  0.09840  0.25000  0.79700  1.0000
  K   K1        1.0  0.37000  0.25000  0.00186  1.0000
  K   K2        1.0  0.87000  0.25000  0.49800  1.0000
  K   K3        1.0  0.13000  0.75000  0.50200  1.0000
  K   K4        1.0  0.63000  0.75000  0.99800  1.0000
  O   O1        1.0  0.01890  0.25000  0.00722  1.0000
  O   O2        1.0  0.33300  0.75000  0.06600  1.0000
  O   O3        1.0  0.79500  0.00580  0.12800  1.0000
  O   O4        1.0  0.79500  0.49400  0.12800  1.0000
  O   O5        1.0  0.50200  0.00510  0.20600  1.0000
  O   O6        1.0  0.50200  0.49500  0.20600  1.0000
  O   O7        1.0  0.00208  0.00510  0.29400  1.0000
  O   O8        1.0  0.00208  0.49500  0.29400  1.0000
  O   O9        1.0  0.29500  0.00580  0.37200  1.0000
  O   O10       1.0  0.29500  0.49400  0.37200  1.0000
  O   O11       1.0  0.83300  0.75000  0.43400  1.0000
  O   O12       1.0  0.51900  0.25000  0.49300  1.0000
  O   O13       1.0  0.48100  0.75000  0.50700  1.0000
  O   O14       1.0  0.16700  0.25000  0.56600  1.0000
  O   O15       1.0  0.70500  0.50600  0.62800  1.0000
  O   O16       1.0  0.70500  0.99400  0.62800  1.0000
  O   O17       1.0  0.99800  0.50500  0.70600  1.0000
  O   O18       1.0  0.99800  0.99500  0.70600  1.0000
  O   O19       1.0  0.49800  0.50500  0.79400  1.0000
  O   O20       1.0  0.49800  0.99500  0.79400  1.0000
  O   O21       1.0  0.20500  0.50600  0.87200  1.0000
  O   O22       1.0  0.20500  0.99400  0.87200  1.0000
  O   O23       1.0  0.66700  0.25000  0.93400  1.0000
  O   O24       1.0  0.98100  0.75000  0.99300  1.0000
  Se  Se1       1.0  0.20100  0.75000  0.00963  1.0000
  Se  Se2       1.0  0.06780  0.25000  0.20700  1.0000
  Se  Se3       1.0  0.56800  0.25000  0.29300  1.0000
  Se  Se4       1.0  0.70100  0.75000  0.49000  1.0000
  Se  Se5       1.0  0.29900  0.25000  0.51000  1.0000
  Se  Se6       1.0  0.43200  0.75000  0.70700  1.0000
  Se  Se7       1.0  0.93200  0.75000  0.79300  1.0000
  Se  Se8       1.0  0.79900  0.25000  0.99000  1.0000
