data_image0
_chemical_formula_structural       F28Ho8K4
_chemical_formula_sum              "F28 Ho8 K4"
_cell_length_a       7.87214
_cell_length_b       8.03686
_cell_length_c       10.3829
_cell_angle_alpha    101.68
_cell_angle_beta     112.277
_cell_angle_gamma    60.6757

_space_group_name_H-M_alt    "P 1"
_space_group_IT_number       1

loop_
  _space_group_symop_operation_xyz
  'x, y, z'

loop_
  _atom_site_type_symbol
  _atom_site_label
  _atom_site_symmetry_multiplicity
  _atom_site_fract_x
  _atom_site_fract_y
  _atom_site_fract_z
  _atom_site_occupancy
  F   F1        1.0  0.60800  0.86100  0.07660  1.0000
  F   F2        1.0  0.12700  0.29300  0.08000  1.0000
  F   F3        1.0  0.66000  0.29300  0.08000  1.0000
  F   F4        1.0  0.10500  0.87700  0.08690  1.0000
  F   F5        1.0  0.35600  0.00461  0.23800  1.0000
  F   F6        1.0  0.87800  0.00461  0.23800  1.0000
  F   F7        1.0  0.88900  0.46900  0.24700  1.0000
  F   F8        1.0  0.14800  0.61300  0.25700  1.0000
  F   F9        1.0  0.49600  0.61300  0.25700  1.0000
  F   F10       1.0  0.49400  0.27300  0.26100  1.0000
  F   F11       1.0  0.11200  0.16000  0.38300  1.0000
  F   F12       1.0  0.49400  0.17400  0.49900  1.0000
  F   F13       1.0  0.83000  0.17400  0.49900  1.0000
  F   F14       1.0  0.17600  0.50000  0.50000  1.0000
  F   F15       1.0  0.82400  0.50000  0.50000  1.0000
  F   F16       1.0  0.17000  0.82600  0.50100  1.0000
  F   F17       1.0  0.50600  0.82600  0.50100  1.0000
  F   F18       1.0  0.88800  0.84000  0.61700  1.0000
  F   F19       1.0  0.50600  0.72700  0.73900  1.0000
  F   F20       1.0  0.50400  0.38700  0.74300  1.0000
  F   F21       1.0  0.85200  0.38700  0.74300  1.0000
  F   F22       1.0  0.11100  0.53100  0.75300  1.0000
  F   F23       1.0  0.12200  0.99500  0.76200  1.0000
  F   F24       1.0  0.64400  0.99500  0.76200  1.0000
  F   F25       1.0  0.89500  0.12300  0.91300  1.0000
  F   F26       1.0  0.34000  0.70700  0.92000  1.0000
  F   F27       1.0  0.87300  0.70700  0.92000  1.0000
  F   F28       1.0  0.39200  0.13900  0.92300  1.0000
  Ho  Ho1       1.0  0.26100  0.00000  0.00000  1.0000
  Ho  Ho2       1.0  0.73900  0.00000  0.00000  1.0000
  Ho  Ho3       1.0  0.23000  0.32600  0.31400  1.0000
  Ho  Ho4       1.0  0.75800  0.32600  0.31400  1.0000
  Ho  Ho5       1.0  0.23900  0.84300  0.32000  1.0000
  Ho  Ho6       1.0  0.76100  0.15700  0.68000  1.0000
  Ho  Ho7       1.0  0.24200  0.67400  0.68600  1.0000
  Ho  Ho8       1.0  0.77000  0.67400  0.68600  1.0000
  K   K1        1.0  0.26300  0.49500  0.02120  1.0000
  K   K2        1.0  0.76400  0.81900  0.34700  1.0000
  K   K3        1.0  0.23600  0.18100  0.65300  1.0000
  K   K4        1.0  0.73700  0.50500  0.97900  1.0000
