data_image0
_chemical_formula_structural       Eu6O24Sb10
_chemical_formula_sum              "Eu6 O24 Sb10"
_cell_length_a       9.08664
_cell_length_b       9.08664
_cell_length_c       9.08664
_cell_angle_alpha    109.471
_cell_angle_beta     109.471
_cell_angle_gamma    109.471

_space_group_name_H-M_alt    "P 1"
_space_group_IT_number       1

loop_
  _space_group_symop_operation_xyz
  'x, y, z'

loop_
  _atom_site_type_symbol
  _atom_site_label
  _atom_site_symmetry_multiplicity
  _atom_site_fract_x
  _atom_site_fract_y
  _atom_site_fract_z
  _atom_site_occupancy
  Eu  Eu1       1.0  0.75000  0.50000  0.25000  1.0000
  Eu  Eu2       1.0  0.50000  0.75000  0.25000  1.0000
  Eu  Eu3       1.0  0.75000  0.25000  0.50000  1.0000
  Eu  Eu4       1.0  0.25000  0.75000  0.50000  1.0000
  Eu  Eu5       1.0  0.50000  0.25000  0.75000  1.0000
  Eu  Eu6       1.0  0.25000  0.50000  0.75000  1.0000
  O   O1        1.0  0.46000  0.21000  0.00000  1.0000
  O   O2        1.0  0.21000  0.46000  0.00000  1.0000
  O   O3        1.0  0.79100  0.54000  0.00000  1.0000
  O   O4        1.0  0.54000  0.79100  0.00000  1.0000
  O   O5        1.0  0.74900  0.20900  0.20900  1.0000
  O   O6        1.0  0.20900  0.74900  0.20900  1.0000
  O   O7        1.0  0.46000  0.00000  0.21000  1.0000
  O   O8        1.0  0.00000  0.46000  0.21000  1.0000
  O   O9        1.0  0.79000  0.79000  0.25000  1.0000
  O   O10       1.0  0.46000  0.46000  0.25100  1.0000
  O   O11       1.0  0.46000  0.25100  0.46000  1.0000
  O   O12       1.0  0.25100  0.46000  0.46000  1.0000
  O   O13       1.0  0.21000  0.00000  0.46000  1.0000
  O   O14       1.0  0.00000  0.21000  0.46000  1.0000
  O   O15       1.0  0.75000  0.54000  0.54000  1.0000
  O   O16       1.0  0.54000  0.75000  0.54000  1.0000
  O   O17       1.0  0.79100  0.00000  0.54000  1.0000
  O   O18       1.0  0.00000  0.79100  0.54000  1.0000
  O   O19       1.0  0.20900  0.20900  0.74900  1.0000
  O   O20       1.0  0.54000  0.54000  0.75000  1.0000
  O   O21       1.0  0.79000  0.25000  0.79000  1.0000
  O   O22       1.0  0.25000  0.79000  0.79000  1.0000
  O   O23       1.0  0.54000  0.00000  0.79100  1.0000
  O   O24       1.0  1.00000  0.54000  0.79100  1.0000
  Sb  Sb1       1.0  0.50000  0.00000  0.00000  1.0000
  Sb  Sb2       1.0  0.24700  0.24700  0.00000  1.0000
  Sb  Sb3       1.0  0.00000  0.50000  0.00000  1.0000
  Sb  Sb4       1.0  0.75300  0.75300  0.00000  1.0000
  Sb  Sb5       1.0  0.24700  0.00000  0.24700  1.0000
  Sb  Sb6       1.0  0.00000  0.24700  0.24700  1.0000
  Sb  Sb7       1.0  0.00000  0.00000  0.50000  1.0000
  Sb  Sb8       1.0  0.50000  0.50000  0.50000  1.0000
  Sb  Sb9       1.0  0.75300  0.00000  0.75300  1.0000
  Sb  Sb10      1.0  0.00000  0.75300  0.75300  1.0000
