data_image0
_chemical_formula_structural       As8Cl8O16Pb8
_chemical_formula_sum              "As8 Cl8 O16 Pb8"
_cell_length_a       6.94588
_cell_length_b       9.91307
_cell_length_c       11.3516
_cell_angle_alpha    90
_cell_angle_beta     90
_cell_angle_gamma    90

_space_group_name_H-M_alt    "P 1"
_space_group_IT_number       1

loop_
  _space_group_symop_operation_xyz
  'x, y, z'

loop_
  _atom_site_type_symbol
  _atom_site_label
  _atom_site_symmetry_multiplicity
  _atom_site_fract_x
  _atom_site_fract_y
  _atom_site_fract_z
  _atom_site_occupancy
  As  As1       1.0  0.07490  0.38500  0.03440  1.0000
  As  As2       1.0  0.79700  0.19100  0.20500  1.0000
  As  As3       1.0  0.20300  0.69100  0.29500  1.0000
  As  As4       1.0  0.92500  0.88500  0.46600  1.0000
  As  As5       1.0  0.42500  0.61500  0.53400  1.0000
  As  As6       1.0  0.70300  0.80900  0.70500  1.0000
  As  As7       1.0  0.29700  0.30900  0.79500  1.0000
  As  As8       1.0  0.57500  0.11500  0.96600  1.0000
  Cl  Cl1       1.0  0.94000  0.72700  0.03320  1.0000
  Cl  Cl2       1.0  0.33800  0.01550  0.23800  1.0000
  Cl  Cl3       1.0  0.66200  0.51600  0.26200  1.0000
  Cl  Cl4       1.0  0.05990  0.22700  0.46700  1.0000
  Cl  Cl5       1.0  0.56000  0.27300  0.53300  1.0000
  Cl  Cl6       1.0  0.16200  0.98400  0.73800  1.0000
  Cl  Cl7       1.0  0.83800  0.48400  0.76200  1.0000
  Cl  Cl8       1.0  0.44000  0.77300  0.96700  1.0000
  O   O1        1.0  0.65900  0.24700  0.07250  1.0000
  O   O2        1.0  0.29600  0.43400  0.09640  1.0000
  O   O3        1.0  0.03390  0.25600  0.15200  1.0000
  O   O4        1.0  0.83700  0.02220  0.15800  1.0000
  O   O5        1.0  0.16300  0.52200  0.34200  1.0000
  O   O6        1.0  0.96600  0.75600  0.34800  1.0000
  O   O7        1.0  0.70400  0.93400  0.40400  1.0000
  O   O8        1.0  0.34100  0.74700  0.42800  1.0000
  O   O9        1.0  0.84100  0.75300  0.57200  1.0000
  O   O10       1.0  0.20400  0.56600  0.59600  1.0000
  O   O11       1.0  0.46600  0.74400  0.65200  1.0000
  O   O12       1.0  0.66300  0.97800  0.65800  1.0000
  O   O13       1.0  0.33700  0.47800  0.84200  1.0000
  O   O14       1.0  0.53400  0.24400  0.84800  1.0000
  O   O15       1.0  0.79600  0.06600  0.90400  1.0000
  O   O16       1.0  0.15900  0.25300  0.92800  1.0000
  Pb  Pb1       1.0  0.07960  0.99700  0.00813  1.0000
  Pb  Pb2       1.0  0.66200  0.82900  0.21500  1.0000
  Pb  Pb3       1.0  0.33800  0.32900  0.28500  1.0000
  Pb  Pb4       1.0  0.92000  0.49700  0.49200  1.0000
  Pb  Pb5       1.0  0.42000  0.00293  0.50800  1.0000
  Pb  Pb6       1.0  0.83800  0.17100  0.71500  1.0000
  Pb  Pb7       1.0  0.16200  0.67100  0.78500  1.0000
  Pb  Pb8       1.0  0.58000  0.50300  0.99200  1.0000
