data_image0
_chemical_formula_structural       Ir3Li
_chemical_formula_sum              "Ir3 Li1"
_cell_length_a       2.69477
_cell_length_b       4.70664
_cell_length_c       5.15027
_cell_angle_alpha    117.189
_cell_angle_beta     105.166
_cell_angle_gamma    90

_space_group_name_H-M_alt    "P 1"
_space_group_IT_number       1

loop_
  _space_group_symop_operation_xyz
  'x, y, z'

loop_
  _atom_site_type_symbol
  _atom_site_label
  _atom_site_symmetry_multiplicity
  _atom_site_fract_x
  _atom_site_fract_y
  _atom_site_fract_z
  _atom_site_occupancy
  Ir  Ir1       1.0  0.50000  0.50400  0.00000  1.0000
  Ir  Ir2       1.0  0.24100  0.93300  0.48200  1.0000
  Ir  Ir3       1.0  0.75900  0.45100  0.51800  1.0000
  Li  Li1       1.0  0.00000  0.01670  0.00000  1.0000
