data_image0
_chemical_formula_structural       Cu2H14O18S2Zn3
_chemical_formula_sum              "Cu2 H14 O18 S2 Zn3"
_cell_length_a       5.72773
_cell_length_b       6.54362
_cell_length_c       10.1042
_cell_angle_alpha    100.267
_cell_angle_beta     81.226
_cell_angle_gamma    78.4851

_space_group_name_H-M_alt    "P 1"
_space_group_IT_number       1

loop_
  _space_group_symop_operation_xyz
  'x, y, z'

loop_
  _atom_site_type_symbol
  _atom_site_label
  _atom_site_symmetry_multiplicity
  _atom_site_fract_x
  _atom_site_fract_y
  _atom_site_fract_z
  _atom_site_occupancy
  Cu  Cu1       1.0  0.00000  0.00000  0.50000  1.0000
  Cu  Cu2       1.0  0.00000  0.50000  0.50000  1.0000
  H   H1        1.0  0.37300  0.40000  0.10900  1.0000
  H   H2        1.0  0.33800  0.17600  0.13800  1.0000
  H   H3        1.0  0.26300  0.88600  0.14400  1.0000
  H   H4        1.0  0.98600  0.11800  0.28500  1.0000
  H   H5        1.0  0.36700  0.41200  0.30800  1.0000
  H   H6        1.0  0.34000  0.97200  0.33100  1.0000
  H   H7        1.0  0.90000  0.74200  0.33300  1.0000
  H   H8        1.0  0.09980  0.25800  0.66700  1.0000
  H   H9        1.0  0.66000  0.02820  0.66900  1.0000
  H   H10       1.0  0.63300  0.58800  0.69200  1.0000
  H   H11       1.0  0.01390  0.88200  0.71500  1.0000
  H   H12       1.0  0.73700  0.11400  0.85600  1.0000
  H   H13       1.0  0.66200  0.82400  0.86200  1.0000
  H   H14       1.0  0.62700  0.60000  0.89100  1.0000
  O   O1        1.0  0.85700  0.45400  0.10000  1.0000
  O   O2        1.0  0.77300  0.84700  0.12500  1.0000
  O   O3        1.0  0.16000  0.02800  0.14800  1.0000
  O   O4        1.0  0.44200  0.28300  0.15000  1.0000
  O   O5        1.0  0.44600  0.68200  0.18900  1.0000
  O   O6        1.0  0.75400  0.68700  0.32800  1.0000
  O   O7        1.0  0.88900  0.17300  0.38600  1.0000
  O   O8        1.0  0.32900  0.47100  0.41200  1.0000
  O   O9        1.0  0.31900  0.00208  0.43100  1.0000
  O   O10       1.0  0.68100  0.99800  0.56900  1.0000
  O   O11       1.0  0.67100  0.52900  0.58800  1.0000
  O   O12       1.0  0.11100  0.82700  0.61400  1.0000
  O   O13       1.0  0.24600  0.31300  0.67200  1.0000
  O   O14       1.0  0.55400  0.31800  0.81100  1.0000
  O   O15       1.0  0.55800  0.71700  0.85000  1.0000
  O   O16       1.0  0.84000  0.97200  0.85200  1.0000
  O   O17       1.0  0.22700  0.15300  0.87500  1.0000
  O   O18       1.0  0.14300  0.54600  0.90000  1.0000
  S   S1        1.0  0.70900  0.66000  0.16700  1.0000
  S   S2        1.0  0.29100  0.34000  0.83300  1.0000
  Zn  Zn1       1.0  0.00000  0.00000  0.00000  1.0000
  Zn  Zn2       1.0  0.53700  0.26000  0.48700  1.0000
  Zn  Zn3       1.0  0.46300  0.74000  0.51300  1.0000
