data_image0
_chemical_formula_structural       C16Co4Na4O16
_chemical_formula_sum              "C16 Co4 Na4 O16"
_cell_length_a       5.4908
_cell_length_b       13.4268
_cell_length_c       9.04301
_cell_angle_alpha    90
_cell_angle_beta     90
_cell_angle_gamma    90

_space_group_name_H-M_alt    "P 1"
_space_group_IT_number       1

loop_
  _space_group_symop_operation_xyz
  'x, y, z'

loop_
  _atom_site_type_symbol
  _atom_site_label
  _atom_site_symmetry_multiplicity
  _atom_site_fract_x
  _atom_site_fract_y
  _atom_site_fract_z
  _atom_site_occupancy
  C   C1        1.0  0.37400  0.12600  0.09320  1.0000
  C   C2        1.0  0.62600  0.62600  0.09320  1.0000
  C   C3        1.0  0.97000  0.03240  0.25000  1.0000
  C   C4        1.0  0.00793  0.22700  0.25000  1.0000
  C   C5        1.0  0.02990  0.53200  0.25000  1.0000
  C   C6        1.0  0.99200  0.72700  0.25000  1.0000
  C   C7        1.0  0.37400  0.12600  0.40700  1.0000
  C   C8        1.0  0.62600  0.62600  0.40700  1.0000
  C   C9        1.0  0.37400  0.37400  0.59300  1.0000
  C   C10       1.0  0.62600  0.87400  0.59300  1.0000
  C   C11       1.0  0.00793  0.27300  0.75000  1.0000
  C   C12       1.0  0.97000  0.46800  0.75000  1.0000
  C   C13       1.0  0.99200  0.77300  0.75000  1.0000
  C   C14       1.0  0.02990  0.96800  0.75000  1.0000
  C   C15       1.0  0.37400  0.37400  0.90700  1.0000
  C   C16       1.0  0.62600  0.87400  0.90700  1.0000
  Co  Co1       1.0  0.19200  0.12300  0.25000  1.0000
  Co  Co2       1.0  0.80800  0.62300  0.25000  1.0000
  Co  Co3       1.0  0.19200  0.37700  0.75000  1.0000
  Co  Co4       1.0  0.80800  0.87700  0.75000  1.0000
  Na  Na1       1.0  0.59000  0.42000  0.25000  1.0000
  Na  Na2       1.0  0.41000  0.92000  0.25000  1.0000
  Na  Na3       1.0  0.59000  0.08000  0.75000  1.0000
  Na  Na4       1.0  0.41000  0.58000  0.75000  1.0000
  O   O1        1.0  0.49900  0.37100  0.01180  1.0000
  O   O2        1.0  0.50100  0.87100  0.01180  1.0000
  O   O3        1.0  0.87300  0.29500  0.25000  1.0000
  O   O4        1.0  0.19500  0.47700  0.25000  1.0000
  O   O5        1.0  0.12700  0.79500  0.25000  1.0000
  O   O6        1.0  0.80500  0.97700  0.25000  1.0000
  O   O7        1.0  0.49900  0.37100  0.48800  1.0000
  O   O8        1.0  0.50100  0.87100  0.48800  1.0000
  O   O9        1.0  0.49900  0.12900  0.51200  1.0000
  O   O10       1.0  0.50100  0.62900  0.51200  1.0000
  O   O11       1.0  0.19500  0.02340  0.75000  1.0000
  O   O12       1.0  0.87300  0.20500  0.75000  1.0000
  O   O13       1.0  0.80500  0.52300  0.75000  1.0000
  O   O14       1.0  0.12700  0.70500  0.75000  1.0000
  O   O15       1.0  0.49900  0.12900  0.98800  1.0000
  O   O16       1.0  0.50100  0.62900  0.98800  1.0000
