data_image0
_chemical_formula_structural       Na4O24Se8Y4
_chemical_formula_sum              "Na4 O24 Se8 Y4"
_cell_length_a       5.37162
_cell_length_b       8.42341
_cell_length_c       12.6184
_cell_angle_alpha    90
_cell_angle_beta     90
_cell_angle_gamma    90

_space_group_name_H-M_alt    "P 1"
_space_group_IT_number       1

loop_
  _space_group_symop_operation_xyz
  'x, y, z'

loop_
  _atom_site_type_symbol
  _atom_site_label
  _atom_site_symmetry_multiplicity
  _atom_site_fract_x
  _atom_site_fract_y
  _atom_site_fract_z
  _atom_site_occupancy
  Na  Na1       1.0  0.71600  0.50200  0.12200  1.0000
  Na  Na2       1.0  0.21600  0.00169  0.37800  1.0000
  Na  Na3       1.0  0.71600  0.99800  0.62200  1.0000
  Na  Na4       1.0  0.21600  0.49800  0.87800  1.0000
  O   O1        1.0  0.11700  0.93500  0.01660  1.0000
  O   O2        1.0  0.00877  0.64100  0.01850  1.0000
  O   O3        1.0  0.48900  0.71900  0.03870  1.0000
  O   O4        1.0  0.31600  0.40700  0.17600  1.0000
  O   O5        1.0  0.92500  0.14500  0.19600  1.0000
  O   O6        1.0  0.44900  0.04170  0.21500  1.0000
  O   O7        1.0  0.94900  0.54200  0.28500  1.0000
  O   O8        1.0  0.42500  0.64500  0.30400  1.0000
  O   O9        1.0  0.81600  0.90700  0.32400  1.0000
  O   O10       1.0  0.98900  0.21900  0.46100  1.0000
  O   O11       1.0  0.50900  0.14100  0.48200  1.0000
  O   O12       1.0  0.61700  0.43500  0.48300  1.0000
  O   O13       1.0  0.11700  0.56500  0.51700  1.0000
  O   O14       1.0  0.00877  0.85900  0.51800  1.0000
  O   O15       1.0  0.48900  0.78100  0.53900  1.0000
  O   O16       1.0  0.31600  0.09270  0.67600  1.0000
  O   O17       1.0  0.92500  0.35500  0.69600  1.0000
  O   O18       1.0  0.44900  0.45800  0.71500  1.0000
  O   O19       1.0  0.94900  0.95800  0.78500  1.0000
  O   O20       1.0  0.42500  0.85500  0.80400  1.0000
  O   O21       1.0  0.81600  0.59300  0.82400  1.0000
  O   O22       1.0  0.98900  0.28100  0.96100  1.0000
  O   O23       1.0  0.50900  0.35900  0.98200  1.0000
  O   O24       1.0  0.61700  0.06480  0.98300  1.0000
  Se  Se1       1.0  0.20300  0.76400  0.08890  1.0000
  Se  Se2       1.0  0.75100  0.97300  0.19800  1.0000
  Se  Se3       1.0  0.25100  0.47300  0.30200  1.0000
  Se  Se4       1.0  0.70300  0.26400  0.41100  1.0000
  Se  Se5       1.0  0.20300  0.73600  0.58900  1.0000
  Se  Se6       1.0  0.75100  0.52700  0.69800  1.0000
  Se  Se7       1.0  0.25100  0.02710  0.80200  1.0000
  Se  Se8       1.0  0.70300  0.23600  0.91100  1.0000
  Y   Y1        1.0  0.25800  0.18100  0.08210  1.0000
  Y   Y2        1.0  0.75800  0.68100  0.41800  1.0000
  Y   Y3        1.0  0.25800  0.31900  0.58200  1.0000
  Y   Y4        1.0  0.75800  0.81900  0.91800  1.0000
