data_image0
_chemical_formula_structural       Cl28Ga12
_chemical_formula_sum              "Cl28 Ga12"
_cell_length_a       11.8591
_cell_length_b       9.00468
_cell_length_c       10.4834
_cell_angle_alpha    90
_cell_angle_beta     90
_cell_angle_gamma    90

_space_group_name_H-M_alt    "P 1"
_space_group_IT_number       1

loop_
  _space_group_symop_operation_xyz
  'x, y, z'

loop_
  _atom_site_type_symbol
  _atom_site_label
  _atom_site_symmetry_multiplicity
  _atom_site_fract_x
  _atom_site_fract_y
  _atom_site_fract_z
  _atom_site_occupancy
  Cl  Cl1       1.0  0.15300  0.63000  0.11500  1.0000
  Cl  Cl2       1.0  0.65300  0.87000  0.11500  1.0000
  Cl  Cl3       1.0  0.75600  0.24000  0.13100  1.0000
  Cl  Cl4       1.0  0.25600  0.26000  0.13100  1.0000
  Cl  Cl5       1.0  0.46600  0.54700  0.13800  1.0000
  Cl  Cl6       1.0  0.96600  0.95300  0.13800  1.0000
  Cl  Cl7       1.0  0.49700  0.20600  0.31700  1.0000
  Cl  Cl8       1.0  0.99700  0.29400  0.31700  1.0000
  Cl  Cl9       1.0  0.71800  0.54800  0.33400  1.0000
  Cl  Cl10      1.0  0.21800  0.95200  0.33400  1.0000
  Cl  Cl11      1.0  0.78500  0.01970  0.41500  1.0000
  Cl  Cl12      1.0  0.28500  0.48000  0.41500  1.0000
  Cl  Cl13      1.0  0.98900  0.66800  0.44000  1.0000
  Cl  Cl14      1.0  0.48900  0.83200  0.44000  1.0000
  Cl  Cl15      1.0  0.34700  0.13000  0.61500  1.0000
  Cl  Cl16      1.0  0.84700  0.37000  0.61500  1.0000
  Cl  Cl17      1.0  0.74400  0.74000  0.63100  1.0000
  Cl  Cl18      1.0  0.24400  0.76000  0.63100  1.0000
  Cl  Cl19      1.0  0.03410  0.04680  0.63800  1.0000
  Cl  Cl20      1.0  0.53400  0.45300  0.63800  1.0000
  Cl  Cl21      1.0  0.00282  0.70600  0.81700  1.0000
  Cl  Cl22      1.0  0.50300  0.79400  0.81700  1.0000
  Cl  Cl23      1.0  0.78200  0.04810  0.83400  1.0000
  Cl  Cl24      1.0  0.28200  0.45200  0.83400  1.0000
  Cl  Cl25      1.0  0.71500  0.52000  0.91500  1.0000
  Cl  Cl26      1.0  0.21500  0.98000  0.91500  1.0000
  Cl  Cl27      1.0  0.51100  0.16800  0.94000  1.0000
  Cl  Cl28      1.0  0.01150  0.33200  0.94000  1.0000
  Ga  Ga1       1.0  0.89400  0.64800  0.12900  1.0000
  Ga  Ga2       1.0  0.39400  0.85200  0.12900  1.0000
  Ga  Ga3       1.0  0.88400  0.11600  0.26300  1.0000
  Ga  Ga4       1.0  0.38400  0.38400  0.26300  1.0000
  Ga  Ga5       1.0  0.82900  0.56900  0.49700  1.0000
  Ga  Ga6       1.0  0.32900  0.93100  0.49700  1.0000
  Ga  Ga7       1.0  0.60600  0.14800  0.62900  1.0000
  Ga  Ga8       1.0  0.10600  0.35200  0.62900  1.0000
  Ga  Ga9       1.0  0.61600  0.61600  0.76300  1.0000
  Ga  Ga10      1.0  0.11600  0.88400  0.76300  1.0000
  Ga  Ga11      1.0  0.67100  0.06920  0.99700  1.0000
  Ga  Ga12      1.0  0.17100  0.43100  0.99700  1.0000
