data_image0
_chemical_formula_structural       F28Rh4Sr8
_chemical_formula_sum              "F28 Rh4 Sr8"
_cell_length_a       5.42895
_cell_length_b       11.4985
_cell_length_c       8.51695
_cell_angle_alpha    90
_cell_angle_beta     90.7541
_cell_angle_gamma    90

_space_group_name_H-M_alt    "P 1"
_space_group_IT_number       1

loop_
  _space_group_symop_operation_xyz
  'x, y, z'

loop_
  _atom_site_type_symbol
  _atom_site_label
  _atom_site_symmetry_multiplicity
  _atom_site_fract_x
  _atom_site_fract_y
  _atom_site_fract_z
  _atom_site_occupancy
  F   F1        1.0  0.10700  0.60500  0.01050  1.0000
  F   F2        1.0  0.76200  0.83200  0.04800  1.0000
  F   F3        1.0  0.57900  0.60000  0.10200  1.0000
  F   F4        1.0  0.62100  0.05150  0.12300  1.0000
  F   F5        1.0  0.12800  0.98300  0.17300  1.0000
  F   F6        1.0  0.52000  0.27800  0.18600  1.0000
  F   F7        1.0  0.00573  0.22700  0.21200  1.0000
  F   F8        1.0  0.99400  0.72700  0.28800  1.0000
  F   F9        1.0  0.48000  0.77800  0.31400  1.0000
  F   F10       1.0  0.87200  0.48300  0.32700  1.0000
  F   F11       1.0  0.37900  0.55200  0.37700  1.0000
  F   F12       1.0  0.42100  0.10000  0.39800  1.0000
  F   F13       1.0  0.23800  0.33200  0.45200  1.0000
  F   F14       1.0  0.89300  0.10500  0.49000  1.0000
  F   F15       1.0  0.10700  0.89500  0.51000  1.0000
  F   F16       1.0  0.76200  0.66800  0.54800  1.0000
  F   F17       1.0  0.57900  0.90000  0.60200  1.0000
  F   F18       1.0  0.62100  0.44800  0.62300  1.0000
  F   F19       1.0  0.12800  0.51700  0.67300  1.0000
  F   F20       1.0  0.52000  0.22200  0.68600  1.0000
  F   F21       1.0  0.00573  0.27300  0.71200  1.0000
  F   F22       1.0  0.99400  0.77300  0.78800  1.0000
  F   F23       1.0  0.48000  0.72200  0.81400  1.0000
  F   F24       1.0  0.87200  0.01710  0.82700  1.0000
  F   F25       1.0  0.37900  0.94800  0.87700  1.0000
  F   F26       1.0  0.42100  0.40000  0.89800  1.0000
  F   F27       1.0  0.23800  0.16800  0.95200  1.0000
  F   F28       1.0  0.89300  0.39500  0.99000  1.0000
  Rh  Rh1       1.0  0.31200  0.13300  0.17700  1.0000
  Rh  Rh2       1.0  0.68800  0.63300  0.32300  1.0000
  Rh  Rh3       1.0  0.31200  0.36700  0.67700  1.0000
  Rh  Rh4       1.0  0.68800  0.86700  0.82300  1.0000
  Sr  Sr1       1.0  0.23900  0.79200  0.05610  1.0000
  Sr  Sr2       1.0  0.22600  0.44000  0.15500  1.0000
  Sr  Sr3       1.0  0.77400  0.94000  0.34500  1.0000
  Sr  Sr4       1.0  0.76100  0.29200  0.44400  1.0000
  Sr  Sr5       1.0  0.23900  0.70800  0.55600  1.0000
  Sr  Sr6       1.0  0.22600  0.06050  0.65500  1.0000
  Sr  Sr7       1.0  0.77400  0.56000  0.84500  1.0000
  Sr  Sr8       1.0  0.76100  0.20800  0.94400  1.0000
