data_image0
_chemical_formula_structural       Ag20Ge4O16
_chemical_formula_sum              "Ag20 Ge4 O16"
_cell_length_a       6.4492
_cell_length_b       9.93292
_cell_length_c       9.19886
_cell_angle_alpha    90
_cell_angle_beta     91.613
_cell_angle_gamma    90

_space_group_name_H-M_alt    "P 1"
_space_group_IT_number       1

loop_
  _space_group_symop_operation_xyz
  'x, y, z'

loop_
  _atom_site_type_symbol
  _atom_site_label
  _atom_site_symmetry_multiplicity
  _atom_site_fract_x
  _atom_site_fract_y
  _atom_site_fract_z
  _atom_site_occupancy
  Ag  Ag1       1.0  0.71200  0.87500  0.06040  1.0000
  Ag  Ag2       1.0  0.27700  0.87800  0.07570  1.0000
  Ag  Ag3       1.0  0.16500  0.41500  0.09180  1.0000
  Ag  Ag4       1.0  0.72400  0.35900  0.11700  1.0000
  Ag  Ag5       1.0  0.52100  0.09710  0.19700  1.0000
  Ag  Ag6       1.0  0.97900  0.59700  0.30300  1.0000
  Ag  Ag7       1.0  0.77600  0.85900  0.38300  1.0000
  Ag  Ag8       1.0  0.33500  0.91500  0.40800  1.0000
  Ag  Ag9       1.0  0.22300  0.37800  0.42400  1.0000
  Ag  Ag10      1.0  0.78800  0.37500  0.44000  1.0000
  Ag  Ag11      1.0  0.21200  0.62500  0.56000  1.0000
  Ag  Ag12      1.0  0.77700  0.62200  0.57600  1.0000
  Ag  Ag13      1.0  0.66500  0.08520  0.59200  1.0000
  Ag  Ag14      1.0  0.22400  0.14100  0.61700  1.0000
  Ag  Ag15      1.0  0.02100  0.40300  0.69700  1.0000
  Ag  Ag16      1.0  0.47900  0.90300  0.80300  1.0000
  Ag  Ag17      1.0  0.27600  0.64100  0.88300  1.0000
  Ag  Ag18      1.0  0.83500  0.58500  0.90800  1.0000
  Ag  Ag19      1.0  0.72300  0.12200  0.92400  1.0000
  Ag  Ag20      1.0  0.28800  0.12500  0.94000  1.0000
  Ge  Ge1       1.0  0.48900  0.61300  0.24100  1.0000
  Ge  Ge2       1.0  0.01090  0.11300  0.25900  1.0000
  Ge  Ge3       1.0  0.98900  0.88700  0.74100  1.0000
  Ge  Ge4       1.0  0.51100  0.38700  0.75900  1.0000
  O   O1        1.0  0.01180  0.20800  0.09340  1.0000
  O   O2        1.0  0.71100  0.65500  0.14000  1.0000
  O   O3        1.0  0.25200  0.64400  0.14100  1.0000
  O   O4        1.0  0.00492  0.93600  0.22600  1.0000
  O   O5        1.0  0.49500  0.43600  0.27400  1.0000
  O   O6        1.0  0.24800  0.14400  0.35900  1.0000
  O   O7        1.0  0.78900  0.15500  0.36000  1.0000
  O   O8        1.0  0.48800  0.70800  0.40700  1.0000
  O   O9        1.0  0.51200  0.29200  0.59300  1.0000
  O   O10       1.0  0.21100  0.84500  0.64000  1.0000
  O   O11       1.0  0.75200  0.85600  0.64100  1.0000
  O   O12       1.0  0.50500  0.56400  0.72600  1.0000
  O   O13       1.0  0.99500  0.06430  0.77400  1.0000
  O   O14       1.0  0.74800  0.35600  0.85900  1.0000
  O   O15       1.0  0.28900  0.34500  0.86000  1.0000
  O   O16       1.0  0.98800  0.79200  0.90700  1.0000
