data_image0
_chemical_formula_structural       La4Na4O24Se8
_chemical_formula_sum              "La4 Na4 O24 Se8"
_cell_length_a       6.64009
_cell_length_b       6.72294
_cell_length_c       13.1107
_cell_angle_alpha    90
_cell_angle_beta     101.038
_cell_angle_gamma    90

_space_group_name_H-M_alt    "P 1"
_space_group_IT_number       1

loop_
  _space_group_symop_operation_xyz
  'x, y, z'

loop_
  _atom_site_type_symbol
  _atom_site_label
  _atom_site_symmetry_multiplicity
  _atom_site_fract_x
  _atom_site_fract_y
  _atom_site_fract_z
  _atom_site_occupancy
  La  La1       1.0  0.66000  0.11800  0.16400  1.0000
  La  La2       1.0  0.84000  0.61800  0.33600  1.0000
  La  La3       1.0  0.16000  0.38200  0.66400  1.0000
  La  La4       1.0  0.34000  0.88200  0.83600  1.0000
  Na  Na1       1.0  0.19500  0.83100  0.11900  1.0000
  Na  Na2       1.0  0.30500  0.33100  0.38100  1.0000
  Na  Na3       1.0  0.69500  0.66900  0.61900  1.0000
  Na  Na4       1.0  0.80500  0.16900  0.88100  1.0000
  O   O1        1.0  0.50000  0.81900  0.03350  1.0000
  O   O2        1.0  0.92400  0.21300  0.05360  1.0000
  O   O3        1.0  0.59200  0.48300  0.14500  1.0000
  O   O4        1.0  0.86000  0.78000  0.15900  1.0000
  O   O5        1.0  0.29400  0.16200  0.17100  1.0000
  O   O6        1.0  0.99100  0.32900  0.24600  1.0000
  O   O7        1.0  0.50900  0.82900  0.25400  1.0000
  O   O8        1.0  0.20600  0.66200  0.32900  1.0000
  O   O9        1.0  0.64000  0.28000  0.34100  1.0000
  O   O10       1.0  0.90800  0.98300  0.35500  1.0000
  O   O11       1.0  0.57600  0.71300  0.44600  1.0000
  O   O12       1.0  0.00000  0.31900  0.46700  1.0000
  O   O13       1.0  0.00045  0.68100  0.53300  1.0000
  O   O14       1.0  0.42400  0.28700  0.55400  1.0000
  O   O15       1.0  0.09240  0.01740  0.64500  1.0000
  O   O16       1.0  0.36000  0.72000  0.65900  1.0000
  O   O17       1.0  0.79400  0.33800  0.67100  1.0000
  O   O18       1.0  0.49100  0.17100  0.74600  1.0000
  O   O19       1.0  0.00924  0.67100  0.75400  1.0000
  O   O20       1.0  0.70600  0.83800  0.82900  1.0000
  O   O21       1.0  0.14000  0.22000  0.84100  1.0000
  O   O22       1.0  0.40800  0.51700  0.85500  1.0000
  O   O23       1.0  0.07570  0.78700  0.94600  1.0000
  O   O24       1.0  0.50000  0.18100  0.96700  1.0000
  Se  Se1       1.0  0.69100  0.64500  0.06600  1.0000
  Se  Se2       1.0  0.10900  0.34100  0.13900  1.0000
  Se  Se3       1.0  0.39100  0.84100  0.36100  1.0000
  Se  Se4       1.0  0.80900  0.14500  0.43400  1.0000
  Se  Se5       1.0  0.19100  0.85500  0.56600  1.0000
  Se  Se6       1.0  0.60900  0.15900  0.63900  1.0000
  Se  Se7       1.0  0.89100  0.65900  0.86100  1.0000
  Se  Se8       1.0  0.30900  0.35500  0.93400  1.0000
