data_image0
_chemical_formula_structural       CeGe3Ir
_chemical_formula_sum              "Ce1 Ge3 Ir1"
_cell_length_a       4.46534
_cell_length_b       4.46534
_cell_length_c       5.97596
_cell_angle_alpha    111.938
_cell_angle_beta     111.938
_cell_angle_gamma    90

_space_group_name_H-M_alt    "P 1"
_space_group_IT_number       1

loop_
  _space_group_symop_operation_xyz
  'x, y, z'

loop_
  _atom_site_type_symbol
  _atom_site_label
  _atom_site_symmetry_multiplicity
  _atom_site_fract_x
  _atom_site_fract_y
  _atom_site_fract_z
  _atom_site_occupancy
  Ce  Ce1       1.0  0.58000  0.58000  0.16000  1.0000
  Ge  Ge1       1.0  0.00041  0.00041  0.00082  1.0000
  Ge  Ge2       1.0  0.84300  0.34300  0.68700  1.0000
  Ge  Ge3       1.0  0.34300  0.84300  0.68700  1.0000
  Ir  Ir1       1.0  0.23900  0.23900  0.47700  1.0000
