data_image0
_chemical_formula_structural       In6O24Sb10
_chemical_formula_sum              "In6 O24 Sb10"
_cell_length_a       9.13632
_cell_length_b       9.13632
_cell_length_c       9.13632
_cell_angle_alpha    109.53
_cell_angle_beta     109.53
_cell_angle_gamma    109.53

_space_group_name_H-M_alt    "P 1"
_space_group_IT_number       1

loop_
  _space_group_symop_operation_xyz
  'x, y, z'

loop_
  _atom_site_type_symbol
  _atom_site_label
  _atom_site_symmetry_multiplicity
  _atom_site_fract_x
  _atom_site_fract_y
  _atom_site_fract_z
  _atom_site_occupancy
  In  In1       1.0  0.74800  0.49800  0.24800  1.0000
  In  In2       1.0  0.49800  0.74800  0.24800  1.0000
  In  In3       1.0  0.74800  0.24800  0.49800  1.0000
  In  In4       1.0  0.24800  0.74800  0.49800  1.0000
  In  In5       1.0  0.49800  0.24800  0.74800  1.0000
  In  In6       1.0  0.24800  0.49800  0.74800  1.0000
  O   O1        1.0  0.72200  0.20000  0.20000  1.0000
  O   O2        1.0  0.20000  0.72200  0.20000  1.0000
  O   O3        1.0  0.70400  0.70400  0.20600  1.0000
  O   O4        1.0  0.47300  0.47300  0.27200  1.0000
  O   O5        1.0  0.99700  0.50100  0.29200  1.0000
  O   O6        1.0  0.50100  0.99700  0.29200  1.0000
  O   O7        1.0  0.27200  0.47300  0.47300  1.0000
  O   O8        1.0  0.47300  0.27200  0.47300  1.0000
  O   O9        1.0  0.78800  0.49500  0.49500  1.0000
  O   O10       1.0  0.49500  0.78800  0.49500  1.0000
  O   O11       1.0  0.29200  0.99700  0.50100  1.0000
  O   O12       1.0  0.99700  0.29200  0.50100  1.0000
  O   O13       1.0  0.79700  0.99800  0.52200  1.0000
  O   O14       1.0  0.99800  0.79700  0.52200  1.0000
  O   O15       1.0  0.70400  0.20600  0.70400  1.0000
  O   O16       1.0  0.20600  0.70400  0.70400  1.0000
  O   O17       1.0  0.20000  0.20000  0.72200  1.0000
  O   O18       1.0  0.49500  0.49500  0.78800  1.0000
  O   O19       1.0  0.52200  0.99800  0.79700  1.0000
  O   O20       1.0  0.99800  0.52200  0.79700  1.0000
  O   O21       1.0  0.29200  0.50100  0.99700  1.0000
  O   O22       1.0  0.50100  0.29200  0.99700  1.0000
  O   O23       1.0  0.52200  0.79700  0.99800  1.0000
  O   O24       1.0  0.79700  0.52200  0.99800  1.0000
  Sb  Sb1       1.0  0.27500  0.99600  0.27500  1.0000
  Sb  Sb2       1.0  0.99600  0.27500  0.27500  1.0000
  Sb  Sb3       1.0  0.99700  0.99700  0.47500  1.0000
  Sb  Sb4       1.0  0.51900  0.51900  0.51900  1.0000
  Sb  Sb5       1.0  0.99800  0.72000  0.72000  1.0000
  Sb  Sb6       1.0  0.72000  0.99800  0.72000  1.0000
  Sb  Sb7       1.0  0.27500  0.27500  0.99600  1.0000
  Sb  Sb8       1.0  0.47500  0.99700  0.99700  1.0000
  Sb  Sb9       1.0  0.99700  0.47500  0.99700  1.0000
  Sb  Sb10      1.0  0.72000  0.72000  0.99800  1.0000
