data_image0
_chemical_formula_structural       Ga9K3
_chemical_formula_sum              "Ga9 K3"
_cell_length_a       6.30025
_cell_length_b       6.30025
_cell_length_c       8.66373
_cell_angle_alpha    111.321
_cell_angle_beta     111.321
_cell_angle_gamma    90

_space_group_name_H-M_alt    "P 1"
_space_group_IT_number       1

loop_
  _space_group_symop_operation_xyz
  'x, y, z'

loop_
  _atom_site_type_symbol
  _atom_site_label
  _atom_site_symmetry_multiplicity
  _atom_site_fract_x
  _atom_site_fract_y
  _atom_site_fract_z
  _atom_site_occupancy
  Ga  Ga1       1.0  0.32300  0.02850  0.05700  1.0000
  Ga  Ga2       1.0  0.73400  0.02850  0.05700  1.0000
  Ga  Ga3       1.0  0.14300  0.33800  0.28600  1.0000
  Ga  Ga4       1.0  0.14300  0.94800  0.28600  1.0000
  Ga  Ga5       1.0  0.25000  0.75000  0.50000  1.0000
  Ga  Ga6       1.0  0.05200  0.85700  0.71400  1.0000
  Ga  Ga7       1.0  0.66200  0.85700  0.71400  1.0000
  Ga  Ga8       1.0  0.97200  0.26600  0.94300  1.0000
  Ga  Ga9       1.0  0.97200  0.67700  0.94300  1.0000
  K   K1        1.0  0.62400  0.62400  0.24900  1.0000
  K   K2        1.0  0.75000  0.25000  0.50000  1.0000
  K   K3        1.0  0.37600  0.37600  0.75100  1.0000
