data_image0
_chemical_formula_structural       F20Hg6Nb4O8S2
_chemical_formula_sum              "F20 Hg6 Nb4 O8 S2"
_cell_length_a       8.8756
_cell_length_b       8.8756
_cell_length_c       9.89983
_cell_angle_alpha    102.394
_cell_angle_beta     102.394
_cell_angle_gamma    121.413

_space_group_name_H-M_alt    "P 1"
_space_group_IT_number       1

loop_
  _space_group_symop_operation_xyz
  'x, y, z'

loop_
  _atom_site_type_symbol
  _atom_site_label
  _atom_site_symmetry_multiplicity
  _atom_site_fract_x
  _atom_site_fract_y
  _atom_site_fract_z
  _atom_site_occupancy
  F   F1        1.0  0.76000  0.34800  0.10200  1.0000
  F   F2        1.0  0.60300  0.97200  0.11500  1.0000
  F   F3        1.0  0.15700  0.54000  0.11900  1.0000
  F   F4        1.0  0.26700  0.90000  0.13500  1.0000
  F   F5        1.0  0.91700  0.76700  0.17200  1.0000
  F   F6        1.0  0.49500  0.84400  0.32800  1.0000
  F   F7        1.0  0.88100  0.01480  0.36500  1.0000
  F   F8        1.0  0.78800  0.67200  0.38100  1.0000
  F   F9        1.0  0.23800  0.10700  0.38500  1.0000
  F   F10       1.0  0.40800  0.49600  0.39800  1.0000
  F   F11       1.0  0.09830  0.01030  0.60200  1.0000
  F   F12       1.0  0.72200  0.85300  0.61500  1.0000
  F   F13       1.0  0.29000  0.40700  0.61900  1.0000
  F   F14       1.0  0.65000  0.51700  0.63500  1.0000
  F   F15       1.0  0.51700  0.16700  0.67200  1.0000
  F   F16       1.0  0.59400  0.74500  0.82800  1.0000
  F   F17       1.0  0.76500  0.13100  0.86500  1.0000
  F   F18       1.0  0.42200  0.03790  0.88100  1.0000
  F   F19       1.0  0.85700  0.48800  0.88500  1.0000
  F   F20       1.0  0.24600  0.65800  0.89800  1.0000
  Hg  Hg1       1.0  0.98000  0.98000  0.00000  1.0000
  Hg  Hg2       1.0  0.01210  0.24400  0.19900  1.0000
  Hg  Hg3       1.0  0.56400  0.29500  0.30100  1.0000
  Hg  Hg4       1.0  0.73000  0.23000  0.50000  1.0000
  Hg  Hg5       1.0  0.99400  0.26200  0.69900  1.0000
  Hg  Hg6       1.0  0.04510  0.81400  0.80100  1.0000
  Nb  Nb1       1.0  0.37400  0.76300  0.11400  1.0000
  Nb  Nb2       1.0  0.00928  0.89800  0.38600  1.0000
  Nb  Nb3       1.0  0.51300  0.62400  0.61400  1.0000
  Nb  Nb4       1.0  0.64800  0.25900  0.88600  1.0000
  O   O1        1.0  0.48400  0.60800  0.07970  1.0000
  O   O2        1.0  0.39900  0.31100  0.10800  1.0000
  O   O3        1.0  0.04160  0.45300  0.39200  1.0000
  O   O4        1.0  0.15400  0.77800  0.42000  1.0000
  O   O5        1.0  0.35800  0.73400  0.58000  1.0000
  O   O6        1.0  0.06130  0.64900  0.60800  1.0000
  O   O7        1.0  0.20300  0.29200  0.89200  1.0000
  O   O8        1.0  0.52800  0.40400  0.92000  1.0000
  S   S1        1.0  0.40100  0.40100  0.00000  1.0000
  S   S2        1.0  0.15100  0.65100  0.50000  1.0000
