data_image0
_chemical_formula_structural       H28I4N8
_chemical_formula_sum              "H28 I4 N8"
_cell_length_a       7.31292
_cell_length_b       7.2131
_cell_length_c       9.188
_cell_angle_alpha    90
_cell_angle_beta     90
_cell_angle_gamma    90

_space_group_name_H-M_alt    "P 1"
_space_group_IT_number       1

loop_
  _space_group_symop_operation_xyz
  'x, y, z'

loop_
  _atom_site_type_symbol
  _atom_site_label
  _atom_site_symmetry_multiplicity
  _atom_site_fract_x
  _atom_site_fract_y
  _atom_site_fract_z
  _atom_site_occupancy
  H   H1        1.0  0.00000  0.00000  0.00000  1.0000
  H   H2        1.0  0.50000  0.50000  0.00000  1.0000
  H   H3        1.0  0.25400  0.57400  0.04890  1.0000
  H   H4        1.0  0.75400  0.92600  0.04890  1.0000
  H   H5        1.0  0.41300  0.73700  0.06560  1.0000
  H   H6        1.0  0.91300  0.76300  0.06560  1.0000
  H   H7        1.0  0.15700  0.17300  0.09980  1.0000
  H   H8        1.0  0.65700  0.32700  0.09980  1.0000
  H   H9        1.0  0.65700  0.67300  0.40000  1.0000
  H   H10       1.0  0.15700  0.82700  0.40000  1.0000
  H   H11       1.0  0.91300  0.23700  0.43400  1.0000
  H   H12       1.0  0.41300  0.26300  0.43400  1.0000
  H   H13       1.0  0.75400  0.07400  0.45100  1.0000
  H   H14       1.0  0.25400  0.42600  0.45100  1.0000
  H   H15       1.0  0.00000  0.00000  0.50000  1.0000
  H   H16       1.0  0.50000  0.50000  0.50000  1.0000
  H   H17       1.0  0.74600  0.57400  0.54900  1.0000
  H   H18       1.0  0.24600  0.92600  0.54900  1.0000
  H   H19       1.0  0.58700  0.73700  0.56600  1.0000
  H   H20       1.0  0.08730  0.76300  0.56600  1.0000
  H   H21       1.0  0.84300  0.17300  0.60000  1.0000
  H   H22       1.0  0.34300  0.32700  0.60000  1.0000
  H   H23       1.0  0.34300  0.67300  0.90000  1.0000
  H   H24       1.0  0.84300  0.82700  0.90000  1.0000
  H   H25       1.0  0.08730  0.23700  0.93400  1.0000
  H   H26       1.0  0.58700  0.26300  0.93400  1.0000
  H   H27       1.0  0.24600  0.07400  0.95100  1.0000
  H   H28       1.0  0.74600  0.42600  0.95100  1.0000
  I   I1        1.0  0.50000  0.00000  0.25000  1.0000
  I   I2        1.0  0.00000  0.50000  0.25000  1.0000
  I   I3        1.0  0.50000  0.00000  0.75000  1.0000
  I   I4        1.0  0.00021  0.50000  0.75000  1.0000
  N   N1        1.0  0.37200  0.62500  0.00305  1.0000
  N   N2        1.0  0.87200  0.87500  0.00305  1.0000
  N   N3        1.0  0.87200  0.12500  0.49700  1.0000
  N   N4        1.0  0.37200  0.37500  0.49700  1.0000
  N   N5        1.0  0.62800  0.62500  0.50300  1.0000
  N   N6        1.0  0.12800  0.87500  0.50300  1.0000
  N   N7        1.0  0.12800  0.12500  0.99700  1.0000
  N   N8        1.0  0.62800  0.37500  0.99700  1.0000
