data_image0
_chemical_formula_structural       Ba12Bi4Cl12O12
_chemical_formula_sum              "Ba12 Bi4 Cl12 O12"
_cell_length_a       7.07776
_cell_length_b       12.1126
_cell_length_c       12.1359
_cell_angle_alpha    90
_cell_angle_beta     90
_cell_angle_gamma    90

_space_group_name_H-M_alt    "P 1"
_space_group_IT_number       1

loop_
  _space_group_symop_operation_xyz
  'x, y, z'

loop_
  _atom_site_type_symbol
  _atom_site_label
  _atom_site_symmetry_multiplicity
  _atom_site_fract_x
  _atom_site_fract_y
  _atom_site_fract_z
  _atom_site_occupancy
  Ba  Ba1       1.0  0.35000  0.75000  0.02770  1.0000
  Ba  Ba2       1.0  0.82800  0.56800  0.11300  1.0000
  Ba  Ba3       1.0  0.82800  0.93200  0.11300  1.0000
  Ba  Ba4       1.0  0.32800  0.56800  0.38700  1.0000
  Ba  Ba5       1.0  0.32800  0.93200  0.38700  1.0000
  Ba  Ba6       1.0  0.85000  0.75000  0.47200  1.0000
  Ba  Ba7       1.0  0.15000  0.25000  0.52800  1.0000
  Ba  Ba8       1.0  0.67200  0.06850  0.61300  1.0000
  Ba  Ba9       1.0  0.67200  0.43200  0.61300  1.0000
  Ba  Ba10      1.0  0.17200  0.06850  0.88700  1.0000
  Ba  Ba11      1.0  0.17200  0.43200  0.88700  1.0000
  Ba  Ba12      1.0  0.65000  0.25000  0.97200  1.0000
  Bi  Bi1       1.0  0.09620  0.25000  0.12800  1.0000
  Bi  Bi2       1.0  0.59600  0.25000  0.37200  1.0000
  Bi  Bi3       1.0  0.40400  0.75000  0.62800  1.0000
  Bi  Bi4       1.0  0.90400  0.75000  0.87200  1.0000
  Cl  Cl1       1.0  0.39300  0.00435  0.13700  1.0000
  Cl  Cl2       1.0  0.39300  0.49600  0.13700  1.0000
  Cl  Cl3       1.0  0.08470  0.75000  0.23400  1.0000
  Cl  Cl4       1.0  0.58500  0.75000  0.26600  1.0000
  Cl  Cl5       1.0  0.89300  0.00435  0.36300  1.0000
  Cl  Cl6       1.0  0.89300  0.49600  0.36300  1.0000
  Cl  Cl7       1.0  0.10700  0.50400  0.63700  1.0000
  Cl  Cl8       1.0  0.10700  0.99600  0.63700  1.0000
  Cl  Cl9       1.0  0.41500  0.25000  0.73400  1.0000
  Cl  Cl10      1.0  0.91500  0.25000  0.76600  1.0000
  Cl  Cl11      1.0  0.60700  0.50400  0.86300  1.0000
  Cl  Cl12      1.0  0.60700  0.99600  0.86300  1.0000
  O   O1        1.0  0.71400  0.75000  0.00242  1.0000
  O   O2        1.0  0.92900  0.12700  0.05430  1.0000
  O   O3        1.0  0.92900  0.37300  0.05430  1.0000
  O   O4        1.0  0.42900  0.12700  0.44600  1.0000
  O   O5        1.0  0.42900  0.37300  0.44600  1.0000
  O   O6        1.0  0.21400  0.75000  0.49800  1.0000
  O   O7        1.0  0.78600  0.25000  0.50200  1.0000
  O   O8        1.0  0.57100  0.62700  0.55400  1.0000
  O   O9        1.0  0.57100  0.87300  0.55400  1.0000
  O   O10       1.0  0.07150  0.62700  0.94600  1.0000
  O   O11       1.0  0.07150  0.87300  0.94600  1.0000
  O   O12       1.0  0.28600  0.25000  0.99800  1.0000
