data_image0
_chemical_formula_structural       B4H16Na4O16
_chemical_formula_sum              "B4 H16 Na4 O16"
_cell_length_a       5.77165
_cell_length_b       10.1361
_cell_length_c       5.97689
_cell_angle_alpha    90
_cell_angle_beta     112.588
_cell_angle_gamma    90

_space_group_name_H-M_alt    "P 1"
_space_group_IT_number       1

loop_
  _space_group_symop_operation_xyz
  'x, y, z'

loop_
  _atom_site_type_symbol
  _atom_site_label
  _atom_site_symmetry_multiplicity
  _atom_site_fract_x
  _atom_site_fract_y
  _atom_site_fract_z
  _atom_site_occupancy
  B   B1        1.0  0.72900  0.09220  0.27400  1.0000
  B   B2        1.0  0.22900  0.40800  0.27400  1.0000
  B   B3        1.0  0.27100  0.90800  0.72600  1.0000
  B   B4        1.0  0.77100  0.59200  0.72600  1.0000
  H   H1        1.0  0.08280  0.61900  0.03620  1.0000
  H   H2        1.0  0.58300  0.88100  0.03620  1.0000
  H   H3        1.0  0.43300  0.30200  0.13200  1.0000
  H   H4        1.0  0.93300  0.19800  0.13200  1.0000
  H   H5        1.0  0.36200  0.59600  0.38400  1.0000
  H   H6        1.0  0.86200  0.90400  0.38400  1.0000
  H   H7        1.0  0.35400  0.24400  0.50000  1.0000
  H   H8        1.0  0.85400  0.25600  0.50000  1.0000
  H   H9        1.0  0.14600  0.74400  0.50000  1.0000
  H   H10       1.0  0.64600  0.75600  0.50000  1.0000
  H   H11       1.0  0.13800  0.09640  0.61600  1.0000
  H   H12       1.0  0.63800  0.40400  0.61600  1.0000
  H   H13       1.0  0.06730  0.80200  0.86800  1.0000
  H   H14       1.0  0.56700  0.69800  0.86800  1.0000
  H   H15       1.0  0.41700  0.11900  0.96400  1.0000
  H   H16       1.0  0.91700  0.38100  0.96400  1.0000
  Na  Na1       1.0  0.25400  0.98200  0.24300  1.0000
  Na  Na2       1.0  0.75400  0.51800  0.24300  1.0000
  Na  Na3       1.0  0.24600  0.48200  0.75700  1.0000
  Na  Na4       1.0  0.74600  0.01840  0.75700  1.0000
  O   O1        1.0  0.47500  0.14600  0.13700  1.0000
  O   O2        1.0  0.97500  0.35400  0.13700  1.0000
  O   O3        1.0  0.39100  0.39800  0.14000  1.0000
  O   O4        1.0  0.89100  0.10200  0.14000  1.0000
  O   O5        1.0  0.69700  0.95000  0.32700  1.0000
  O   O6        1.0  0.19700  0.55000  0.32700  1.0000
  O   O7        1.0  0.16200  0.83900  0.48600  1.0000
  O   O8        1.0  0.66200  0.66100  0.48600  1.0000
  O   O9        1.0  0.33800  0.33900  0.51400  1.0000
  O   O10       1.0  0.83800  0.16100  0.51400  1.0000
  O   O11       1.0  0.30300  0.04960  0.67300  1.0000
  O   O12       1.0  0.80300  0.45000  0.67300  1.0000
  O   O13       1.0  0.60900  0.60200  0.86000  1.0000
  O   O14       1.0  0.10900  0.89800  0.86000  1.0000
  O   O15       1.0  0.02490  0.64600  0.86300  1.0000
  O   O16       1.0  0.52500  0.85400  0.86300  1.0000
