data_image0
_chemical_formula_structural       As8Mo4O28
_chemical_formula_sum              "As8 Mo4 O28"
_cell_length_a       16.0378
_cell_length_b       4.51632
_cell_length_c       7.64373
_cell_angle_alpha    90
_cell_angle_beta     100.302
_cell_angle_gamma    90

_space_group_name_H-M_alt    "P 1"
_space_group_IT_number       1

loop_
  _space_group_symop_operation_xyz
  'x, y, z'

loop_
  _atom_site_type_symbol
  _atom_site_label
  _atom_site_symmetry_multiplicity
  _atom_site_fract_x
  _atom_site_fract_y
  _atom_site_fract_z
  _atom_site_occupancy
  As  As1       1.0  0.71400  0.92900  0.10600  1.0000
  As  As2       1.0  0.94300  0.54000  0.18200  1.0000
  As  As3       1.0  0.55700  0.04040  0.31800  1.0000
  As  As4       1.0  0.78600  0.42900  0.39400  1.0000
  As  As5       1.0  0.21400  0.57100  0.60600  1.0000
  As  As6       1.0  0.44300  0.96000  0.68200  1.0000
  As  As7       1.0  0.05720  0.46000  0.81800  1.0000
  As  As8       1.0  0.28600  0.07140  0.89400  1.0000
  Mo  Mo1       1.0  0.10200  0.00255  0.16600  1.0000
  Mo  Mo2       1.0  0.39800  0.50300  0.33400  1.0000
  Mo  Mo3       1.0  0.60200  0.49700  0.66600  1.0000
  Mo  Mo4       1.0  0.89800  0.99700  0.83400  1.0000
  O   O1        1.0  0.87100  0.75100  0.03810  1.0000
  O   O2        1.0  0.97600  0.24200  0.07070  1.0000
  O   O3        1.0  0.60200  0.89400  0.15100  1.0000
  O   O4        1.0  0.37200  0.74000  0.15800  1.0000
  O   O5        1.0  0.73400  0.30900  0.17100  1.0000
  O   O6        1.0  0.18800  0.77800  0.17200  1.0000
  O   O7        1.0  0.47400  0.25400  0.21500  1.0000
  O   O8        1.0  0.02590  0.75400  0.28500  1.0000
  O   O9        1.0  0.31200  0.27800  0.32800  1.0000
  O   O10       1.0  0.76600  0.80900  0.32900  1.0000
  O   O11       1.0  0.12800  0.24000  0.34200  1.0000
  O   O12       1.0  0.89800  0.39400  0.34900  1.0000
  O   O13       1.0  0.52400  0.74200  0.42900  1.0000
  O   O14       1.0  0.62900  0.25100  0.46200  1.0000
  O   O15       1.0  0.37100  0.74900  0.53800  1.0000
  O   O16       1.0  0.47600  0.25800  0.57100  1.0000
  O   O17       1.0  0.10200  0.60600  0.65100  1.0000
  O   O18       1.0  0.87200  0.76000  0.65800  1.0000
  O   O19       1.0  0.23400  0.19100  0.67100  1.0000
  O   O20       1.0  0.68800  0.72200  0.67200  1.0000
  O   O21       1.0  0.97400  0.24600  0.71500  1.0000
  O   O22       1.0  0.52600  0.74600  0.78500  1.0000
  O   O23       1.0  0.81200  0.22200  0.82800  1.0000
  O   O24       1.0  0.26600  0.69100  0.82900  1.0000
  O   O25       1.0  0.62800  0.26000  0.84200  1.0000
  O   O26       1.0  0.39800  0.10600  0.84900  1.0000
  O   O27       1.0  0.02370  0.75800  0.92900  1.0000
  O   O28       1.0  0.12900  0.24900  0.96200  1.0000
