data_image0
_chemical_formula_structural       Hg8Na16S16
_chemical_formula_sum              "Hg8 Na16 S16"
_cell_length_a       18.2572
_cell_length_b       7.52531
_cell_length_c       7.3321
_cell_angle_alpha    90
_cell_angle_beta     90
_cell_angle_gamma    90

_space_group_name_H-M_alt    "P 1"
_space_group_IT_number       1

loop_
  _space_group_symop_operation_xyz
  'x, y, z'

loop_
  _atom_site_type_symbol
  _atom_site_label
  _atom_site_symmetry_multiplicity
  _atom_site_fract_x
  _atom_site_fract_y
  _atom_site_fract_z
  _atom_site_occupancy
  Hg  Hg1       1.0  0.38900  0.34800  0.22800  1.0000
  Hg  Hg2       1.0  0.11100  0.84800  0.22800  1.0000
  Hg  Hg3       1.0  0.88900  0.34800  0.27200  1.0000
  Hg  Hg4       1.0  0.61100  0.84800  0.27200  1.0000
  Hg  Hg5       1.0  0.38900  0.15200  0.72800  1.0000
  Hg  Hg6       1.0  0.11100  0.65200  0.72800  1.0000
  Hg  Hg7       1.0  0.88900  0.15200  0.77200  1.0000
  Hg  Hg8       1.0  0.61100  0.65200  0.77200  1.0000
  Na  Na1       1.0  0.05550  0.27200  0.00089  1.0000
  Na  Na2       1.0  0.44400  0.77200  0.00089  1.0000
  Na  Na3       1.0  0.69600  0.45600  0.17000  1.0000
  Na  Na4       1.0  0.80400  0.95600  0.17000  1.0000
  Na  Na5       1.0  0.19600  0.45600  0.33000  1.0000
  Na  Na6       1.0  0.30400  0.95600  0.33000  1.0000
  Na  Na7       1.0  0.55600  0.27200  0.49900  1.0000
  Na  Na8       1.0  0.94400  0.77200  0.49900  1.0000
  Na  Na9       1.0  0.05550  0.22800  0.50100  1.0000
  Na  Na10      1.0  0.44400  0.72800  0.50100  1.0000
  Na  Na11      1.0  0.69600  0.04420  0.67000  1.0000
  Na  Na12      1.0  0.80400  0.54400  0.67000  1.0000
  Na  Na13      1.0  0.19600  0.04420  0.83000  1.0000
  Na  Na14      1.0  0.30400  0.54400  0.83000  1.0000
  Na  Na15      1.0  0.55600  0.22800  0.99900  1.0000
  Na  Na16      1.0  0.94400  0.72800  0.99900  1.0000
  S   S1        1.0  0.17900  0.11300  0.20100  1.0000
  S   S2        1.0  0.32100  0.61300  0.20100  1.0000
  S   S3        1.0  0.95100  0.07550  0.24300  1.0000
  S   S4        1.0  0.54900  0.57600  0.24300  1.0000
  S   S5        1.0  0.45100  0.07550  0.25700  1.0000
  S   S6        1.0  0.04880  0.57600  0.25700  1.0000
  S   S7        1.0  0.67900  0.11300  0.29900  1.0000
  S   S8        1.0  0.82100  0.61300  0.29900  1.0000
  S   S9        1.0  0.17900  0.38700  0.70100  1.0000
  S   S10       1.0  0.32100  0.88700  0.70100  1.0000
  S   S11       1.0  0.95100  0.42400  0.74300  1.0000
  S   S12       1.0  0.54900  0.92400  0.74300  1.0000
  S   S13       1.0  0.45100  0.42400  0.75700  1.0000
  S   S14       1.0  0.04880  0.92400  0.75700  1.0000
  S   S15       1.0  0.67900  0.38700  0.79900  1.0000
  S   S16       1.0  0.82100  0.88700  0.79900  1.0000
