data_image0
_chemical_formula_structural       H8O24S4Ti4
_chemical_formula_sum              "H8 O24 S4 Ti4"
_cell_length_a       9.64366
_cell_length_b       5.05598
_cell_length_c       8.54745
_cell_angle_alpha    90
_cell_angle_beta     90
_cell_angle_gamma    90

_space_group_name_H-M_alt    "P 1"
_space_group_IT_number       1

loop_
  _space_group_symop_operation_xyz
  'x, y, z'

loop_
  _atom_site_type_symbol
  _atom_site_label
  _atom_site_symmetry_multiplicity
  _atom_site_fract_x
  _atom_site_fract_y
  _atom_site_fract_z
  _atom_site_occupancy
  H   H1        1.0  0.53400  0.61200  0.07430  1.0000
  H   H2        1.0  0.55000  0.93600  0.07790  1.0000
  H   H3        1.0  0.45000  0.43600  0.42200  1.0000
  H   H4        1.0  0.46600  0.11200  0.42600  1.0000
  H   H5        1.0  0.96600  0.38800  0.57400  1.0000
  H   H6        1.0  0.95000  0.06420  0.57800  1.0000
  H   H7        1.0  0.05040  0.56400  0.92200  1.0000
  H   H8        1.0  0.03360  0.88800  0.92600  1.0000
  O   O1        1.0  0.58000  0.76900  0.02670  1.0000
  O   O2        1.0  0.78800  0.25000  0.08240  1.0000
  O   O3        1.0  0.47700  0.28400  0.11000  1.0000
  O   O4        1.0  0.30000  0.95500  0.13800  1.0000
  O   O5        1.0  0.24100  0.41800  0.17300  1.0000
  O   O6        1.0  0.02630  0.05260  0.22800  1.0000
  O   O7        1.0  0.97400  0.55300  0.27200  1.0000
  O   O8        1.0  0.75900  0.91800  0.32700  1.0000
  O   O9        1.0  0.70000  0.45500  0.36200  1.0000
  O   O10       1.0  0.52300  0.78400  0.39000  1.0000
  O   O11       1.0  0.21200  0.75000  0.41800  1.0000
  O   O12       1.0  0.42000  0.26900  0.47300  1.0000
  O   O13       1.0  0.92000  0.23100  0.52700  1.0000
  O   O14       1.0  0.71200  0.75000  0.58200  1.0000
  O   O15       1.0  0.02330  0.71600  0.61000  1.0000
  O   O16       1.0  0.20000  0.04540  0.63800  1.0000
  O   O17       1.0  0.25900  0.58200  0.67300  1.0000
  O   O18       1.0  0.47400  0.94700  0.72800  1.0000
  O   O19       1.0  0.52600  0.44700  0.77200  1.0000
  O   O20       1.0  0.74100  0.08230  0.82700  1.0000
  O   O21       1.0  0.80000  0.54500  0.86200  1.0000
  O   O22       1.0  0.97700  0.21600  0.89000  1.0000
  O   O23       1.0  0.28800  0.25000  0.91800  1.0000
  O   O24       1.0  0.07950  0.73100  0.97300  1.0000
  S   S1        1.0  0.32900  0.23000  0.08660  1.0000
  S   S2        1.0  0.67100  0.73000  0.41300  1.0000
  S   S3        1.0  0.17100  0.77000  0.58700  1.0000
  S   S4        1.0  0.82900  0.27000  0.91300  1.0000
  Ti  Ti1       1.0  0.12400  0.75200  0.20900  1.0000
  Ti  Ti2       1.0  0.87600  0.25200  0.29100  1.0000
  Ti  Ti3       1.0  0.37600  0.24800  0.70900  1.0000
  Ti  Ti4       1.0  0.62400  0.74800  0.79100  1.0000
