data_image0
_chemical_formula_structural       Ag20Bi4O16
_chemical_formula_sum              "Ag20 Bi4 O16"
_cell_length_a       5.89849
_cell_length_b       9.03378
_cell_length_c       12.4095
_cell_angle_alpha    90
_cell_angle_beta     91.4388
_cell_angle_gamma    90

_space_group_name_H-M_alt    "P 1"
_space_group_IT_number       1

loop_
  _space_group_symop_operation_xyz
  'x, y, z'

loop_
  _atom_site_type_symbol
  _atom_site_label
  _atom_site_symmetry_multiplicity
  _atom_site_fract_x
  _atom_site_fract_y
  _atom_site_fract_z
  _atom_site_occupancy
  Ag  Ag1       1.0  0.50000  0.00000  0.00000  1.0000
  Ag  Ag2       1.0  0.00000  0.50000  0.00000  1.0000
  Ag  Ag3       1.0  0.24700  0.73000  0.12200  1.0000
  Ag  Ag4       1.0  0.74000  0.73200  0.12600  1.0000
  Ag  Ag5       1.0  0.53600  0.35900  0.14100  1.0000
  Ag  Ag6       1.0  0.53200  0.99100  0.24600  1.0000
  Ag  Ag7       1.0  0.96800  0.49100  0.25400  1.0000
  Ag  Ag8       1.0  0.96400  0.85900  0.35900  1.0000
  Ag  Ag9       1.0  0.76000  0.23200  0.37400  1.0000
  Ag  Ag10      1.0  0.25300  0.23000  0.37800  1.0000
  Ag  Ag11      1.0  0.00000  0.50000  0.50000  1.0000
  Ag  Ag12      1.0  0.50000  0.00000  0.50000  1.0000
  Ag  Ag13      1.0  0.74700  0.77000  0.62200  1.0000
  Ag  Ag14      1.0  0.24000  0.76800  0.62600  1.0000
  Ag  Ag15      1.0  0.03570  0.14100  0.64100  1.0000
  Ag  Ag16      1.0  0.03200  0.50900  0.74600  1.0000
  Ag  Ag17      1.0  0.46800  0.00927  0.75400  1.0000
  Ag  Ag18      1.0  0.46400  0.64100  0.85900  1.0000
  Ag  Ag19      1.0  0.26000  0.26800  0.87400  1.0000
  Ag  Ag20      1.0  0.75300  0.27000  0.87800  1.0000
  Bi  Bi1       1.0  0.04450  0.11800  0.12400  1.0000
  Bi  Bi2       1.0  0.45600  0.61800  0.37600  1.0000
  Bi  Bi3       1.0  0.54400  0.38200  0.62400  1.0000
  Bi  Bi4       1.0  0.95600  0.88200  0.87600  1.0000
  O   O1        1.0  0.98800  0.87000  0.06200  1.0000
  O   O2        1.0  0.67500  0.13500  0.12100  1.0000
  O   O3        1.0  0.10700  0.36000  0.12800  1.0000
  O   O4        1.0  0.49700  0.58900  0.19200  1.0000
  O   O5        1.0  0.00299  0.08900  0.30800  1.0000
  O   O6        1.0  0.39300  0.86000  0.37200  1.0000
  O   O7        1.0  0.82500  0.63500  0.37900  1.0000
  O   O8        1.0  0.51200  0.37000  0.43800  1.0000
  O   O9        1.0  0.48800  0.63000  0.56200  1.0000
  O   O10       1.0  0.17500  0.36500  0.62100  1.0000
  O   O11       1.0  0.60700  0.14000  0.62800  1.0000
  O   O12       1.0  0.99700  0.91100  0.69200  1.0000
  O   O13       1.0  0.50300  0.41100  0.80800  1.0000
  O   O14       1.0  0.89300  0.64000  0.87200  1.0000
  O   O15       1.0  0.32500  0.86500  0.87900  1.0000
  O   O16       1.0  0.01170  0.13000  0.93800  1.0000
