data_image0
_chemical_formula_structural       Co16Ta8Te16
_chemical_formula_sum              "Co16 Ta8 Te16"
_cell_length_a       18.1553
_cell_length_b       6.55986
_cell_length_c       6.52876
_cell_angle_alpha    90
_cell_angle_beta     90
_cell_angle_gamma    90

_space_group_name_H-M_alt    "P 1"
_space_group_IT_number       1

loop_
  _space_group_symop_operation_xyz
  'x, y, z'

loop_
  _atom_site_type_symbol
  _atom_site_label
  _atom_site_symmetry_multiplicity
  _atom_site_fract_x
  _atom_site_fract_y
  _atom_site_fract_z
  _atom_site_occupancy
  Co  Co1       1.0  0.68200  0.03480  0.04510  1.0000
  Co  Co2       1.0  0.68200  0.46500  0.04510  1.0000
  Co  Co3       1.0  0.81800  0.53600  0.15400  1.0000
  Co  Co4       1.0  0.81800  0.96400  0.15400  1.0000
  Co  Co5       1.0  0.31800  0.53600  0.34600  1.0000
  Co  Co6       1.0  0.31800  0.96400  0.34600  1.0000
  Co  Co7       1.0  0.18200  0.03480  0.45500  1.0000
  Co  Co8       1.0  0.18200  0.46500  0.45500  1.0000
  Co  Co9       1.0  0.81800  0.53500  0.54500  1.0000
  Co  Co10      1.0  0.81800  0.96500  0.54500  1.0000
  Co  Co11      1.0  0.68200  0.03590  0.65400  1.0000
  Co  Co12      1.0  0.68200  0.46400  0.65400  1.0000
  Co  Co13      1.0  0.18200  0.03590  0.84600  1.0000
  Co  Co14      1.0  0.18200  0.46400  0.84600  1.0000
  Co  Co15      1.0  0.31800  0.53500  0.95500  1.0000
  Co  Co16      1.0  0.31800  0.96500  0.95500  1.0000
  Ta  Ta1       1.0  0.22400  0.75000  0.15100  1.0000
  Ta  Ta2       1.0  0.23600  0.25000  0.15100  1.0000
  Ta  Ta3       1.0  0.73600  0.25000  0.34900  1.0000
  Ta  Ta4       1.0  0.72400  0.75000  0.34900  1.0000
  Ta  Ta5       1.0  0.27600  0.25000  0.65100  1.0000
  Ta  Ta6       1.0  0.26400  0.75000  0.65100  1.0000
  Ta  Ta7       1.0  0.76400  0.75000  0.84900  1.0000
  Ta  Ta8       1.0  0.77600  0.25000  0.84900  1.0000
  Te  Te1       1.0  0.41000  0.75000  0.14900  1.0000
  Te  Te2       1.0  0.09490  0.00177  0.15100  1.0000
  Te  Te3       1.0  0.09490  0.49800  0.15100  1.0000
  Te  Te4       1.0  0.39100  0.25000  0.15300  1.0000
  Te  Te5       1.0  0.89100  0.25000  0.34700  1.0000
  Te  Te6       1.0  0.59500  0.00177  0.34900  1.0000
  Te  Te7       1.0  0.59500  0.49800  0.34900  1.0000
  Te  Te8       1.0  0.91000  0.75000  0.35100  1.0000
  Te  Te9       1.0  0.08960  0.25000  0.64900  1.0000
  Te  Te10      1.0  0.40500  0.50200  0.65100  1.0000
  Te  Te11      1.0  0.40500  0.99800  0.65100  1.0000
  Te  Te12      1.0  0.10900  0.75000  0.65300  1.0000
  Te  Te13      1.0  0.60900  0.75000  0.84700  1.0000
  Te  Te14      1.0  0.90500  0.50200  0.84900  1.0000
  Te  Te15      1.0  0.90500  0.99800  0.84900  1.0000
  Te  Te16      1.0  0.59000  0.25000  0.85100  1.0000
