data_image0
_chemical_formula_structural       BaPdSn3
_chemical_formula_sum              "Ba1 Pd1 Sn3"
_cell_length_a       4.9388
_cell_length_b       4.9388
_cell_length_c       6.64942
_cell_angle_alpha    111.8
_cell_angle_beta     111.8
_cell_angle_gamma    90

_space_group_name_H-M_alt    "P 1"
_space_group_IT_number       1

loop_
  _space_group_symop_operation_xyz
  'x, y, z'

loop_
  _atom_site_type_symbol
  _atom_site_label
  _atom_site_symmetry_multiplicity
  _atom_site_fract_x
  _atom_site_fract_y
  _atom_site_fract_z
  _atom_site_occupancy
  Ba  Ba1       1.0  0.00000  0.00000  0.00000  1.0000
  Pd  Pd1       1.0  0.35100  0.35100  0.70200  1.0000
  Sn  Sn1       1.0  0.58700  0.58700  0.17400  1.0000
  Sn  Sn2       1.0  0.75000  0.25000  0.50000  1.0000
  Sn  Sn3       1.0  0.25000  0.75000  0.50000  1.0000
