data_image0
_chemical_formula_structural       F20Hg6O8S2Ta4
_chemical_formula_sum              "F20 Hg6 O8 S2 Ta4"
_cell_length_a       8.8824
_cell_length_b       8.8824
_cell_length_c       9.87937
_cell_angle_alpha    102.28
_cell_angle_beta     102.28
_cell_angle_gamma    121.794

_space_group_name_H-M_alt    "P 1"
_space_group_IT_number       1

loop_
  _space_group_symop_operation_xyz
  'x, y, z'

loop_
  _atom_site_type_symbol
  _atom_site_label
  _atom_site_symmetry_multiplicity
  _atom_site_fract_x
  _atom_site_fract_y
  _atom_site_fract_z
  _atom_site_occupancy
  F   F1        1.0  0.76600  0.35600  0.10200  1.0000
  F   F2        1.0  0.15500  0.53500  0.11100  1.0000
  F   F3        1.0  0.60500  0.97700  0.11900  1.0000
  F   F4        1.0  0.26400  0.89300  0.13500  1.0000
  F   F5        1.0  0.91500  0.76300  0.17500  1.0000
  F   F6        1.0  0.49000  0.83800  0.32500  1.0000
  F   F7        1.0  0.87900  0.00842  0.36500  1.0000
  F   F8        1.0  0.23500  0.10700  0.38100  1.0000
  F   F9        1.0  0.79400  0.67400  0.38900  1.0000
  F   F10       1.0  0.41400  0.50400  0.39800  1.0000
  F   F11       1.0  0.10600  0.01560  0.60200  1.0000
  F   F12       1.0  0.28500  0.40500  0.61100  1.0000
  F   F13       1.0  0.72700  0.85500  0.61900  1.0000
  F   F14       1.0  0.64300  0.51400  0.63500  1.0000
  F   F15       1.0  0.51300  0.16500  0.67500  1.0000
  F   F16       1.0  0.58800  0.74000  0.82500  1.0000
  F   F17       1.0  0.75800  0.12900  0.86500  1.0000
  F   F18       1.0  0.85700  0.48500  0.88100  1.0000
  F   F19       1.0  0.42400  0.04410  0.88900  1.0000
  F   F20       1.0  0.25400  0.66400  0.89800  1.0000
  Hg  Hg1       1.0  0.98100  0.98100  0.00000  1.0000
  Hg  Hg2       1.0  0.01270  0.24400  0.20000  1.0000
  Hg  Hg3       1.0  0.56300  0.29400  0.30000  1.0000
  Hg  Hg4       1.0  0.73100  0.23100  0.50000  1.0000
  Hg  Hg5       1.0  0.99400  0.26300  0.70000  1.0000
  Hg  Hg6       1.0  0.04370  0.81300  0.80000  1.0000
  O   O1        1.0  0.48700  0.61200  0.07830  1.0000
  O   O2        1.0  0.40300  0.31700  0.10900  1.0000
  O   O3        1.0  0.04370  0.45800  0.39100  1.0000
  O   O4        1.0  0.15900  0.78300  0.42200  1.0000
  O   O5        1.0  0.36200  0.73700  0.57800  1.0000
  O   O6        1.0  0.06670  0.65300  0.60900  1.0000
  O   O7        1.0  0.20800  0.29400  0.89100  1.0000
  O   O8        1.0  0.53300  0.40900  0.92200  1.0000
  S   S1        1.0  0.40400  0.40400  0.00000  1.0000
  S   S2        1.0  0.15400  0.65400  0.50000  1.0000
  Ta  Ta1       1.0  0.37500  0.76100  0.11300  1.0000
  Ta  Ta2       1.0  0.01140  0.89800  0.38700  1.0000
  Ta  Ta3       1.0  0.51100  0.62500  0.61300  1.0000
  Ta  Ta4       1.0  0.64800  0.26100  0.88700  1.0000
