data_image0
_chemical_formula_structural       Ba4Ca4Cr4F28
_chemical_formula_sum              "Ba4 Ca4 Cr4 F28"
_cell_length_a       5.31562
_cell_length_b       5.32329
_cell_length_c       18.7874
_cell_angle_alpha    90
_cell_angle_beta     92.1981
_cell_angle_gamma    90

_space_group_name_H-M_alt    "P 1"
_space_group_IT_number       1

loop_
  _space_group_symop_operation_xyz
  'x, y, z'

loop_
  _atom_site_type_symbol
  _atom_site_label
  _atom_site_symmetry_multiplicity
  _atom_site_fract_x
  _atom_site_fract_y
  _atom_site_fract_z
  _atom_site_occupancy
  Ba  Ba1       1.0  0.74700  0.76600  0.06810  1.0000
  Ba  Ba2       1.0  0.75300  0.76600  0.43200  1.0000
  Ba  Ba3       1.0  0.24700  0.23400  0.56800  1.0000
  Ba  Ba4       1.0  0.25300  0.23400  0.93200  1.0000
  Ca  Ca1       1.0  0.25000  0.79700  0.25000  1.0000
  Ca  Ca2       1.0  0.75000  0.32800  0.25000  1.0000
  Ca  Ca3       1.0  0.75000  0.20300  0.75000  1.0000
  Ca  Ca4       1.0  0.25000  0.67200  0.75000  1.0000
  Cr  Cr1       1.0  0.30500  0.22300  0.11900  1.0000
  Cr  Cr2       1.0  0.19500  0.22300  0.38100  1.0000
  Cr  Cr3       1.0  0.80500  0.77700  0.61900  1.0000
  Cr  Cr4       1.0  0.69500  0.77700  0.88100  1.0000
  F   F1        1.0  0.56900  0.28400  0.05490  1.0000
  F   F2        1.0  0.08390  0.40300  0.05900  1.0000
  F   F3        1.0  0.22600  0.93200  0.06280  1.0000
  F   F4        1.0  0.42700  0.50700  0.17400  1.0000
  F   F5        1.0  0.53600  0.02320  0.17900  1.0000
  F   F6        1.0  0.05440  0.13100  0.18400  1.0000
  F   F7        1.0  0.92600  0.63200  0.19000  1.0000
  F   F8        1.0  0.57400  0.63200  0.31000  1.0000
  F   F9        1.0  0.44600  0.13100  0.31600  1.0000
  F   F10       1.0  0.96400  0.02320  0.32100  1.0000
  F   F11       1.0  0.07320  0.50700  0.32600  1.0000
  F   F12       1.0  0.27400  0.93200  0.43700  1.0000
  F   F13       1.0  0.41600  0.40300  0.44100  1.0000
  F   F14       1.0  0.93100  0.28400  0.44500  1.0000
  F   F15       1.0  0.06920  0.71600  0.55500  1.0000
  F   F16       1.0  0.58400  0.59700  0.55900  1.0000
  F   F17       1.0  0.72600  0.06830  0.56300  1.0000
  F   F18       1.0  0.92700  0.49300  0.67400  1.0000
  F   F19       1.0  0.03600  0.97700  0.67900  1.0000
  F   F20       1.0  0.55400  0.86900  0.68400  1.0000
  F   F21       1.0  0.42600  0.36800  0.69000  1.0000
  F   F22       1.0  0.07350  0.36800  0.81000  1.0000
  F   F23       1.0  0.94600  0.86900  0.81600  1.0000
  F   F24       1.0  0.46400  0.97700  0.82100  1.0000
  F   F25       1.0  0.57300  0.49300  0.82600  1.0000
  F   F26       1.0  0.77400  0.06830  0.93700  1.0000
  F   F27       1.0  0.91600  0.59700  0.94100  1.0000
  F   F28       1.0  0.43100  0.71600  0.94500  1.0000
