data_image0
_chemical_formula_structural       Na8O24P4V4
_chemical_formula_sum              "Na8 O24 P4 V4"
_cell_length_a       6.09435
_cell_length_b       12.3105
_cell_length_c       7.25531
_cell_angle_alpha    90
_cell_angle_beta     107.065
_cell_angle_gamma    90

_space_group_name_H-M_alt    "P 1"
_space_group_IT_number       1

loop_
  _space_group_symop_operation_xyz
  'x, y, z'

loop_
  _atom_site_type_symbol
  _atom_site_label
  _atom_site_symmetry_multiplicity
  _atom_site_fract_x
  _atom_site_fract_y
  _atom_site_fract_z
  _atom_site_occupancy
  Na  Na1       1.0  0.18000  0.64300  0.07290  1.0000
  Na  Na2       1.0  0.80300  0.06990  0.07580  1.0000
  Na  Na3       1.0  0.69700  0.57000  0.42400  1.0000
  Na  Na4       1.0  0.32000  0.14300  0.42700  1.0000
  Na  Na5       1.0  0.68000  0.85700  0.57300  1.0000
  Na  Na6       1.0  0.30300  0.43000  0.57600  1.0000
  Na  Na7       1.0  0.19700  0.93000  0.92400  1.0000
  Na  Na8       1.0  0.82000  0.35700  0.92700  1.0000
  O   O1        1.0  0.23500  0.35100  0.00347  1.0000
  O   O2        1.0  0.45200  0.14400  0.05340  1.0000
  O   O3        1.0  0.05210  0.80400  0.14300  1.0000
  O   O4        1.0  0.65600  0.40000  0.17900  1.0000
  O   O5        1.0  0.18000  0.99700  0.24000  1.0000
  O   O6        1.0  0.55000  0.72900  0.24600  1.0000
  O   O7        1.0  0.95000  0.22900  0.25400  1.0000
  O   O8        1.0  0.32000  0.49700  0.26000  1.0000
  O   O9        1.0  0.84400  0.90000  0.32100  1.0000
  O   O10       1.0  0.44800  0.30400  0.35700  1.0000
  O   O11       1.0  0.04830  0.64400  0.44700  1.0000
  O   O12       1.0  0.26500  0.85100  0.49700  1.0000
  O   O13       1.0  0.73500  0.14900  0.50300  1.0000
  O   O14       1.0  0.95200  0.35600  0.55300  1.0000
  O   O15       1.0  0.55200  0.69600  0.64300  1.0000
  O   O16       1.0  0.15600  0.09950  0.67900  1.0000
  O   O17       1.0  0.68000  0.50300  0.74000  1.0000
  O   O18       1.0  0.05040  0.77100  0.74600  1.0000
  O   O19       1.0  0.45000  0.27100  0.75400  1.0000
  O   O20       1.0  0.82000  0.00292  0.76000  1.0000
  O   O21       1.0  0.34400  0.60000  0.82100  1.0000
  O   O22       1.0  0.94800  0.19600  0.85700  1.0000
  O   O23       1.0  0.54800  0.85600  0.94700  1.0000
  O   O24       1.0  0.76500  0.64900  0.99700  1.0000
  P   P1        1.0  0.40300  0.39200  0.19500  1.0000
  P   P2        1.0  0.09710  0.89200  0.30500  1.0000
  P   P3        1.0  0.90300  0.10800  0.69500  1.0000
  P   P4        1.0  0.59700  0.60800  0.80500  1.0000
  V   V1        1.0  0.71500  0.78300  0.12500  1.0000
  V   V2        1.0  0.78500  0.28300  0.37500  1.0000
  V   V3        1.0  0.21500  0.71700  0.62500  1.0000
  V   V4        1.0  0.28500  0.21700  0.87500  1.0000
