data_image0
_chemical_formula_structural       K8O24P4V4
_chemical_formula_sum              "K8 O24 P4 V4"
_cell_length_a       6.79713
_cell_length_b       13.3214
_cell_length_c       7.407
_cell_angle_alpha    90
_cell_angle_beta     110.883
_cell_angle_gamma    90

_space_group_name_H-M_alt    "P 1"
_space_group_IT_number       1

loop_
  _space_group_symop_operation_xyz
  'x, y, z'

loop_
  _atom_site_type_symbol
  _atom_site_label
  _atom_site_symmetry_multiplicity
  _atom_site_fract_x
  _atom_site_fract_y
  _atom_site_fract_z
  _atom_site_occupancy
  K   K1        1.0  0.13900  0.63300  0.05340  1.0000
  K   K2        1.0  0.80400  0.08230  0.09120  1.0000
  K   K3        1.0  0.69600  0.58200  0.40900  1.0000
  K   K4        1.0  0.36100  0.13300  0.44700  1.0000
  K   K5        1.0  0.63900  0.86700  0.55300  1.0000
  K   K6        1.0  0.30400  0.41800  0.59100  1.0000
  K   K7        1.0  0.19600  0.91800  0.90900  1.0000
  K   K8        1.0  0.86100  0.36700  0.94700  1.0000
  O   O1        1.0  0.27800  0.33000  0.00651  1.0000
  O   O2        1.0  0.42600  0.12700  0.08300  1.0000
  O   O3        1.0  0.01360  0.80500  0.13200  1.0000
  O   O4        1.0  0.65000  0.39900  0.18900  1.0000
  O   O5        1.0  0.53200  0.76400  0.20600  1.0000
  O   O6        1.0  0.32100  0.47500  0.23600  1.0000
  O   O7        1.0  0.17900  0.97500  0.26400  1.0000
  O   O8        1.0  0.96800  0.26400  0.29400  1.0000
  O   O9        1.0  0.85000  0.89900  0.31100  1.0000
  O   O10       1.0  0.48600  0.30500  0.36800  1.0000
  O   O11       1.0  0.07390  0.62700  0.41700  1.0000
  O   O12       1.0  0.22200  0.83000  0.49300  1.0000
  O   O13       1.0  0.77800  0.17000  0.50700  1.0000
  O   O14       1.0  0.92600  0.37300  0.58300  1.0000
  O   O15       1.0  0.51400  0.69500  0.63200  1.0000
  O   O16       1.0  0.15000  0.10100  0.68900  1.0000
  O   O17       1.0  0.03200  0.73600  0.70600  1.0000
  O   O18       1.0  0.82100  0.02520  0.73600  1.0000
  O   O19       1.0  0.67900  0.52500  0.76400  1.0000
  O   O20       1.0  0.46800  0.23600  0.79400  1.0000
  O   O21       1.0  0.35000  0.60100  0.81100  1.0000
  O   O22       1.0  0.98600  0.19500  0.86800  1.0000
  O   O23       1.0  0.57400  0.87300  0.91700  1.0000
  O   O24       1.0  0.72200  0.67000  0.99300  1.0000
  P   P1        1.0  0.42300  0.38100  0.19700  1.0000
  P   P2        1.0  0.07680  0.88100  0.30300  1.0000
  P   P3        1.0  0.92300  0.11900  0.69700  1.0000
  P   P4        1.0  0.57700  0.61900  0.80300  1.0000
  V   V1        1.0  0.70200  0.80000  0.10200  1.0000
  V   V2        1.0  0.79800  0.30000  0.39800  1.0000
  V   V3        1.0  0.20200  0.70000  0.60200  1.0000
  V   V4        1.0  0.29800  0.20000  0.89800  1.0000
