data_image0
_chemical_formula_structural       As4O14Ti2
_chemical_formula_sum              "As4 O14 Ti2"
_cell_length_a       5.23662
_cell_length_b       5.23662
_cell_length_c       9.47649
_cell_angle_alpha    99.3769
_cell_angle_beta     99.3769
_cell_angle_gamma    98.2095

_space_group_name_H-M_alt    "P 1"
_space_group_IT_number       1

loop_
  _space_group_symop_operation_xyz
  'x, y, z'

loop_
  _atom_site_type_symbol
  _atom_site_label
  _atom_site_symmetry_multiplicity
  _atom_site_fract_x
  _atom_site_fract_y
  _atom_site_fract_z
  _atom_site_occupancy
  As  As1       1.0  0.56600  0.82400  0.19700  1.0000
  As  As2       1.0  0.17600  0.43400  0.30300  1.0000
  As  As3       1.0  0.82400  0.56600  0.69700  1.0000
  As  As4       1.0  0.43400  0.17600  0.80300  1.0000
  O   O1        1.0  0.74700  0.75200  0.06900  1.0000
  O   O2        1.0  0.28400  0.92400  0.13300  1.0000
  O   O3        1.0  0.95600  0.28600  0.14800  1.0000
  O   O4        1.0  0.48200  0.51800  0.25000  1.0000
  O   O5        1.0  0.71400  0.04380  0.35200  1.0000
  O   O6        1.0  0.07550  0.71600  0.36700  1.0000
  O   O7        1.0  0.24800  0.25300  0.43100  1.0000
  O   O8        1.0  0.75200  0.74700  0.56900  1.0000
  O   O9        1.0  0.92400  0.28400  0.63300  1.0000
  O   O10       1.0  0.28600  0.95600  0.64800  1.0000
  O   O11       1.0  0.51800  0.48200  0.75000  1.0000
  O   O12       1.0  0.04380  0.71400  0.85200  1.0000
  O   O13       1.0  0.71600  0.07550  0.86700  1.0000
  O   O14       1.0  0.25300  0.24800  0.93100  1.0000
  Ti  Ti1       1.0  0.00000  0.00000  0.00000  1.0000
  Ti  Ti2       1.0  1.00000  1.00000  0.50000  1.0000
