data_image0
_chemical_formula_structural       I24Th8
_chemical_formula_sum              "I24 Th8"
_cell_length_a       11.1953
_cell_length_b       11.1953
_cell_length_c       14.9221
_cell_angle_alpha    90
_cell_angle_beta     90
_cell_angle_gamma    48.7715

_space_group_name_H-M_alt    "P 1"
_space_group_IT_number       1

loop_
  _space_group_symop_operation_xyz
  'x, y, z'

loop_
  _atom_site_type_symbol
  _atom_site_label
  _atom_site_symmetry_multiplicity
  _atom_site_fract_x
  _atom_site_fract_y
  _atom_site_fract_z
  _atom_site_occupancy
  I   I1        1.0  0.50000  0.00000  0.17900  1.0000
  I   I2        1.0  1.00000  0.50000  0.32100  1.0000
  I   I3        1.0  0.50000  0.00000  0.82100  1.0000
  I   I4        1.0  1.00000  0.50000  0.67900  1.0000
  I   I5        1.0  0.48100  0.27400  0.37200  1.0000
  I   I6        1.0  0.51900  0.72600  0.37200  1.0000
  I   I7        1.0  0.72600  0.51900  0.12800  1.0000
  I   I8        1.0  0.27400  0.48100  0.12800  1.0000
  I   I9        1.0  0.51900  0.72600  0.62800  1.0000
  I   I10       1.0  0.48100  0.27400  0.62800  1.0000
  I   I11       1.0  0.27400  0.48100  0.87200  1.0000
  I   I12       1.0  0.72600  0.51900  0.87200  1.0000
  I   I13       1.0  0.72700  0.17800  0.12900  1.0000
  I   I14       1.0  0.27300  0.82200  0.12900  1.0000
  I   I15       1.0  0.82200  0.27300  0.37100  1.0000
  I   I16       1.0  0.17800  0.72700  0.37100  1.0000
  I   I17       1.0  0.27300  0.82200  0.87100  1.0000
  I   I18       1.0  0.72700  0.17800  0.87100  1.0000
  I   I19       1.0  0.17800  0.72700  0.62900  1.0000
  I   I20       1.0  0.82200  0.27300  0.62900  1.0000
  I   I21       1.0  0.18000  0.21200  0.00000  1.0000
  I   I22       1.0  0.82000  0.78800  0.00000  1.0000
  I   I23       1.0  0.78800  0.82000  0.50000  1.0000
  I   I24       1.0  0.21200  0.18000  0.50000  1.0000
  Th  Th1       1.0  0.50000  0.84400  0.00000  1.0000
  Th  Th2       1.0  0.50000  0.15600  0.00000  1.0000
  Th  Th3       1.0  0.15600  0.50000  0.50000  1.0000
  Th  Th4       1.0  0.84400  0.50000  0.50000  1.0000
  Th  Th5       1.0  0.50000  0.50000  0.25000  1.0000
  Th  Th6       1.0  0.50000  0.50000  0.75000  1.0000
  Th  Th7       1.0  0.50000  0.50000  0.00000  1.0000
  Th  Th8       1.0  0.50000  0.50000  0.50000  1.0000
