data_image0
_chemical_formula_structural       ErS2Tl
_chemical_formula_sum              "Er1 S2 Tl1"
_cell_length_a       3.99463
_cell_length_b       3.99463
_cell_length_c       7.85606
_cell_angle_alpha    90
_cell_angle_beta     104.728
_cell_angle_gamma    120

_space_group_name_H-M_alt    "P 1"
_space_group_IT_number       1

loop_
  _space_group_symop_operation_xyz
  'x, y, z'

loop_
  _atom_site_type_symbol
  _atom_site_label
  _atom_site_symmetry_multiplicity
  _atom_site_fract_x
  _atom_site_fract_y
  _atom_site_fract_z
  _atom_site_occupancy
  Er  Er1       1.0  0.00000  0.00000  0.00000  1.0000
  S   S1        1.0  0.46400  0.73200  0.19700  1.0000
  S   S2        1.0  0.53600  0.26800  0.80300  1.0000
  Tl  Tl1       1.0  1.00000  0.50000  0.50000  1.0000
