data_image0
_chemical_formula_structural       Cr4Cu4P8S24
_chemical_formula_sum              "Cr4 Cu4 P8 S24"
_cell_length_a       5.9544
_cell_length_b       10.3288
_cell_length_c       13.7434
_cell_angle_alpha    90
_cell_angle_beta     106.115
_cell_angle_gamma    90

_space_group_name_H-M_alt    "P 1"
_space_group_IT_number       1

loop_
  _space_group_symop_operation_xyz
  'x, y, z'

loop_
  _atom_site_type_symbol
  _atom_site_label
  _atom_site_symmetry_multiplicity
  _atom_site_fract_x
  _atom_site_fract_y
  _atom_site_fract_z
  _atom_site_occupancy
  Cr  Cr1       1.0  0.51400  0.83100  0.24300  1.0000
  Cr  Cr2       1.0  0.00874  0.33100  0.24500  1.0000
  Cr  Cr3       1.0  0.51400  0.16900  0.74300  1.0000
  Cr  Cr4       1.0  0.00874  0.66900  0.74500  1.0000
  Cu  Cu1       1.0  0.44700  0.49700  0.14300  1.0000
  Cu  Cu2       1.0  0.07970  0.99700  0.35000  1.0000
  Cu  Cu3       1.0  0.44700  0.50300  0.64300  1.0000
  Cu  Cu4       1.0  0.07970  0.00270  0.85000  1.0000
  P   P1        1.0  0.95100  0.66700  0.15900  1.0000
  P   P2        1.0  0.46800  0.16000  0.16300  1.0000
  P   P3        1.0  0.05460  0.66000  0.32400  1.0000
  P   P4        1.0  0.57100  0.16700  0.32800  1.0000
  P   P5        1.0  0.95100  0.33300  0.65900  1.0000
  P   P6        1.0  0.46800  0.84000  0.66300  1.0000
  P   P7        1.0  0.05460  0.34000  0.82400  1.0000
  P   P8        1.0  0.57100  0.83300  0.82800  1.0000
  S   S1        1.0  0.79800  0.48700  0.11700  1.0000
  S   S2        1.0  0.26200  0.68600  0.11900  1.0000
  S   S3        1.0  0.74500  0.82500  0.12200  1.0000
  S   S4        1.0  0.23800  0.31700  0.12200  1.0000
  S   S5        1.0  0.29100  0.99200  0.12600  1.0000
  S   S6        1.0  0.77300  0.17700  0.12600  1.0000
  S   S7        1.0  0.75000  0.67800  0.36200  1.0000
  S   S8        1.0  0.23200  0.49200  0.36200  1.0000
  S   S9        1.0  0.77700  0.32600  0.36500  1.0000
  S   S10       1.0  0.28600  0.81600  0.36500  1.0000
  S   S11       1.0  0.26100  0.18700  0.36900  1.0000
  S   S12       1.0  0.72400  0.98600  0.37100  1.0000
  S   S13       1.0  0.79800  0.51300  0.61700  1.0000
  S   S14       1.0  0.26200  0.31400  0.61900  1.0000
  S   S15       1.0  0.74500  0.17500  0.62200  1.0000
  S   S16       1.0  0.23800  0.68300  0.62200  1.0000
  S   S17       1.0  0.29100  0.00787  0.62600  1.0000
  S   S18       1.0  0.77300  0.82300  0.62600  1.0000
  S   S19       1.0  0.75000  0.32200  0.86200  1.0000
  S   S20       1.0  0.23200  0.50800  0.86200  1.0000
  S   S21       1.0  0.77700  0.67400  0.86500  1.0000
  S   S22       1.0  0.28600  0.18400  0.86500  1.0000
  S   S23       1.0  0.26100  0.81300  0.86900  1.0000
  S   S24       1.0  0.72400  0.01360  0.87100  1.0000
