data_image0
_chemical_formula_structural       Ag4K4O24P8
_chemical_formula_sum              "Ag4 K4 O24 P8"
_cell_length_a       7.4525
_cell_length_b       13.079
_cell_length_c       5.93853
_cell_angle_alpha    90
_cell_angle_beta     94.4273
_cell_angle_gamma    90

_space_group_name_H-M_alt    "P 1"
_space_group_IT_number       1

loop_
  _space_group_symop_operation_xyz
  'x, y, z'

loop_
  _atom_site_type_symbol
  _atom_site_label
  _atom_site_symmetry_multiplicity
  _atom_site_fract_x
  _atom_site_fract_y
  _atom_site_fract_z
  _atom_site_occupancy
  Ag  Ag1       1.0  0.30600  0.97300  0.18900  1.0000
  Ag  Ag2       1.0  0.80600  0.52700  0.18900  1.0000
  Ag  Ag3       1.0  0.69400  0.02720  0.81100  1.0000
  Ag  Ag4       1.0  0.19400  0.47300  0.81100  1.0000
  K   K1        1.0  0.23500  0.67200  0.29200  1.0000
  K   K2        1.0  0.73500  0.82800  0.29200  1.0000
  K   K3        1.0  0.76500  0.32800  0.70800  1.0000
  K   K4        1.0  0.26500  0.17200  0.70800  1.0000
  O   O1        1.0  0.06160  0.85600  0.08380  1.0000
  O   O2        1.0  0.56200  0.64400  0.08380  1.0000
  O   O3        1.0  0.54500  0.20400  0.12800  1.0000
  O   O4        1.0  0.04530  0.29600  0.12800  1.0000
  O   O5        1.0  0.63800  0.02400  0.22000  1.0000
  O   O6        1.0  0.13800  0.47600  0.22000  1.0000
  O   O7        1.0  0.67200  0.37500  0.26600  1.0000
  O   O8        1.0  0.17200  0.12500  0.26600  1.0000
  O   O9        1.0  0.85500  0.17100  0.32800  1.0000
  O   O10       1.0  0.35500  0.32900  0.32800  1.0000
  O   O11       1.0  0.91400  0.65300  0.45600  1.0000
  O   O12       1.0  0.41400  0.84700  0.45600  1.0000
  O   O13       1.0  0.58600  0.15300  0.54400  1.0000
  O   O14       1.0  0.08640  0.34700  0.54400  1.0000
  O   O15       1.0  0.64500  0.67100  0.67200  1.0000
  O   O16       1.0  0.14500  0.82900  0.67200  1.0000
  O   O17       1.0  0.32800  0.62500  0.73400  1.0000
  O   O18       1.0  0.82800  0.87500  0.73400  1.0000
  O   O19       1.0  0.36200  0.97600  0.78000  1.0000
  O   O20       1.0  0.86200  0.52400  0.78000  1.0000
  O   O21       1.0  0.95500  0.70400  0.87200  1.0000
  O   O22       1.0  0.45500  0.79600  0.87200  1.0000
  O   O23       1.0  0.93800  0.14400  0.91600  1.0000
  O   O24       1.0  0.43800  0.35600  0.91600  1.0000
  P   P1        1.0  0.50800  0.32600  0.15000  1.0000
  P   P2        1.0  0.00803  0.17400  0.15000  1.0000
  P   P3        1.0  0.64900  0.13000  0.31600  1.0000
  P   P4        1.0  0.14900  0.37000  0.31600  1.0000
  P   P5        1.0  0.85100  0.63000  0.68400  1.0000
  P   P6        1.0  0.35100  0.87000  0.68400  1.0000
  P   P7        1.0  0.99200  0.82600  0.85000  1.0000
  P   P8        1.0  0.49200  0.67400  0.85000  1.0000
