data_image0
_chemical_formula_structural       H2Li2Pt
_chemical_formula_sum              "H2 Li2 Pt1"
_cell_length_a       3.01356
_cell_length_b       3.20256
_cell_length_c       5.43679
_cell_angle_alpha    107.129
_cell_angle_beta     106.09
_cell_angle_gamma    90

_space_group_name_H-M_alt    "P 1"
_space_group_IT_number       1

loop_
  _space_group_symop_operation_xyz
  'x, y, z'

loop_
  _atom_site_type_symbol
  _atom_site_label
  _atom_site_symmetry_multiplicity
  _atom_site_fract_x
  _atom_site_fract_y
  _atom_site_fract_z
  _atom_site_occupancy
  H   H1        1.0  0.16700  0.16700  0.33500  1.0000
  H   H2        1.0  0.83300  0.83300  0.66500  1.0000
  Li  Li1       1.0  0.64100  0.64100  0.28200  1.0000
  Li  Li2       1.0  0.35900  0.35900  0.71800  1.0000
  Pt  Pt1       1.0  0.00000  0.00000  0.00000  1.0000
