data_image0
_chemical_formula_structural       Al14Co12Pr14
_chemical_formula_sum              "Al14 Co12 Pr14"
_cell_length_a       13.9569
_cell_length_b       13.9569
_cell_length_c       4.20681
_cell_angle_alpha    90
_cell_angle_beta     90
_cell_angle_gamma    90

_space_group_name_H-M_alt    "P 1"
_space_group_IT_number       1

loop_
  _space_group_symop_operation_xyz
  'x, y, z'

loop_
  _atom_site_type_symbol
  _atom_site_label
  _atom_site_symmetry_multiplicity
  _atom_site_fract_x
  _atom_site_fract_y
  _atom_site_fract_z
  _atom_site_occupancy
  Al  Al1       1.0  0.50000  0.00000  0.00000  1.0000
  Al  Al2       1.0  0.00000  0.50000  0.00000  1.0000
  Al  Al3       1.0  0.86100  0.09870  0.50000  1.0000
  Al  Al4       1.0  0.09870  0.13900  0.50000  1.0000
  Al  Al5       1.0  0.28500  0.21500  0.50000  1.0000
  Al  Al6       1.0  0.78500  0.28500  0.50000  1.0000
  Al  Al7       1.0  0.59900  0.36100  0.50000  1.0000
  Al  Al8       1.0  0.36100  0.40100  0.50000  1.0000
  Al  Al9       1.0  0.63900  0.59900  0.50000  1.0000
  Al  Al10      1.0  0.40100  0.63900  0.50000  1.0000
  Al  Al11      1.0  0.21500  0.71500  0.50000  1.0000
  Al  Al12      1.0  0.71500  0.78500  0.50000  1.0000
  Al  Al13      1.0  0.90100  0.86100  0.50000  1.0000
  Al  Al14      1.0  0.13900  0.90100  0.50000  1.0000
  Co  Co1       1.0  0.78900  0.16500  0.00000  1.0000
  Co  Co2       1.0  0.16500  0.21100  0.00000  1.0000
  Co  Co3       1.0  0.66500  0.28900  0.00000  1.0000
  Co  Co4       1.0  0.28900  0.33500  0.00000  1.0000
  Co  Co5       1.0  0.71100  0.66500  0.00000  1.0000
  Co  Co6       1.0  0.33500  0.71100  0.00000  1.0000
  Co  Co7       1.0  0.83500  0.78900  0.00000  1.0000
  Co  Co8       1.0  0.21100  0.83500  0.00000  1.0000
  Co  Co9       1.0  0.42700  0.07300  0.50000  1.0000
  Co  Co10      1.0  0.92700  0.42700  0.50000  1.0000
  Co  Co11      1.0  0.07300  0.57300  0.50000  1.0000
  Co  Co12      1.0  0.57300  0.92700  0.50000  1.0000
  Pr  Pr1       1.0  0.00000  0.00000  0.00000  1.0000
  Pr  Pr2       1.0  0.26200  0.04750  0.00000  1.0000
  Pr  Pr3       1.0  0.45300  0.23800  0.00000  1.0000
  Pr  Pr4       1.0  0.95300  0.26200  0.00000  1.0000
  Pr  Pr5       1.0  0.76200  0.45300  0.00000  1.0000
  Pr  Pr6       1.0  0.50000  0.50000  0.00000  1.0000
  Pr  Pr7       1.0  0.23800  0.54700  0.00000  1.0000
  Pr  Pr8       1.0  0.04750  0.73800  0.00000  1.0000
  Pr  Pr9       1.0  0.54700  0.76200  0.00000  1.0000
  Pr  Pr10      1.0  0.73800  0.95300  0.00000  1.0000
  Pr  Pr11      1.0  0.63100  0.13100  0.50000  1.0000
  Pr  Pr12      1.0  0.13100  0.36900  0.50000  1.0000
  Pr  Pr13      1.0  0.86900  0.63100  0.50000  1.0000
  Pr  Pr14      1.0  0.36900  0.86900  0.50000  1.0000
