data_image0
_chemical_formula_structural       Bi4Cu8O24P4
_chemical_formula_sum              "Bi4 Cu8 O24 P4"
_cell_length_a       11.7675
_cell_length_b       5.1341
_cell_length_c       7.79795
_cell_angle_alpha    90
_cell_angle_beta     90
_cell_angle_gamma    90

_space_group_name_H-M_alt    "P 1"
_space_group_IT_number       1

loop_
  _space_group_symop_operation_xyz
  'x, y, z'

loop_
  _atom_site_type_symbol
  _atom_site_label
  _atom_site_symmetry_multiplicity
  _atom_site_fract_x
  _atom_site_fract_y
  _atom_site_fract_z
  _atom_site_occupancy
  Bi  Bi1       1.0  0.11500  0.25000  0.02370  1.0000
  Bi  Bi2       1.0  0.61500  0.25000  0.47600  1.0000
  Bi  Bi3       1.0  0.38500  0.75000  0.52400  1.0000
  Bi  Bi4       1.0  0.88500  0.75000  0.97600  1.0000
  Cu  Cu1       1.0  0.56900  0.75000  0.18400  1.0000
  Cu  Cu2       1.0  0.41100  0.25000  0.19000  1.0000
  Cu  Cu3       1.0  0.91100  0.25000  0.31000  1.0000
  Cu  Cu4       1.0  0.06900  0.75000  0.31600  1.0000
  Cu  Cu5       1.0  0.93100  0.25000  0.68400  1.0000
  Cu  Cu6       1.0  0.08900  0.75000  0.69000  1.0000
  Cu  Cu7       1.0  0.58900  0.75000  0.81000  1.0000
  Cu  Cu8       1.0  0.43100  0.25000  0.81600  1.0000
  O   O1        1.0  0.62400  0.50100  0.00704  1.0000
  O   O2        1.0  0.62400  0.99900  0.00704  1.0000
  O   O3        1.0  0.20000  0.75000  0.08150  1.0000
  O   O4        1.0  0.99400  0.00341  0.17700  1.0000
  O   O5        1.0  0.99400  0.49700  0.17700  1.0000
  O   O6        1.0  0.73500  0.25000  0.22600  1.0000
  O   O7        1.0  0.23500  0.25000  0.27400  1.0000
  O   O8        1.0  0.49400  0.00341  0.32300  1.0000
  O   O9        1.0  0.49400  0.49700  0.32300  1.0000
  O   O10       1.0  0.70000  0.75000  0.41800  1.0000
  O   O11       1.0  0.12400  0.50100  0.49300  1.0000
  O   O12       1.0  0.12400  0.99900  0.49300  1.0000
  O   O13       1.0  0.87600  0.00053  0.50700  1.0000
  O   O14       1.0  0.87600  0.49900  0.50700  1.0000
  O   O15       1.0  0.30000  0.25000  0.58200  1.0000
  O   O16       1.0  0.50600  0.50300  0.67700  1.0000
  O   O17       1.0  0.50600  0.99700  0.67700  1.0000
  O   O18       1.0  0.76500  0.75000  0.72600  1.0000
  O   O19       1.0  0.26500  0.75000  0.77400  1.0000
  O   O20       1.0  0.00564  0.50300  0.82300  1.0000
  O   O21       1.0  0.00564  0.99700  0.82300  1.0000
  O   O22       1.0  0.80000  0.25000  0.91800  1.0000
  O   O23       1.0  0.37600  0.00053  0.99300  1.0000
  O   O24       1.0  0.37600  0.49900  0.99300  1.0000
  P   P1        1.0  0.69700  0.25000  0.03730  1.0000
  P   P2        1.0  0.19700  0.25000  0.46300  1.0000
  P   P3        1.0  0.80300  0.75000  0.53700  1.0000
  P   P4        1.0  0.30300  0.75000  0.96300  1.0000
