data_image0
_chemical_formula_structural       Cu4K2Mg4O24V6
_chemical_formula_sum              "Cu4 K2 Mg4 O24 V6"
_cell_length_a       6.89887
_cell_length_b       8.72491
_cell_length_c       8.72491
_cell_angle_alpha    92.5565
_cell_angle_beta     105.036
_cell_angle_gamma    105.036

_space_group_name_H-M_alt    "P 1"
_space_group_IT_number       1

loop_
  _space_group_symop_operation_xyz
  'x, y, z'

loop_
  _atom_site_type_symbol
  _atom_site_label
  _atom_site_symmetry_multiplicity
  _atom_site_fract_x
  _atom_site_fract_y
  _atom_site_fract_z
  _atom_site_occupancy
  Cu  Cu1       1.0  0.75000  0.73300  0.26700  1.0000
  Cu  Cu2       1.0  0.25000  0.50500  0.49500  1.0000
  Cu  Cu3       1.0  0.75000  0.49500  0.50500  1.0000
  Cu  Cu4       1.0  0.25000  0.26700  0.73300  1.0000
  K   K1        1.0  0.25000  0.99000  0.00982  1.0000
  K   K2        1.0  0.75000  0.00982  0.99000  1.0000
  Mg  Mg1       1.0  0.12300  0.37300  0.05300  1.0000
  Mg  Mg2       1.0  0.62300  0.05300  0.37300  1.0000
  Mg  Mg3       1.0  0.37700  0.94700  0.62700  1.0000
  Mg  Mg4       1.0  0.87700  0.62700  0.94700  1.0000
  O   O1        1.0  0.62800  0.67000  0.02160  1.0000
  O   O2        1.0  0.82200  0.40300  0.02690  1.0000
  O   O3        1.0  0.02860  0.75500  0.17100  1.0000
  O   O4        1.0  0.11300  0.18100  0.17500  1.0000
  O   O5        1.0  0.61300  0.17500  0.18100  1.0000
  O   O6        1.0  0.47100  0.82900  0.24500  1.0000
  O   O7        1.0  0.23400  0.50900  0.27200  1.0000
  O   O8        1.0  0.67500  0.50000  0.27900  1.0000
  O   O9        1.0  0.87200  0.97800  0.33000  1.0000
  O   O10       1.0  0.32200  0.02690  0.40300  1.0000
  O   O11       1.0  0.26600  0.72800  0.49100  1.0000
  O   O12       1.0  0.17500  0.27900  0.50000  1.0000
  O   O13       1.0  0.82500  0.72100  0.50000  1.0000
  O   O14       1.0  0.73400  0.27200  0.50900  1.0000
  O   O15       1.0  0.67800  0.97300  0.59700  1.0000
  O   O16       1.0  0.12800  0.02160  0.67000  1.0000
  O   O17       1.0  0.32500  0.50000  0.72100  1.0000
  O   O18       1.0  0.76600  0.49100  0.72800  1.0000
  O   O19       1.0  0.52900  0.17100  0.75500  1.0000
  O   O20       1.0  0.38700  0.82500  0.81900  1.0000
  O   O21       1.0  0.88700  0.81900  0.82500  1.0000
  O   O22       1.0  0.97100  0.24500  0.82900  1.0000
  O   O23       1.0  0.17800  0.59700  0.97300  1.0000
  O   O24       1.0  0.37200  0.33000  0.97800  1.0000
  V   V1        1.0  0.61900  0.35400  0.11400  1.0000
  V   V2        1.0  0.25000  0.71500  0.28500  1.0000
  V   V3        1.0  0.11900  0.11400  0.35400  1.0000
  V   V4        1.0  0.88100  0.88600  0.64600  1.0000
  V   V5        1.0  0.75000  0.28500  0.71500  1.0000
  V   V6        1.0  0.38100  0.64600  0.88600  1.0000
