data_image0
_chemical_formula_structural       FeGe3La
_chemical_formula_sum              "Fe1 Ge3 La1"
_cell_length_a       4.35379
_cell_length_b       4.35379
_cell_length_c       5.85093
_cell_angle_alpha    111.843
_cell_angle_beta     111.843
_cell_angle_gamma    90

_space_group_name_H-M_alt    "P 1"
_space_group_IT_number       1

loop_
  _space_group_symop_operation_xyz
  'x, y, z'

loop_
  _atom_site_type_symbol
  _atom_site_label
  _atom_site_symmetry_multiplicity
  _atom_site_fract_x
  _atom_site_fract_y
  _atom_site_fract_z
  _atom_site_occupancy
  Fe  Fe1       1.0  0.66400  0.66400  0.32700  1.0000
  Ge  Ge1       1.0  0.75600  0.25600  0.51200  1.0000
  Ge  Ge2       1.0  0.25600  0.75600  0.51200  1.0000
  Ge  Ge3       1.0  0.43500  0.43500  0.86900  1.0000
  La  La1       1.0  0.00008  0.00008  0.00015  1.0000
