data_image0
_chemical_formula_structural       Cl24Ga4N4Se8
_chemical_formula_sum              "Cl24 Ga4 N4 Se8"
_cell_length_a       9.9428
_cell_length_b       11.7651
_cell_length_c       10.7811
_cell_angle_alpha    90
_cell_angle_beta     113.658
_cell_angle_gamma    90

_space_group_name_H-M_alt    "P 1"
_space_group_IT_number       1

loop_
  _space_group_symop_operation_xyz
  'x, y, z'

loop_
  _atom_site_type_symbol
  _atom_site_label
  _atom_site_symmetry_multiplicity
  _atom_site_fract_x
  _atom_site_fract_y
  _atom_site_fract_z
  _atom_site_occupancy
  Cl  Cl1       1.0  0.38300  0.21200  0.06920  1.0000
  Cl  Cl2       1.0  0.36800  0.63200  0.08130  1.0000
  Cl  Cl3       1.0  0.00398  0.82600  0.08330  1.0000
  Cl  Cl4       1.0  0.14000  0.40500  0.14500  1.0000
  Cl  Cl5       1.0  0.42500  0.92000  0.16300  1.0000
  Cl  Cl6       1.0  0.83400  0.58700  0.18200  1.0000
  Cl  Cl7       1.0  0.16600  0.08720  0.31800  1.0000
  Cl  Cl8       1.0  0.57500  0.42000  0.33700  1.0000
  Cl  Cl9       1.0  0.86000  0.90500  0.35500  1.0000
  Cl  Cl10      1.0  0.99600  0.32600  0.41700  1.0000
  Cl  Cl11      1.0  0.63200  0.13200  0.41900  1.0000
  Cl  Cl12      1.0  0.61700  0.71200  0.43100  1.0000
  Cl  Cl13      1.0  0.38300  0.28800  0.56900  1.0000
  Cl  Cl14      1.0  0.36800  0.86800  0.58100  1.0000
  Cl  Cl15      1.0  0.00398  0.67400  0.58300  1.0000
  Cl  Cl16      1.0  0.14000  0.09520  0.64500  1.0000
  Cl  Cl17      1.0  0.42500  0.58000  0.66300  1.0000
  Cl  Cl18      1.0  0.83400  0.91300  0.68200  1.0000
  Cl  Cl19      1.0  0.16600  0.41300  0.81800  1.0000
  Cl  Cl20      1.0  0.57500  0.07960  0.83700  1.0000
  Cl  Cl21      1.0  0.86000  0.59500  0.85500  1.0000
  Cl  Cl22      1.0  0.99600  0.17400  0.91700  1.0000
  Cl  Cl23      1.0  0.63200  0.36800  0.91900  1.0000
  Cl  Cl24      1.0  0.61700  0.78800  0.93100  1.0000
  Ga  Ga1       1.0  0.82600  0.69400  0.01250  1.0000
  Ga  Ga2       1.0  0.17400  0.19400  0.48700  1.0000
  Ga  Ga3       1.0  0.82600  0.80600  0.51300  1.0000
  Ga  Ga4       1.0  0.17400  0.30600  0.98700  1.0000
  N   N1        1.0  0.78300  0.17300  0.13000  1.0000
  N   N2        1.0  0.21700  0.67300  0.37000  1.0000
  N   N3        1.0  0.78300  0.32700  0.63000  1.0000
  N   N4        1.0  0.21700  0.82700  0.87000  1.0000
  Se  Se1       1.0  0.72500  0.04610  0.04710  1.0000
  Se  Se2       1.0  0.78600  0.31900  0.12200  1.0000
  Se  Se3       1.0  0.21400  0.81900  0.37800  1.0000
  Se  Se4       1.0  0.27500  0.54600  0.45300  1.0000
  Se  Se5       1.0  0.72500  0.45400  0.54700  1.0000
  Se  Se6       1.0  0.78600  0.18100  0.62200  1.0000
  Se  Se7       1.0  0.21400  0.68100  0.87800  1.0000
  Se  Se8       1.0  0.27500  0.95400  0.95300  1.0000
