data_image0
_chemical_formula_structural       O6P2Rb2
_chemical_formula_sum              "O6 P2 Rb2"
_cell_length_a       4.75841
_cell_length_b       5.91833
_cell_length_c       7.09347
_cell_angle_alpha    114.656
_cell_angle_beta     90
_cell_angle_gamma    90

_space_group_name_H-M_alt    "P 1"
_space_group_IT_number       1

loop_
  _space_group_symop_operation_xyz
  'x, y, z'

loop_
  _atom_site_type_symbol
  _atom_site_label
  _atom_site_symmetry_multiplicity
  _atom_site_fract_x
  _atom_site_fract_y
  _atom_site_fract_z
  _atom_site_occupancy
  O   O1        1.0  0.00000  0.00000  0.00000  1.0000
  O   O2        1.0  0.50000  0.00000  0.00000  1.0000
  O   O3        1.0  0.25000  0.35900  0.28100  1.0000
  O   O4        1.0  0.25000  0.92200  0.28100  1.0000
  O   O5        1.0  0.75000  0.07810  0.71900  1.0000
  O   O6        1.0  0.75000  0.64100  0.71900  1.0000
  P   P1        1.0  0.25000  0.08150  0.16300  1.0000
  P   P2        1.0  0.75000  0.91900  0.83700  1.0000
  Rb  Rb1       1.0  0.75000  0.65300  0.30500  1.0000
  Rb  Rb2       1.0  0.25000  0.34700  0.69500  1.0000
