data_image0
_chemical_formula_structural       I20K8N4O4Ru4
_chemical_formula_sum              "I20 K8 N4 O4 Ru4"
_cell_length_a       7.82415
_cell_length_b       11.5683
_cell_length_c       15.063
_cell_angle_alpha    90
_cell_angle_beta     90
_cell_angle_gamma    90

_space_group_name_H-M_alt    "P 1"
_space_group_IT_number       1

loop_
  _space_group_symop_operation_xyz
  'x, y, z'

loop_
  _atom_site_type_symbol
  _atom_site_label
  _atom_site_symmetry_multiplicity
  _atom_site_fract_x
  _atom_site_fract_y
  _atom_site_fract_z
  _atom_site_occupancy
  I   I1        1.0  0.47100  0.25000  0.00234  1.0000
  I   I2        1.0  0.19100  0.01290  0.11200  1.0000
  I   I3        1.0  0.19100  0.48700  0.11200  1.0000
  I   I4        1.0  0.91000  0.25000  0.22300  1.0000
  I   I5        1.0  0.89400  0.75000  0.24400  1.0000
  I   I6        1.0  0.39400  0.25000  0.25600  1.0000
  I   I7        1.0  0.41000  0.75000  0.27700  1.0000
  I   I8        1.0  0.69100  0.51300  0.38800  1.0000
  I   I9        1.0  0.69100  0.98700  0.38800  1.0000
  I   I10       1.0  0.97100  0.75000  0.49800  1.0000
  I   I11       1.0  0.02930  0.25000  0.50200  1.0000
  I   I12       1.0  0.30900  0.01290  0.61200  1.0000
  I   I13       1.0  0.30900  0.48700  0.61200  1.0000
  I   I14       1.0  0.59000  0.25000  0.72300  1.0000
  I   I15       1.0  0.60600  0.75000  0.74400  1.0000
  I   I16       1.0  0.10600  0.25000  0.75600  1.0000
  I   I17       1.0  0.08990  0.75000  0.77700  1.0000
  I   I18       1.0  0.80900  0.51300  0.88800  1.0000
  I   I19       1.0  0.80900  0.98700  0.88800  1.0000
  I   I20       1.0  0.52900  0.75000  0.99800  1.0000
  K   K1        1.0  0.65800  0.00063  0.14300  1.0000
  K   K2        1.0  0.65800  0.49900  0.14300  1.0000
  K   K3        1.0  0.15800  0.50100  0.35700  1.0000
  K   K4        1.0  0.15800  0.99900  0.35700  1.0000
  K   K5        1.0  0.84200  0.00063  0.64300  1.0000
  K   K6        1.0  0.84200  0.49900  0.64300  1.0000
  K   K7        1.0  0.34200  0.50100  0.85700  1.0000
  K   K8        1.0  0.34200  0.99900  0.85700  1.0000
  N   N1        1.0  0.04040  0.25000  0.02110  1.0000
  N   N2        1.0  0.54000  0.75000  0.47900  1.0000
  N   N3        1.0  0.46000  0.25000  0.52100  1.0000
  N   N4        1.0  0.96000  0.75000  0.97900  1.0000
  O   O1        1.0  0.06570  0.75000  0.03380  1.0000
  O   O2        1.0  0.56600  0.25000  0.46600  1.0000
  O   O3        1.0  0.43400  0.75000  0.53400  1.0000
  O   O4        1.0  0.93400  0.25000  0.96600  1.0000
  Ru  Ru1       1.0  0.18600  0.25000  0.11000  1.0000
  Ru  Ru2       1.0  0.68600  0.75000  0.39000  1.0000
  Ru  Ru3       1.0  0.31400  0.25000  0.61000  1.0000
  Ru  Ru4       1.0  0.81400  0.75000  0.89000  1.0000
