data_image0
_chemical_formula_structural       Ag2Mo6O28P4
_chemical_formula_sum              "Ag2 Mo6 O28 P4"
_cell_length_a       8.04116
_cell_length_b       6.38459
_cell_length_c       10.5325
_cell_angle_alpha    90
_cell_angle_beta     111.609
_cell_angle_gamma    90

_space_group_name_H-M_alt    "P 1"
_space_group_IT_number       1

loop_
  _space_group_symop_operation_xyz
  'x, y, z'

loop_
  _atom_site_type_symbol
  _atom_site_label
  _atom_site_symmetry_multiplicity
  _atom_site_fract_x
  _atom_site_fract_y
  _atom_site_fract_z
  _atom_site_occupancy
  Ag  Ag1       1.0  0.52100  0.75000  0.26200  1.0000
  Ag  Ag2       1.0  0.47900  0.25000  0.73800  1.0000
  Mo  Mo1       1.0  0.25700  0.25000  0.01250  1.0000
  Mo  Mo2       1.0  0.27200  0.25000  0.33400  1.0000
  Mo  Mo3       1.0  0.83000  0.25000  0.38000  1.0000
  Mo  Mo4       1.0  0.17000  0.75000  0.62000  1.0000
  Mo  Mo5       1.0  0.72800  0.75000  0.66600  1.0000
  Mo  Mo6       1.0  0.74300  0.75000  0.98700  1.0000
  O   O1        1.0  0.23500  0.55900  0.03100  1.0000
  O   O2        1.0  0.23500  0.94100  0.03100  1.0000
  O   O3        1.0  0.58500  0.75000  0.05980  1.0000
  O   O4        1.0  0.04660  0.25000  0.11600  1.0000
  O   O5        1.0  0.96200  0.75000  0.16200  1.0000
  O   O6        1.0  0.76900  0.25000  0.17800  1.0000
  O   O7        1.0  0.38600  0.25000  0.20200  1.0000
  O   O8        1.0  0.24500  0.56100  0.30700  1.0000
  O   O9        1.0  0.24500  0.93900  0.30700  1.0000
  O   O10       1.0  0.70600  0.02610  0.37300  1.0000
  O   O11       1.0  0.70600  0.47400  0.37300  1.0000
  O   O12       1.0  0.07280  0.25000  0.38900  1.0000
  O   O13       1.0  0.04930  0.75000  0.41400  1.0000
  O   O14       1.0  0.45200  0.25000  0.48300  1.0000
  O   O15       1.0  0.54800  0.75000  0.51700  1.0000
  O   O16       1.0  0.95100  0.25000  0.58600  1.0000
  O   O17       1.0  0.92700  0.75000  0.61100  1.0000
  O   O18       1.0  0.29400  0.52600  0.62700  1.0000
  O   O19       1.0  0.29400  0.97400  0.62700  1.0000
  O   O20       1.0  0.75500  0.06070  0.69300  1.0000
  O   O21       1.0  0.75500  0.43900  0.69300  1.0000
  O   O22       1.0  0.61400  0.75000  0.79800  1.0000
  O   O23       1.0  0.23100  0.75000  0.82200  1.0000
  O   O24       1.0  0.03840  0.25000  0.83800  1.0000
  O   O25       1.0  0.95300  0.75000  0.88400  1.0000
  O   O26       1.0  0.41500  0.25000  0.94000  1.0000
  O   O27       1.0  0.76500  0.05910  0.96900  1.0000
  O   O28       1.0  0.76500  0.44100  0.96900  1.0000
  P   P1        1.0  0.84200  0.25000  0.06200  1.0000
  P   P2        1.0  0.12200  0.75000  0.29700  1.0000
  P   P3        1.0  0.87800  0.25000  0.70300  1.0000
  P   P4        1.0  0.15800  0.75000  0.93800  1.0000
