data_image0
_chemical_formula_structural       Cu4La8O24Sn4
_chemical_formula_sum              "Cu4 La8 O24 Sn4"
_cell_length_a       8.52574
_cell_length_b       7.79607
_cell_length_c       7.80194
_cell_angle_alpha    90
_cell_angle_beta     91.3534
_cell_angle_gamma    90

_space_group_name_H-M_alt    "P 1"
_space_group_IT_number       1

loop_
  _space_group_symop_operation_xyz
  'x, y, z'

loop_
  _atom_site_type_symbol
  _atom_site_label
  _atom_site_symmetry_multiplicity
  _atom_site_fract_x
  _atom_site_fract_y
  _atom_site_fract_z
  _atom_site_occupancy
  Cu  Cu1       1.0  0.00000  0.00000  0.00000  1.0000
  Cu  Cu2       1.0  0.00000  0.50000  0.00000  1.0000
  Cu  Cu3       1.0  0.00000  0.00000  0.50000  1.0000
  Cu  Cu4       1.0  0.00000  0.50000  0.50000  1.0000
  La  La1       1.0  0.24300  0.75000  0.21100  1.0000
  La  La2       1.0  0.80500  0.75000  0.22900  1.0000
  La  La3       1.0  0.77200  0.25000  0.27900  1.0000
  La  La4       1.0  0.21000  0.25000  0.28300  1.0000
  La  La5       1.0  0.79000  0.75000  0.71700  1.0000
  La  La6       1.0  0.22800  0.75000  0.72100  1.0000
  La  La7       1.0  0.19500  0.25000  0.77100  1.0000
  La  La8       1.0  0.75700  0.25000  0.78900  1.0000
  O   O1        1.0  0.02950  0.25000  0.03630  1.0000
  O   O2        1.0  0.73200  0.05290  0.05050  1.0000
  O   O3        1.0  0.73200  0.44700  0.05050  1.0000
  O   O4        1.0  0.54200  0.75000  0.08180  1.0000
  O   O5        1.0  0.42500  0.04730  0.24800  1.0000
  O   O6        1.0  0.42500  0.45300  0.24800  1.0000
  O   O7        1.0  0.03940  0.53500  0.24900  1.0000
  O   O8        1.0  0.03940  0.96500  0.24900  1.0000
  O   O9        1.0  0.72800  0.55200  0.44100  1.0000
  O   O10       1.0  0.72800  0.94800  0.44100  1.0000
  O   O11       1.0  0.98700  0.25000  0.47000  1.0000
  O   O12       1.0  0.41300  0.75000  0.47400  1.0000
  O   O13       1.0  0.58700  0.25000  0.52600  1.0000
  O   O14       1.0  0.01320  0.75000  0.53000  1.0000
  O   O15       1.0  0.27200  0.05220  0.55900  1.0000
  O   O16       1.0  0.27200  0.44800  0.55900  1.0000
  O   O17       1.0  0.96100  0.03510  0.75100  1.0000
  O   O18       1.0  0.96100  0.46500  0.75100  1.0000
  O   O19       1.0  0.57500  0.54700  0.75200  1.0000
  O   O20       1.0  0.57500  0.95300  0.75200  1.0000
  O   O21       1.0  0.45800  0.25000  0.91800  1.0000
  O   O22       1.0  0.26800  0.55300  0.94900  1.0000
  O   O23       1.0  0.26800  0.94700  0.94900  1.0000
  O   O24       1.0  0.97100  0.75000  0.96400  1.0000
  Sn  Sn1       1.0  0.50000  0.00000  0.00000  1.0000
  Sn  Sn2       1.0  0.50000  0.50000  0.00000  1.0000
  Sn  Sn3       1.0  0.50000  0.00000  0.50000  1.0000
  Sn  Sn4       1.0  0.50000  0.50000  0.50000  1.0000
