data_image0
_chemical_formula_structural       Mo6O28P4Sr2
_chemical_formula_sum              "Mo6 O28 P4 Sr2"
_cell_length_a       8.2163
_cell_length_b       6.42363
_cell_length_c       10.6365
_cell_angle_alpha    90
_cell_angle_beta     112.933
_cell_angle_gamma    90

_space_group_name_H-M_alt    "P 1"
_space_group_IT_number       1

loop_
  _space_group_symop_operation_xyz
  'x, y, z'

loop_
  _atom_site_type_symbol
  _atom_site_label
  _atom_site_symmetry_multiplicity
  _atom_site_fract_x
  _atom_site_fract_y
  _atom_site_fract_z
  _atom_site_occupancy
  Mo  Mo1       1.0  0.25600  0.25000  0.01560  1.0000
  Mo  Mo2       1.0  0.27000  0.25000  0.33400  1.0000
  Mo  Mo3       1.0  0.83600  0.25000  0.37800  1.0000
  Mo  Mo4       1.0  0.16400  0.75000  0.62200  1.0000
  Mo  Mo5       1.0  0.73000  0.75000  0.66600  1.0000
  Mo  Mo6       1.0  0.74400  0.75000  0.98400  1.0000
  O   O1        1.0  0.23700  0.56300  0.03620  1.0000
  O   O2        1.0  0.23700  0.93700  0.03620  1.0000
  O   O3        1.0  0.58700  0.75000  0.05320  1.0000
  O   O4        1.0  0.04570  0.25000  0.11700  1.0000
  O   O5        1.0  0.95900  0.75000  0.16500  1.0000
  O   O6        1.0  0.77100  0.25000  0.17300  1.0000
  O   O7        1.0  0.38100  0.25000  0.20600  1.0000
  O   O8        1.0  0.24200  0.56400  0.30900  1.0000
  O   O9        1.0  0.24200  0.93600  0.30900  1.0000
  O   O10       1.0  0.71300  0.02370  0.36300  1.0000
  O   O11       1.0  0.71300  0.47600  0.36300  1.0000
  O   O12       1.0  0.06560  0.25000  0.38500  1.0000
  O   O13       1.0  0.05310  0.75000  0.41800  1.0000
  O   O14       1.0  0.44500  0.25000  0.48800  1.0000
  O   O15       1.0  0.55500  0.75000  0.51200  1.0000
  O   O16       1.0  0.94700  0.25000  0.58200  1.0000
  O   O17       1.0  0.93400  0.75000  0.61500  1.0000
  O   O18       1.0  0.28700  0.52400  0.63700  1.0000
  O   O19       1.0  0.28700  0.97600  0.63700  1.0000
  O   O20       1.0  0.75800  0.06400  0.69100  1.0000
  O   O21       1.0  0.75800  0.43600  0.69100  1.0000
  O   O22       1.0  0.61900  0.75000  0.79400  1.0000
  O   O23       1.0  0.22900  0.75000  0.82700  1.0000
  O   O24       1.0  0.04150  0.25000  0.83500  1.0000
  O   O25       1.0  0.95400  0.75000  0.88300  1.0000
  O   O26       1.0  0.41300  0.25000  0.94700  1.0000
  O   O27       1.0  0.76300  0.06350  0.96400  1.0000
  O   O28       1.0  0.76300  0.43700  0.96400  1.0000
  P   P1        1.0  0.84300  0.25000  0.06090  1.0000
  P   P2        1.0  0.11800  0.75000  0.30000  1.0000
  P   P3        1.0  0.88200  0.25000  0.70000  1.0000
  P   P4        1.0  0.15700  0.75000  0.93900  1.0000
  Sr  Sr1       1.0  0.48800  0.75000  0.25300  1.0000
  Sr  Sr2       1.0  0.51200  0.25000  0.74700  1.0000
