data_image0
_chemical_formula_structural       Fe4Na6O24P6
_chemical_formula_sum              "Fe4 Na6 O24 P6"
_cell_length_a       8.7202
_cell_length_b       8.7202
_cell_length_c       8.72588
_cell_angle_alpha    120.206
_cell_angle_beta     59.794
_cell_angle_gamma    119.816

_space_group_name_H-M_alt    "P 1"
_space_group_IT_number       1

loop_
  _space_group_symop_operation_xyz
  'x, y, z'

loop_
  _atom_site_type_symbol
  _atom_site_label
  _atom_site_symmetry_multiplicity
  _atom_site_fract_x
  _atom_site_fract_y
  _atom_site_fract_z
  _atom_site_occupancy
  Fe  Fe1       1.0  0.15200  0.35800  0.06010  1.0000
  Fe  Fe2       1.0  0.35800  0.15200  0.44000  1.0000
  Fe  Fe3       1.0  0.64200  0.84800  0.56000  1.0000
  Fe  Fe4       1.0  0.84800  0.64200  0.94000  1.0000
  Na  Na1       1.0  0.50000  0.00000  0.00000  1.0000
  Na  Na2       1.0  0.75100  0.10600  0.24000  1.0000
  Na  Na3       1.0  0.10600  0.75100  0.26000  1.0000
  Na  Na4       1.0  0.00000  0.50000  0.50000  1.0000
  Na  Na5       1.0  0.89400  0.24900  0.74000  1.0000
  Na  Na6       1.0  0.24900  0.89400  0.76000  1.0000
  O   O1        1.0  0.80100  0.46600  0.04990  1.0000
  O   O2        1.0  0.01640  0.87500  0.07200  1.0000
  O   O3        1.0  0.62600  0.70900  0.09710  1.0000
  O   O4        1.0  0.06220  0.22600  0.24200  1.0000
  O   O5        1.0  0.58200  0.26600  0.24900  1.0000
  O   O6        1.0  0.43500  0.91100  0.24900  1.0000
  O   O7        1.0  0.91100  0.43500  0.25100  1.0000
  O   O8        1.0  0.26600  0.58200  0.25100  1.0000
  O   O9        1.0  0.22600  0.06220  0.25800  1.0000
  O   O10       1.0  0.70900  0.62600  0.40300  1.0000
  O   O11       1.0  0.87500  0.01640  0.42800  1.0000
  O   O12       1.0  0.46600  0.80100  0.45000  1.0000
  O   O13       1.0  0.53400  0.19900  0.55000  1.0000
  O   O14       1.0  0.12500  0.98400  0.57200  1.0000
  O   O15       1.0  0.29100  0.37400  0.59700  1.0000
  O   O16       1.0  0.77400  0.93800  0.74200  1.0000
  O   O17       1.0  0.73400  0.41800  0.74900  1.0000
  O   O18       1.0  0.08860  0.56500  0.74900  1.0000
  O   O19       1.0  0.56500  0.08860  0.75100  1.0000
  O   O20       1.0  0.41800  0.73400  0.75100  1.0000
  O   O21       1.0  0.93800  0.77400  0.75800  1.0000
  O   O22       1.0  0.37400  0.29100  0.90300  1.0000
  O   O23       1.0  0.98400  0.12500  0.92800  1.0000
  O   O24       1.0  0.19900  0.53400  0.95000  1.0000
  P   P1        1.0  0.74700  0.44900  0.23900  1.0000
  P   P2        1.0  0.04600  0.04600  0.25000  1.0000
  P   P3        1.0  0.44900  0.74700  0.26100  1.0000
  P   P4        1.0  0.55100  0.25300  0.73900  1.0000
  P   P5        1.0  0.95400  0.95400  0.75000  1.0000
  P   P6        1.0  0.25300  0.55100  0.76100  1.0000
