data_image0
_chemical_formula_structural       CeNi2P2
_chemical_formula_sum              "Ce1 Ni2 P2"
_cell_length_a       3.98475
_cell_length_b       3.98475
_cell_length_c       5.57087
_cell_angle_alpha    110.955
_cell_angle_beta     110.955
_cell_angle_gamma    90

_space_group_name_H-M_alt    "P 1"
_space_group_IT_number       1

loop_
  _space_group_symop_operation_xyz
  'x, y, z'

loop_
  _atom_site_type_symbol
  _atom_site_label
  _atom_site_symmetry_multiplicity
  _atom_site_fract_x
  _atom_site_fract_y
  _atom_site_fract_z
  _atom_site_occupancy
  Ce  Ce1       1.0  0.00000  0.00000  0.00000  1.0000
  Ni  Ni1       1.0  0.75000  0.25000  0.50000  1.0000
  Ni  Ni2       1.0  0.25000  0.75000  0.50000  1.0000
  P   P1        1.0  0.63000  0.63000  0.26100  1.0000
  P   P2        1.0  0.37000  0.37000  0.73900  1.0000
