data_image0
_chemical_formula_structural       Au6Tm2
_chemical_formula_sum              "Au6 Tm2"
_cell_length_a       6.05126
_cell_length_b       4.98711
_cell_length_c       5.11252
_cell_angle_alpha    90
_cell_angle_beta     90
_cell_angle_gamma    90

_space_group_name_H-M_alt    "P 1"
_space_group_IT_number       1

loop_
  _space_group_symop_operation_xyz
  'x, y, z'

loop_
  _atom_site_type_symbol
  _atom_site_label
  _atom_site_symmetry_multiplicity
  _atom_site_fract_x
  _atom_site_fract_y
  _atom_site_fract_z
  _atom_site_occupancy
  Au  Au1       1.0  0.99500  0.25000  0.16000  1.0000
  Au  Au2       1.0  0.50500  0.25000  0.16000  1.0000
  Au  Au3       1.0  0.25000  0.75000  0.33900  1.0000
  Au  Au4       1.0  0.75000  0.25000  0.66100  1.0000
  Au  Au5       1.0  0.00463  0.75000  0.84000  1.0000
  Au  Au6       1.0  0.49500  0.75000  0.84000  1.0000
  Tm  Tm1       1.0  0.75000  0.75000  0.34500  1.0000
  Tm  Tm2       1.0  0.25000  0.25000  0.65500  1.0000
