data_image0
_chemical_formula_structural       Cu6P2
_chemical_formula_sum              "Cu6 P2"
_cell_length_a       4.04737
_cell_length_b       4.04733
_cell_length_c       7.17708
_cell_angle_alpha    90
_cell_angle_beta     89.9993
_cell_angle_gamma    120

_space_group_name_H-M_alt    "P 1"
_space_group_IT_number       1

loop_
  _space_group_symop_operation_xyz
  'x, y, z'

loop_
  _atom_site_type_symbol
  _atom_site_label
  _atom_site_symmetry_multiplicity
  _atom_site_fract_x
  _atom_site_fract_y
  _atom_site_fract_z
  _atom_site_occupancy
  Cu  Cu1       1.0  0.66700  0.33300  0.04820  1.0000
  Cu  Cu2       1.0  0.00001  0.00000  0.19800  1.0000
  Cu  Cu3       1.0  0.66700  0.33300  0.39900  1.0000
  Cu  Cu4       1.0  0.33300  0.66700  0.60100  1.0000
  Cu  Cu5       1.0  0.00000  1.00000  0.80200  1.0000
  Cu  Cu6       1.0  0.33300  0.66700  0.95200  1.0000
  P   P1        1.0  0.33300  0.66700  0.27500  1.0000
  P   P2        1.0  0.66700  0.33300  0.72500  1.0000
