data_image0
_chemical_formula_structural       Ba4F28Na4Zr4
_chemical_formula_sum              "Ba4 F28 Na4 Zr4"
_cell_length_a       8.82662
_cell_length_b       5.45688
_cell_length_c       10.8596
_cell_angle_alpha    90
_cell_angle_beta     90
_cell_angle_gamma    90

_space_group_name_H-M_alt    "P 1"
_space_group_IT_number       1

loop_
  _space_group_symop_operation_xyz
  'x, y, z'

loop_
  _atom_site_type_symbol
  _atom_site_label
  _atom_site_symmetry_multiplicity
  _atom_site_fract_x
  _atom_site_fract_y
  _atom_site_fract_z
  _atom_site_occupancy
  Ba  Ba1       1.0  0.02490  0.25000  0.17200  1.0000
  Ba  Ba2       1.0  0.52500  0.25000  0.32800  1.0000
  Ba  Ba3       1.0  0.47500  0.75000  0.67200  1.0000
  Ba  Ba4       1.0  0.97500  0.75000  0.82800  1.0000
  F   F1        1.0  0.83200  0.50400  0.01490  1.0000
  F   F2        1.0  0.83200  0.99600  0.01490  1.0000
  F   F3        1.0  0.56900  0.51000  0.11100  1.0000
  F   F4        1.0  0.56900  0.99000  0.11100  1.0000
  F   F5        1.0  0.98800  0.75000  0.17300  1.0000
  F   F6        1.0  0.28000  0.00185  0.21900  1.0000
  F   F7        1.0  0.28000  0.49800  0.21900  1.0000
  F   F8        1.0  0.78000  0.00185  0.28100  1.0000
  F   F9        1.0  0.78000  0.49800  0.28100  1.0000
  F   F10       1.0  0.48800  0.75000  0.32700  1.0000
  F   F11       1.0  0.06900  0.51000  0.38900  1.0000
  F   F12       1.0  0.06900  0.99000  0.38900  1.0000
  F   F13       1.0  0.33200  0.50400  0.48500  1.0000
  F   F14       1.0  0.33200  0.99600  0.48500  1.0000
  F   F15       1.0  0.66800  0.00422  0.51500  1.0000
  F   F16       1.0  0.66800  0.49600  0.51500  1.0000
  F   F17       1.0  0.93100  0.01020  0.61100  1.0000
  F   F18       1.0  0.93100  0.49000  0.61100  1.0000
  F   F19       1.0  0.51200  0.25000  0.67300  1.0000
  F   F20       1.0  0.22000  0.50200  0.71900  1.0000
  F   F21       1.0  0.22000  0.99800  0.71900  1.0000
  F   F22       1.0  0.72000  0.50200  0.78100  1.0000
  F   F23       1.0  0.72000  0.99800  0.78100  1.0000
  F   F24       1.0  0.01180  0.25000  0.82700  1.0000
  F   F25       1.0  0.43100  0.01020  0.88900  1.0000
  F   F26       1.0  0.43100  0.49000  0.88900  1.0000
  F   F27       1.0  0.16800  0.00422  0.98500  1.0000
  F   F28       1.0  0.16800  0.49600  0.98500  1.0000
  Na  Na1       1.0  0.36200  0.75000  0.05380  1.0000
  Na  Na2       1.0  0.86200  0.75000  0.44600  1.0000
  Na  Na3       1.0  0.13800  0.25000  0.55400  1.0000
  Na  Na4       1.0  0.63800  0.25000  0.94600  1.0000
  Zr  Zr1       1.0  0.74600  0.75000  0.14200  1.0000
  Zr  Zr2       1.0  0.24600  0.75000  0.35800  1.0000
  Zr  Zr3       1.0  0.75400  0.25000  0.64200  1.0000
  Zr  Zr4       1.0  0.25400  0.25000  0.85800  1.0000
