data_image0
_chemical_formula_structural       C22Er14Ru4
_chemical_formula_sum              "C22 Er14 Ru4"
_cell_length_a       3.40394
_cell_length_b       8.41178
_cell_length_c       19.6471
_cell_angle_alpha    90
_cell_angle_beta     90
_cell_angle_gamma    78.3266

_space_group_name_H-M_alt    "P 1"
_space_group_IT_number       1

loop_
  _space_group_symop_operation_xyz
  'x, y, z'

loop_
  _atom_site_type_symbol
  _atom_site_label
  _atom_site_symmetry_multiplicity
  _atom_site_fract_x
  _atom_site_fract_y
  _atom_site_fract_z
  _atom_site_occupancy
  C   C1        1.0  0.79400  0.41200  0.06340  1.0000
  C   C2        1.0  0.07430  0.85100  0.07990  1.0000
  C   C3        1.0  0.87300  0.25300  0.08400  1.0000
  C   C4        1.0  0.13400  0.73100  0.12300  1.0000
  C   C5        1.0  0.49800  0.00394  0.25000  1.0000
  C   C6        1.0  0.80200  0.39700  0.25000  1.0000
  C   C7        1.0  0.72100  0.55900  0.25000  1.0000
  C   C8        1.0  0.13400  0.73100  0.37700  1.0000
  C   C9        1.0  0.87300  0.25300  0.41600  1.0000
  C   C10       1.0  0.07430  0.85100  0.42000  1.0000
  C   C11       1.0  0.79400  0.41200  0.43700  1.0000
  C   C12       1.0  0.20600  0.58800  0.56300  1.0000
  C   C13       1.0  0.92600  0.14900  0.58000  1.0000
  C   C14       1.0  0.12700  0.74700  0.58400  1.0000
  C   C15       1.0  0.86600  0.26900  0.62300  1.0000
  C   C16       1.0  0.27900  0.44100  0.75000  1.0000
  C   C17       1.0  0.19800  0.60300  0.75000  1.0000
  C   C18       1.0  0.50200  0.99600  0.75000  1.0000
  C   C19       1.0  0.86600  0.26900  0.87700  1.0000
  C   C20       1.0  0.12700  0.74700  0.91600  1.0000
  C   C21       1.0  0.92600  0.14900  0.92000  1.0000
  C   C22       1.0  0.20600  0.58800  0.93700  1.0000
  Er  Er1       1.0  0.66200  0.67600  0.01960  1.0000
  Er  Er2       1.0  0.47700  0.04540  0.12700  1.0000
  Er  Er3       1.0  0.27800  0.44300  0.15500  1.0000
  Er  Er4       1.0  0.10300  0.79400  0.25000  1.0000
  Er  Er5       1.0  0.27800  0.44300  0.34500  1.0000
  Er  Er6       1.0  0.47700  0.04540  0.37300  1.0000
  Er  Er7       1.0  0.66200  0.67600  0.48000  1.0000
  Er  Er8       1.0  0.33800  0.32400  0.52000  1.0000
  Er  Er9       1.0  0.52300  0.95500  0.62700  1.0000
  Er  Er10      1.0  0.72200  0.55700  0.65500  1.0000
  Er  Er11      1.0  0.89700  0.20600  0.75000  1.0000
  Er  Er12      1.0  0.72200  0.55700  0.84500  1.0000
  Er  Er13      1.0  0.52300  0.95500  0.87300  1.0000
  Er  Er14      1.0  0.33800  0.32400  0.98000  1.0000
  Ru  Ru1       1.0  0.00000  0.00000  0.00000  1.0000
  Ru  Ru2       1.0  0.91900  0.16100  0.25000  1.0000
  Ru  Ru3       1.0  0.00000  0.00000  0.50000  1.0000
  Ru  Ru4       1.0  0.08060  0.83900  0.75000  1.0000
