data_image0
_chemical_formula_structural       Ge4Nb12Te24
_chemical_formula_sum              "Ge4 Nb12 Te24"
_cell_length_a       6.52572
_cell_length_b       14.4772
_cell_length_c       11.6905
_cell_angle_alpha    90
_cell_angle_beta     90
_cell_angle_gamma    90

_space_group_name_H-M_alt    "P 1"
_space_group_IT_number       1

loop_
  _space_group_symop_operation_xyz
  'x, y, z'

loop_
  _atom_site_type_symbol
  _atom_site_label
  _atom_site_symmetry_multiplicity
  _atom_site_fract_x
  _atom_site_fract_y
  _atom_site_fract_z
  _atom_site_occupancy
  Ge  Ge1       1.0  0.07470  0.25000  0.07500  1.0000
  Ge  Ge2       1.0  0.57500  0.25000  0.42500  1.0000
  Ge  Ge3       1.0  0.42500  0.75000  0.57500  1.0000
  Ge  Ge4       1.0  0.92500  0.75000  0.92500  1.0000
  Nb  Nb1       1.0  0.30200  0.75000  0.03240  1.0000
  Nb  Nb2       1.0  0.82600  0.75000  0.16600  1.0000
  Nb  Nb3       1.0  0.46300  0.25000  0.18600  1.0000
  Nb  Nb4       1.0  0.96300  0.25000  0.31400  1.0000
  Nb  Nb5       1.0  0.32600  0.75000  0.33400  1.0000
  Nb  Nb6       1.0  0.80200  0.75000  0.46800  1.0000
  Nb  Nb7       1.0  0.19800  0.25000  0.53200  1.0000
  Nb  Nb8       1.0  0.67400  0.25000  0.66600  1.0000
  Nb  Nb9       1.0  0.03680  0.75000  0.68600  1.0000
  Nb  Nb10      1.0  0.53700  0.75000  0.81400  1.0000
  Nb  Nb11      1.0  0.17400  0.25000  0.83400  1.0000
  Nb  Nb12      1.0  0.69800  0.25000  0.96800  1.0000
  Te  Te1       1.0  0.63500  0.62300  0.00675  1.0000
  Te  Te2       1.0  0.63500  0.87700  0.00675  1.0000
  Te  Te3       1.0  0.78400  0.12000  0.15900  1.0000
  Te  Te4       1.0  0.78400  0.38000  0.15900  1.0000
  Te  Te5       1.0  0.14500  0.61900  0.18200  1.0000
  Te  Te6       1.0  0.14500  0.88100  0.18200  1.0000
  Te  Te7       1.0  0.64500  0.61900  0.31800  1.0000
  Te  Te8       1.0  0.64500  0.88100  0.31800  1.0000
  Te  Te9       1.0  0.28400  0.12000  0.34100  1.0000
  Te  Te10      1.0  0.28400  0.38000  0.34100  1.0000
  Te  Te11      1.0  0.13500  0.62300  0.49300  1.0000
  Te  Te12      1.0  0.13500  0.87700  0.49300  1.0000
  Te  Te13      1.0  0.86500  0.12300  0.50700  1.0000
  Te  Te14      1.0  0.86500  0.37700  0.50700  1.0000
  Te  Te15      1.0  0.71600  0.62000  0.65900  1.0000
  Te  Te16      1.0  0.71600  0.88000  0.65900  1.0000
  Te  Te17      1.0  0.35500  0.11900  0.68200  1.0000
  Te  Te18      1.0  0.35500  0.38100  0.68200  1.0000
  Te  Te19      1.0  0.85500  0.11900  0.81800  1.0000
  Te  Te20      1.0  0.85500  0.38100  0.81800  1.0000
  Te  Te21      1.0  0.21600  0.62000  0.84100  1.0000
  Te  Te22      1.0  0.21600  0.88000  0.84100  1.0000
  Te  Te23      1.0  0.36500  0.12300  0.99300  1.0000
  Te  Te24      1.0  0.36500  0.37700  0.99300  1.0000
