data_image0
_chemical_formula_structural       HK6Na15Tl18
_chemical_formula_sum              "H1 K6 Na15 Tl18"
_cell_length_a       10.702
_cell_length_b       10.702
_cell_length_c       10.702
_cell_angle_alpha    90
_cell_angle_beta     90
_cell_angle_gamma    90

_space_group_name_H-M_alt    "P 1"
_space_group_IT_number       1

loop_
  _space_group_symop_operation_xyz
  'x, y, z'

loop_
  _atom_site_type_symbol
  _atom_site_label
  _atom_site_symmetry_multiplicity
  _atom_site_fract_x
  _atom_site_fract_y
  _atom_site_fract_z
  _atom_site_occupancy
  H   H1        1.0  0.50000  0.50000  0.50000  1.0000
  K   K1        1.0  0.18700  0.50000  0.00000  1.0000
  K   K2        1.0  0.81300  0.50000  0.00000  1.0000
  K   K3        1.0  0.50000  0.00000  0.18700  1.0000
  K   K4        1.0  0.00000  0.18700  0.50000  1.0000
  K   K5        1.0  0.00000  0.81300  0.50000  1.0000
  K   K6        1.0  0.50000  0.00000  0.81300  1.0000
  Na  Na1       1.0  0.00000  0.00000  0.00000  1.0000
  Na  Na2       1.0  0.50000  0.32900  0.00000  1.0000
  Na  Na3       1.0  0.50000  0.67100  0.00000  1.0000
  Na  Na4       1.0  0.28000  0.28000  0.28000  1.0000
  Na  Na5       1.0  0.72000  0.28000  0.28000  1.0000
  Na  Na6       1.0  0.28000  0.72000  0.28000  1.0000
  Na  Na7       1.0  0.72000  0.72000  0.28000  1.0000
  Na  Na8       1.0  0.00000  0.50000  0.32900  1.0000
  Na  Na9       1.0  0.32900  0.00000  0.50000  1.0000
  Na  Na10      1.0  0.67100  0.00000  0.50000  1.0000
  Na  Na11      1.0  0.00000  0.50000  0.67100  1.0000
  Na  Na12      1.0  0.28000  0.28000  0.72000  1.0000
  Na  Na13      1.0  0.72000  0.28000  0.72000  1.0000
  Na  Na14      1.0  0.28000  0.72000  0.72000  1.0000
  Na  Na15      1.0  0.72000  0.72000  0.72000  1.0000
  Tl  Tl1       1.0  0.25600  0.15700  0.00000  1.0000
  Tl  Tl2       1.0  0.74400  0.15700  0.00000  1.0000
  Tl  Tl3       1.0  0.25600  0.84300  0.00000  1.0000
  Tl  Tl4       1.0  0.74400  0.84300  0.00000  1.0000
  Tl  Tl5       1.0  0.00000  0.25600  0.15700  1.0000
  Tl  Tl6       1.0  0.00000  0.74400  0.15700  1.0000
  Tl  Tl7       1.0  0.15700  0.00000  0.25600  1.0000
  Tl  Tl8       1.0  0.84300  0.00000  0.25600  1.0000
  Tl  Tl9       1.0  0.50000  0.50000  0.27100  1.0000
  Tl  Tl10      1.0  0.50000  0.27100  0.50000  1.0000
  Tl  Tl11      1.0  0.27100  0.50000  0.50000  1.0000
  Tl  Tl12      1.0  0.72900  0.50000  0.50000  1.0000
  Tl  Tl13      1.0  0.50000  0.72900  0.50000  1.0000
  Tl  Tl14      1.0  0.50000  0.50000  0.72900  1.0000
  Tl  Tl15      1.0  0.15700  0.00000  0.74400  1.0000
  Tl  Tl16      1.0  0.84300  0.00000  0.74400  1.0000
  Tl  Tl17      1.0  0.00000  0.25600  0.84300  1.0000
  Tl  Tl18      1.0  0.00000  0.74400  0.84300  1.0000
