data_image0
_chemical_formula_structural       Si20Tc12U8
_chemical_formula_sum              "Si20 Tc12 U8"
_cell_length_a       10.926
_cell_length_b       10.926
_cell_length_c       5.47952
_cell_angle_alpha    90
_cell_angle_beta     90
_cell_angle_gamma    90

_space_group_name_H-M_alt    "P 1"
_space_group_IT_number       1

loop_
  _space_group_symop_operation_xyz
  'x, y, z'

loop_
  _atom_site_type_symbol
  _atom_site_label
  _atom_site_symmetry_multiplicity
  _atom_site_fract_x
  _atom_site_fract_y
  _atom_site_fract_z
  _atom_site_occupancy
  Si  Si1       1.0  0.68400  0.02580  0.00000  1.0000
  Si  Si2       1.0  0.02580  0.31600  0.00000  1.0000
  Si  Si3       1.0  0.97400  0.68400  0.00000  1.0000
  Si  Si4       1.0  0.31600  0.97400  0.00000  1.0000
  Si  Si5       1.0  0.50000  0.50000  0.23300  1.0000
  Si  Si6       1.0  0.32700  0.17300  0.25000  1.0000
  Si  Si7       1.0  0.82700  0.32700  0.25000  1.0000
  Si  Si8       1.0  0.17300  0.67300  0.25000  1.0000
  Si  Si9       1.0  0.67300  0.82700  0.25000  1.0000
  Si  Si10      1.0  0.00000  0.00000  0.26700  1.0000
  Si  Si11      1.0  0.52600  0.18400  0.50000  1.0000
  Si  Si12      1.0  0.18400  0.47400  0.50000  1.0000
  Si  Si13      1.0  0.81600  0.52600  0.50000  1.0000
  Si  Si14      1.0  0.47400  0.81600  0.50000  1.0000
  Si  Si15      1.0  0.00000  0.00000  0.73300  1.0000
  Si  Si16      1.0  0.32700  0.17300  0.75000  1.0000
  Si  Si17      1.0  0.82700  0.32700  0.75000  1.0000
  Si  Si18      1.0  0.17300  0.67300  0.75000  1.0000
  Si  Si19      1.0  0.67300  0.82700  0.75000  1.0000
  Si  Si20      1.0  0.50000  0.50000  0.76700  1.0000
  Tc  Tc1       1.0  0.14200  0.12400  0.00000  1.0000
  Tc  Tc2       1.0  0.87600  0.14200  0.00000  1.0000
  Tc  Tc3       1.0  0.12400  0.85800  0.00000  1.0000
  Tc  Tc4       1.0  0.85800  0.87600  0.00000  1.0000
  Tc  Tc5       1.0  0.50000  0.00000  0.25000  1.0000
  Tc  Tc6       1.0  0.00000  0.50000  0.25000  1.0000
  Tc  Tc7       1.0  0.37600  0.35800  0.50000  1.0000
  Tc  Tc8       1.0  0.64200  0.37600  0.50000  1.0000
  Tc  Tc9       1.0  0.35800  0.62400  0.50000  1.0000
  Tc  Tc10      1.0  0.62400  0.64200  0.50000  1.0000
  Tc  Tc11      1.0  0.50000  0.00000  0.75000  1.0000
  Tc  Tc12      1.0  0.00000  0.50000  0.75000  1.0000
  U   U1        1.0  0.57500  0.26500  0.00000  1.0000
  U   U2        1.0  0.26500  0.42500  0.00000  1.0000
  U   U3        1.0  0.73500  0.57500  0.00000  1.0000
  U   U4        1.0  0.42500  0.73500  0.00000  1.0000
  U   U5        1.0  0.76500  0.07450  0.50000  1.0000
  U   U6        1.0  0.07450  0.23500  0.50000  1.0000
  U   U7        1.0  0.92500  0.76500  0.50000  1.0000
  U   U8        1.0  0.23500  0.92500  0.50000  1.0000
