data_image0
_chemical_formula_structural       B8O24Pr2Sc6
_chemical_formula_sum              "B8 O24 Pr2 Sc6"
_cell_length_a       6.2528
_cell_length_b       6.2528
_cell_length_c       11.9667
_cell_angle_alpha    99.0508
_cell_angle_beta     99.0508
_cell_angle_gamma    104.07

_space_group_name_H-M_alt    "P 1"
_space_group_IT_number       1

loop_
  _space_group_symop_operation_xyz
  'x, y, z'

loop_
  _atom_site_type_symbol
  _atom_site_label
  _atom_site_symmetry_multiplicity
  _atom_site_fract_x
  _atom_site_fract_y
  _atom_site_fract_z
  _atom_site_occupancy
  B   B1        1.0  0.77900  0.73000  0.00033  1.0000
  B   B2        1.0  0.89800  0.50600  0.22600  1.0000
  B   B3        1.0  0.49400  0.10200  0.27400  1.0000
  B   B4        1.0  0.27000  0.22100  0.50000  1.0000
  B   B5        1.0  0.73000  0.77900  0.50000  1.0000
  B   B6        1.0  0.50600  0.89800  0.72600  1.0000
  B   B7        1.0  0.10200  0.49400  0.77400  1.0000
  B   B8        1.0  0.22100  0.27000  0.00000  1.0000
  O   O1        1.0  0.63700  0.86800  0.00485  1.0000
  O   O2        1.0  0.29300  0.48300  0.06810  1.0000
  O   O3        1.0  0.99200  0.81300  0.06890  1.0000
  O   O4        1.0  0.83300  0.30400  0.14800  1.0000
  O   O5        1.0  0.43300  0.88900  0.20500  1.0000
  O   O6        1.0  0.76100  0.64600  0.24000  1.0000
  O   O7        1.0  0.35400  0.23900  0.26000  1.0000
  O   O8        1.0  0.11100  0.56700  0.29500  1.0000
  O   O9        1.0  0.69600  0.16700  0.35200  1.0000
  O   O10       1.0  0.18700  0.00754  0.43100  1.0000
  O   O11       1.0  0.51700  0.70700  0.43200  1.0000
  O   O12       1.0  0.13200  0.36300  0.49500  1.0000
  O   O13       1.0  0.86800  0.63700  0.50500  1.0000
  O   O14       1.0  0.48300  0.29300  0.56800  1.0000
  O   O15       1.0  0.81300  0.99200  0.56900  1.0000
  O   O16       1.0  0.30400  0.83300  0.64800  1.0000
  O   O17       1.0  0.88900  0.43300  0.70500  1.0000
  O   O18       1.0  0.64600  0.76100  0.74000  1.0000
  O   O19       1.0  0.23900  0.35400  0.76000  1.0000
  O   O20       1.0  0.56700  0.11100  0.79500  1.0000
  O   O21       1.0  0.16700  0.69600  0.85200  1.0000
  O   O22       1.0  0.00754  0.18700  0.93100  1.0000
  O   O23       1.0  0.70700  0.51700  0.93200  1.0000
  O   O24       1.0  0.36300  0.13200  0.99500  1.0000
  Pr  Pr1       1.0  0.96500  0.03460  0.25000  1.0000
  Pr  Pr2       1.0  0.03460  0.96500  0.75000  1.0000
  Sc  Sc1       1.0  0.29800  0.79800  0.02510  1.0000
  Sc  Sc2       1.0  0.42600  0.57400  0.25000  1.0000
  Sc  Sc3       1.0  0.20200  0.70200  0.47500  1.0000
  Sc  Sc4       1.0  0.79800  0.29800  0.52500  1.0000
  Sc  Sc5       1.0  0.57400  0.42600  0.75000  1.0000
  Sc  Sc6       1.0  0.70200  0.20200  0.97500  1.0000
