data_image0
_chemical_formula_structural       Bi10Cu4K6S20
_chemical_formula_sum              "Bi10 Cu4 K6 S20"
_cell_length_a       14.3418
_cell_length_b       17.8491
_cell_length_c       4.04854
_cell_angle_alpha    90
_cell_angle_beta     90
_cell_angle_gamma    90

_space_group_name_H-M_alt    "P 1"
_space_group_IT_number       1

loop_
  _space_group_symop_operation_xyz
  'x, y, z'

loop_
  _atom_site_type_symbol
  _atom_site_label
  _atom_site_symmetry_multiplicity
  _atom_site_fract_x
  _atom_site_fract_y
  _atom_site_fract_z
  _atom_site_occupancy
  Bi  Bi1       1.0  0.00000  0.00000  0.00000  1.0000
  Bi  Bi2       1.0  0.73100  0.10400  0.00000  1.0000
  Bi  Bi3       1.0  0.72000  0.40300  0.00000  1.0000
  Bi  Bi4       1.0  0.28000  0.59700  0.00000  1.0000
  Bi  Bi5       1.0  0.26900  0.89600  0.00000  1.0000
  Bi  Bi6       1.0  0.22000  0.09690  0.50000  1.0000
  Bi  Bi7       1.0  0.23100  0.39600  0.50000  1.0000
  Bi  Bi8       1.0  0.50000  0.50000  0.50000  1.0000
  Bi  Bi9       1.0  0.76900  0.60400  0.50000  1.0000
  Bi  Bi10      1.0  0.78000  0.90300  0.50000  1.0000
  Cu  Cu1       1.0  0.21800  0.24800  0.00000  1.0000
  Cu  Cu2       1.0  0.78200  0.75200  0.00000  1.0000
  Cu  Cu3       1.0  0.71800  0.25200  0.50000  1.0000
  Cu  Cu4       1.0  0.28200  0.74800  0.50000  1.0000
  K   K1        1.0  0.47500  0.25300  0.00000  1.0000
  K   K2        1.0  0.00000  0.50000  0.00000  1.0000
  K   K3        1.0  0.52500  0.74700  0.00000  1.0000
  K   K4        1.0  0.50000  0.00000  0.50000  1.0000
  K   K5        1.0  0.97500  0.24700  0.50000  1.0000
  K   K6        1.0  0.02490  0.75300  0.50000  1.0000
  S   S1        1.0  0.33800  0.03670  0.00000  1.0000
  S   S2        1.0  0.09380  0.14000  0.00000  1.0000
  S   S3        1.0  0.80100  0.26600  0.00000  1.0000
  S   S4        1.0  0.11700  0.35100  0.00000  1.0000
  S   S5        1.0  0.37600  0.44700  0.00000  1.0000
  S   S6        1.0  0.62400  0.55300  0.00000  1.0000
  S   S7        1.0  0.88300  0.64900  0.00000  1.0000
  S   S8        1.0  0.19900  0.73400  0.00000  1.0000
  S   S9        1.0  0.90600  0.86000  0.00000  1.0000
  S   S10       1.0  0.66200  0.96300  0.00000  1.0000
  S   S11       1.0  0.87600  0.05330  0.50000  1.0000
  S   S12       1.0  0.61700  0.14900  0.50000  1.0000
  S   S13       1.0  0.30100  0.23400  0.50000  1.0000
  S   S14       1.0  0.59400  0.36000  0.50000  1.0000
  S   S15       1.0  0.83800  0.46300  0.50000  1.0000
  S   S16       1.0  0.16200  0.53700  0.50000  1.0000
  S   S17       1.0  0.40600  0.64000  0.50000  1.0000
  S   S18       1.0  0.69900  0.76600  0.50000  1.0000
  S   S19       1.0  0.38300  0.85100  0.50000  1.0000
  S   S20       1.0  0.12400  0.94700  0.50000  1.0000
