data_image0
_chemical_formula_structural       Ru12Si20Sm8
_chemical_formula_sum              "Ru12 Si20 Sm8"
_cell_length_a       10.8063
_cell_length_b       10.8063
_cell_length_c       5.71897
_cell_angle_alpha    90
_cell_angle_beta     90
_cell_angle_gamma    90

_space_group_name_H-M_alt    "P 1"
_space_group_IT_number       1

loop_
  _space_group_symop_operation_xyz
  'x, y, z'

loop_
  _atom_site_type_symbol
  _atom_site_label
  _atom_site_symmetry_multiplicity
  _atom_site_fract_x
  _atom_site_fract_y
  _atom_site_fract_z
  _atom_site_occupancy
  Ru  Ru1       1.0  0.14700  0.12400  0.00000  1.0000
  Ru  Ru2       1.0  0.87600  0.14700  0.00000  1.0000
  Ru  Ru3       1.0  0.12400  0.85300  0.00000  1.0000
  Ru  Ru4       1.0  0.85300  0.87600  0.00000  1.0000
  Ru  Ru5       1.0  0.50000  0.00000  0.25000  1.0000
  Ru  Ru6       1.0  0.00000  0.50000  0.25000  1.0000
  Ru  Ru7       1.0  0.37600  0.35300  0.50000  1.0000
  Ru  Ru8       1.0  0.64700  0.37600  0.50000  1.0000
  Ru  Ru9       1.0  0.35300  0.62400  0.50000  1.0000
  Ru  Ru10      1.0  0.62400  0.64700  0.50000  1.0000
  Ru  Ru11      1.0  0.50000  0.00000  0.75000  1.0000
  Ru  Ru12      1.0  0.00000  0.50000  0.75000  1.0000
  Si  Si1       1.0  0.68000  0.02380  0.00000  1.0000
  Si  Si2       1.0  0.02380  0.32000  0.00000  1.0000
  Si  Si3       1.0  0.97600  0.68000  0.00000  1.0000
  Si  Si4       1.0  0.32000  0.97600  0.00000  1.0000
  Si  Si5       1.0  0.00000  0.00000  0.23400  1.0000
  Si  Si6       1.0  0.32800  0.17200  0.25000  1.0000
  Si  Si7       1.0  0.82800  0.32800  0.25000  1.0000
  Si  Si8       1.0  0.17200  0.67200  0.25000  1.0000
  Si  Si9       1.0  0.67200  0.82800  0.25000  1.0000
  Si  Si10      1.0  0.50000  0.50000  0.26600  1.0000
  Si  Si11      1.0  0.52400  0.18000  0.50000  1.0000
  Si  Si12      1.0  0.18000  0.47600  0.50000  1.0000
  Si  Si13      1.0  0.82000  0.52400  0.50000  1.0000
  Si  Si14      1.0  0.47600  0.82000  0.50000  1.0000
  Si  Si15      1.0  0.50000  0.50000  0.73400  1.0000
  Si  Si16      1.0  0.32800  0.17200  0.75000  1.0000
  Si  Si17      1.0  0.82800  0.32800  0.75000  1.0000
  Si  Si18      1.0  0.17200  0.67200  0.75000  1.0000
  Si  Si19      1.0  0.67200  0.82800  0.75000  1.0000
  Si  Si20      1.0  0.00000  0.00000  0.76600  1.0000
  Sm  Sm1       1.0  0.57200  0.26600  0.00000  1.0000
  Sm  Sm2       1.0  0.26600  0.42800  0.00000  1.0000
  Sm  Sm3       1.0  0.73400  0.57200  0.00000  1.0000
  Sm  Sm4       1.0  0.42800  0.73400  0.00000  1.0000
  Sm  Sm5       1.0  0.76600  0.07190  0.50000  1.0000
  Sm  Sm6       1.0  0.07190  0.23400  0.50000  1.0000
  Sm  Sm7       1.0  0.92800  0.76600  0.50000  1.0000
  Sm  Sm8       1.0  0.23400  0.92800  0.50000  1.0000
