data_image0
_chemical_formula_structural       Lu8Ru12Si20
_chemical_formula_sum              "Lu8 Ru12 Si20"
_cell_length_a       10.6846
_cell_length_b       10.6846
_cell_length_c       5.5493
_cell_angle_alpha    90
_cell_angle_beta     90
_cell_angle_gamma    90

_space_group_name_H-M_alt    "P 1"
_space_group_IT_number       1

loop_
  _space_group_symop_operation_xyz
  'x, y, z'

loop_
  _atom_site_type_symbol
  _atom_site_label
  _atom_site_symmetry_multiplicity
  _atom_site_fract_x
  _atom_site_fract_y
  _atom_site_fract_z
  _atom_site_occupancy
  Lu  Lu1       1.0  0.76300  0.07120  0.00000  1.0000
  Lu  Lu2       1.0  0.07120  0.23700  0.00000  1.0000
  Lu  Lu3       1.0  0.92900  0.76300  0.00000  1.0000
  Lu  Lu4       1.0  0.23700  0.92900  0.00000  1.0000
  Lu  Lu5       1.0  0.57100  0.26300  0.50000  1.0000
  Lu  Lu6       1.0  0.26300  0.42900  0.50000  1.0000
  Lu  Lu7       1.0  0.73700  0.57100  0.50000  1.0000
  Lu  Lu8       1.0  0.42900  0.73700  0.50000  1.0000
  Ru  Ru1       1.0  0.37500  0.35600  0.00000  1.0000
  Ru  Ru2       1.0  0.64400  0.37500  0.00000  1.0000
  Ru  Ru3       1.0  0.35600  0.62500  0.00000  1.0000
  Ru  Ru4       1.0  0.62500  0.64400  0.00000  1.0000
  Ru  Ru5       1.0  0.50000  0.00000  0.25000  1.0000
  Ru  Ru6       1.0  0.00000  0.50000  0.25000  1.0000
  Ru  Ru7       1.0  0.14400  0.12500  0.50000  1.0000
  Ru  Ru8       1.0  0.87500  0.14400  0.50000  1.0000
  Ru  Ru9       1.0  0.12500  0.85600  0.50000  1.0000
  Ru  Ru10      1.0  0.85600  0.87500  0.50000  1.0000
  Ru  Ru11      1.0  0.50000  0.00000  0.75000  1.0000
  Ru  Ru12      1.0  0.00000  0.50000  0.75000  1.0000
  Si  Si1       1.0  0.52600  0.18100  0.00000  1.0000
  Si  Si2       1.0  0.18100  0.47400  0.00000  1.0000
  Si  Si3       1.0  0.81900  0.52600  0.00000  1.0000
  Si  Si4       1.0  0.47400  0.81900  0.00000  1.0000
  Si  Si5       1.0  0.00000  0.00000  0.24200  1.0000
  Si  Si6       1.0  0.32600  0.17400  0.25000  1.0000
  Si  Si7       1.0  0.82600  0.32600  0.25000  1.0000
  Si  Si8       1.0  0.17400  0.67400  0.25000  1.0000
  Si  Si9       1.0  0.67400  0.82600  0.25000  1.0000
  Si  Si10      1.0  0.50000  0.50000  0.25800  1.0000
  Si  Si11      1.0  0.68100  0.02640  0.50000  1.0000
  Si  Si12      1.0  0.02640  0.31900  0.50000  1.0000
  Si  Si13      1.0  0.97400  0.68100  0.50000  1.0000
  Si  Si14      1.0  0.31900  0.97400  0.50000  1.0000
  Si  Si15      1.0  0.50000  0.50000  0.74200  1.0000
  Si  Si16      1.0  0.32600  0.17400  0.75000  1.0000
  Si  Si17      1.0  0.82600  0.32600  0.75000  1.0000
  Si  Si18      1.0  0.17400  0.67400  0.75000  1.0000
  Si  Si19      1.0  0.67400  0.82600  0.75000  1.0000
  Si  Si20      1.0  0.00000  0.00000  0.75800  1.0000
