data_image0
_chemical_formula_structural       Cl8N16S16
_chemical_formula_sum              "Cl8 N16 S16"
_cell_length_a       9.33209
_cell_length_b       6.53956
_cell_length_c       13.257
_cell_angle_alpha    90
_cell_angle_beta     111.057
_cell_angle_gamma    90

_space_group_name_H-M_alt    "P 1"
_space_group_IT_number       1

loop_
  _space_group_symop_operation_xyz
  'x, y, z'

loop_
  _atom_site_type_symbol
  _atom_site_label
  _atom_site_symmetry_multiplicity
  _atom_site_fract_x
  _atom_site_fract_y
  _atom_site_fract_z
  _atom_site_occupancy
  Cl  Cl1       1.0  0.94900  0.34500  0.07880  1.0000
  Cl  Cl2       1.0  0.58200  0.25300  0.08500  1.0000
  Cl  Cl3       1.0  0.41800  0.75300  0.41500  1.0000
  Cl  Cl4       1.0  0.05120  0.84500  0.42100  1.0000
  Cl  Cl5       1.0  0.94900  0.15500  0.57900  1.0000
  Cl  Cl6       1.0  0.58200  0.24700  0.58500  1.0000
  Cl  Cl7       1.0  0.41800  0.74700  0.91500  1.0000
  Cl  Cl8       1.0  0.05120  0.65500  0.92100  1.0000
  N   N1        1.0  0.25800  0.09250  0.04760  1.0000
  N   N2        1.0  0.10600  0.93800  0.16600  1.0000
  N   N3        1.0  0.34800  0.39900  0.18000  1.0000
  N   N4        1.0  0.80800  0.74400  0.20400  1.0000
  N   N5        1.0  0.19200  0.24400  0.29600  1.0000
  N   N6        1.0  0.65200  0.89900  0.32000  1.0000
  N   N7        1.0  0.89400  0.43800  0.33400  1.0000
  N   N8        1.0  0.74200  0.59200  0.45200  1.0000
  N   N9        1.0  0.25800  0.40800  0.54800  1.0000
  N   N10       1.0  0.10600  0.56200  0.66600  1.0000
  N   N11       1.0  0.34800  0.10100  0.68000  1.0000
  N   N12       1.0  0.80800  0.75600  0.70400  1.0000
  N   N13       1.0  0.19200  0.25600  0.79600  1.0000
  N   N14       1.0  0.65200  0.60100  0.82000  1.0000
  N   N15       1.0  0.89400  0.06180  0.83400  1.0000
  N   N16       1.0  0.74200  0.90800  0.95200  1.0000
  S   S1        1.0  0.33300  0.31300  0.06400  1.0000
  S   S2        1.0  0.26900  0.94700  0.14900  1.0000
  S   S3        1.0  0.04340  0.13000  0.21400  1.0000
  S   S4        1.0  0.64700  0.74500  0.22200  1.0000
  S   S5        1.0  0.35300  0.24500  0.27800  1.0000
  S   S6        1.0  0.95700  0.63000  0.28600  1.0000
  S   S7        1.0  0.73100  0.44700  0.35100  1.0000
  S   S8        1.0  0.66700  0.81300  0.43600  1.0000
  S   S9        1.0  0.33300  0.18700  0.56400  1.0000
  S   S10       1.0  0.26900  0.55300  0.64900  1.0000
  S   S11       1.0  0.04340  0.37000  0.71400  1.0000
  S   S12       1.0  0.64700  0.75500  0.72200  1.0000
  S   S13       1.0  0.35300  0.25500  0.77800  1.0000
  S   S14       1.0  0.95700  0.87000  0.78600  1.0000
  S   S15       1.0  0.73100  0.05330  0.85100  1.0000
  S   S16       1.0  0.66700  0.68700  0.93600  1.0000
