data_image0
_chemical_formula_structural       Pd12Ta8Te20
_chemical_formula_sum              "Pd12 Ta8 Te20"
_cell_length_a       14.2662
_cell_length_b       3.72251
_cell_length_c       18.7919
_cell_angle_alpha    90
_cell_angle_beta     90
_cell_angle_gamma    90

_space_group_name_H-M_alt    "P 1"
_space_group_IT_number       1

loop_
  _space_group_symop_operation_xyz
  'x, y, z'

loop_
  _atom_site_type_symbol
  _atom_site_label
  _atom_site_symmetry_multiplicity
  _atom_site_fract_x
  _atom_site_fract_y
  _atom_site_fract_z
  _atom_site_occupancy
  Pd  Pd1       1.0  0.73100  0.75000  0.04190  1.0000
  Pd  Pd2       1.0  0.32000  0.25000  0.18900  1.0000
  Pd  Pd3       1.0  0.19200  0.75000  0.22700  1.0000
  Pd  Pd4       1.0  0.69200  0.75000  0.27300  1.0000
  Pd  Pd5       1.0  0.82000  0.25000  0.31100  1.0000
  Pd  Pd6       1.0  0.23100  0.75000  0.45800  1.0000
  Pd  Pd7       1.0  0.76900  0.25000  0.54200  1.0000
  Pd  Pd8       1.0  0.18000  0.75000  0.68900  1.0000
  Pd  Pd9       1.0  0.30800  0.25000  0.72700  1.0000
  Pd  Pd10      1.0  0.80800  0.25000  0.77300  1.0000
  Pd  Pd11      1.0  0.68000  0.75000  0.81100  1.0000
  Pd  Pd12      1.0  0.26900  0.25000  0.95800  1.0000
  Ta  Ta1       1.0  0.24900  0.75000  0.08350  1.0000
  Ta  Ta2       1.0  0.75700  0.25000  0.16800  1.0000
  Ta  Ta3       1.0  0.25700  0.25000  0.33200  1.0000
  Ta  Ta4       1.0  0.74900  0.75000  0.41700  1.0000
  Ta  Ta5       1.0  0.25100  0.25000  0.58300  1.0000
  Ta  Ta6       1.0  0.74300  0.75000  0.66800  1.0000
  Ta  Ta7       1.0  0.24300  0.75000  0.83200  1.0000
  Ta  Ta8       1.0  0.75100  0.25000  0.91700  1.0000
  Te  Te1       1.0  0.86500  0.25000  0.04070  1.0000
  Te  Te2       1.0  0.39800  0.25000  0.05920  1.0000
  Te  Te3       1.0  0.11300  0.25000  0.13800  1.0000
  Te  Te4       1.0  0.60700  0.75000  0.14600  1.0000
  Te  Te5       1.0  0.89400  0.75000  0.21900  1.0000
  Te  Te6       1.0  0.39400  0.75000  0.28100  1.0000
  Te  Te7       1.0  0.10700  0.75000  0.35400  1.0000
  Te  Te8       1.0  0.61300  0.25000  0.36200  1.0000
  Te  Te9       1.0  0.89800  0.25000  0.44100  1.0000
  Te  Te10      1.0  0.36500  0.25000  0.45900  1.0000
  Te  Te11      1.0  0.63500  0.75000  0.54100  1.0000
  Te  Te12      1.0  0.10200  0.75000  0.55900  1.0000
  Te  Te13      1.0  0.38700  0.75000  0.63800  1.0000
  Te  Te14      1.0  0.89300  0.25000  0.64600  1.0000
  Te  Te15      1.0  0.60600  0.25000  0.71900  1.0000
  Te  Te16      1.0  0.10600  0.25000  0.78100  1.0000
  Te  Te17      1.0  0.39300  0.25000  0.85400  1.0000
  Te  Te18      1.0  0.88700  0.75000  0.86200  1.0000
  Te  Te19      1.0  0.60200  0.75000  0.94100  1.0000
  Te  Te20      1.0  0.13500  0.75000  0.95900  1.0000
