data_image0
_chemical_formula_structural       F28K4Pd4Zr4
_chemical_formula_sum              "F28 K4 Pd4 Zr4"
_cell_length_a       11.2799
_cell_length_b       7.69731
_cell_length_c       6.14708
_cell_angle_alpha    90
_cell_angle_beta     90
_cell_angle_gamma    90

_space_group_name_H-M_alt    "P 1"
_space_group_IT_number       1

loop_
  _space_group_symop_operation_xyz
  'x, y, z'

loop_
  _atom_site_type_symbol
  _atom_site_label
  _atom_site_symmetry_multiplicity
  _atom_site_fract_x
  _atom_site_fract_y
  _atom_site_fract_z
  _atom_site_occupancy
  F   F1        1.0  0.94900  0.15400  0.06060  1.0000
  F   F2        1.0  0.55100  0.84600  0.06060  1.0000
  F   F3        1.0  0.25200  0.19300  0.06330  1.0000
  F   F4        1.0  0.24800  0.80700  0.06330  1.0000
  F   F5        1.0  0.39400  0.49000  0.11100  1.0000
  F   F6        1.0  0.10600  0.51000  0.11100  1.0000
  F   F7        1.0  0.58400  0.25000  0.25000  1.0000
  F   F8        1.0  0.91600  0.75000  0.25000  1.0000
  F   F9        1.0  0.39400  0.00979  0.38900  1.0000
  F   F10       1.0  0.10600  0.99000  0.38900  1.0000
  F   F11       1.0  0.25200  0.30700  0.43700  1.0000
  F   F12       1.0  0.24800  0.69300  0.43700  1.0000
  F   F13       1.0  0.94900  0.34600  0.43900  1.0000
  F   F14       1.0  0.55100  0.65400  0.43900  1.0000
  F   F15       1.0  0.44900  0.34600  0.56100  1.0000
  F   F16       1.0  0.05070  0.65400  0.56100  1.0000
  F   F17       1.0  0.75200  0.30700  0.56300  1.0000
  F   F18       1.0  0.74800  0.69300  0.56300  1.0000
  F   F19       1.0  0.89400  0.00979  0.61100  1.0000
  F   F20       1.0  0.60600  0.99000  0.61100  1.0000
  F   F21       1.0  0.08420  0.25000  0.75000  1.0000
  F   F22       1.0  0.41600  0.75000  0.75000  1.0000
  F   F23       1.0  0.89400  0.49000  0.88900  1.0000
  F   F24       1.0  0.60600  0.51000  0.88900  1.0000
  F   F25       1.0  0.75200  0.19300  0.93700  1.0000
  F   F26       1.0  0.74800  0.80700  0.93700  1.0000
  F   F27       1.0  0.44900  0.15400  0.93900  1.0000
  F   F28       1.0  0.05070  0.84600  0.93900  1.0000
  K   K1        1.0  0.75000  0.50000  0.22500  1.0000
  K   K2        1.0  0.75000  0.00000  0.27500  1.0000
  K   K3        1.0  0.25000  0.00000  0.72500  1.0000
  K   K4        1.0  0.25000  0.50000  0.77500  1.0000
  Pd  Pd1       1.0  0.09510  0.25000  0.25000  1.0000
  Pd  Pd2       1.0  0.40500  0.75000  0.25000  1.0000
  Pd  Pd3       1.0  0.59500  0.25000  0.75000  1.0000
  Pd  Pd4       1.0  0.90500  0.75000  0.75000  1.0000
  Zr  Zr1       1.0  0.40700  0.25000  0.25000  1.0000
  Zr  Zr2       1.0  0.09340  0.75000  0.25000  1.0000
  Zr  Zr3       1.0  0.90700  0.25000  0.75000  1.0000
  Zr  Zr4       1.0  0.59300  0.75000  0.75000  1.0000
