data_image0
_chemical_formula_structural       Fe4H2K2O24Se8
_chemical_formula_sum              "Fe4 H2 K2 O24 Se8"
_cell_length_a       9.88479
_cell_length_b       5.26833
_cell_length_c       10.3489
_cell_angle_alpha    90
_cell_angle_beta     97.5069
_cell_angle_gamma    90

_space_group_name_H-M_alt    "P 1"
_space_group_IT_number       1

loop_
  _space_group_symop_operation_xyz
  'x, y, z'

loop_
  _atom_site_type_symbol
  _atom_site_label
  _atom_site_symmetry_multiplicity
  _atom_site_fract_x
  _atom_site_fract_y
  _atom_site_fract_z
  _atom_site_occupancy
  Fe  Fe1       1.0  0.25800  0.51400  0.24300  1.0000
  Fe  Fe2       1.0  0.75100  0.01050  0.26000  1.0000
  Fe  Fe3       1.0  0.24900  0.01050  0.74000  1.0000
  Fe  Fe4       1.0  0.74200  0.51400  0.75700  1.0000
  H   H1        1.0  0.01750  0.17400  0.25800  1.0000
  H   H2        1.0  0.98300  0.17400  0.74200  1.0000
  K   K1        1.0  0.50000  0.56400  0.00000  1.0000
  K   K2        1.0  0.00000  0.48000  0.50000  1.0000
  O   O1        1.0  0.69600  0.91800  0.08130  1.0000
  O   O2        1.0  0.30500  0.30200  0.09050  1.0000
  O   O3        1.0  0.07320  0.57800  0.13300  1.0000
  O   O4        1.0  0.32800  0.81900  0.16400  1.0000
  O   O5        1.0  0.92200  0.19900  0.20700  1.0000
  O   O6        1.0  0.64800  0.34500  0.22200  1.0000
  O   O7        1.0  0.88500  0.69800  0.28500  1.0000
  O   O8        1.0  0.59800  0.81600  0.31800  1.0000
  O   O9        1.0  0.17000  0.20400  0.31900  1.0000
  O   O10       1.0  0.43100  0.43900  0.35100  1.0000
  O   O11       1.0  0.19900  0.71900  0.39400  1.0000
  O   O12       1.0  0.81400  0.09640  0.43600  1.0000
  O   O13       1.0  0.18600  0.09640  0.56400  1.0000
  O   O14       1.0  0.80100  0.71900  0.60600  1.0000
  O   O15       1.0  0.56900  0.43900  0.64900  1.0000
  O   O16       1.0  0.83000  0.20400  0.68100  1.0000
  O   O17       1.0  0.40200  0.81600  0.68200  1.0000
  O   O18       1.0  0.11500  0.69800  0.71500  1.0000
  O   O19       1.0  0.35200  0.34500  0.77800  1.0000
  O   O20       1.0  0.07840  0.19900  0.79300  1.0000
  O   O21       1.0  0.67200  0.81900  0.83600  1.0000
  O   O22       1.0  0.92700  0.57800  0.86700  1.0000
  O   O23       1.0  0.69500  0.30200  0.91000  1.0000
  O   O24       1.0  0.30400  0.91800  0.91900  1.0000
  Se  Se1       1.0  0.22800  0.01430  0.05610  1.0000
  Se  Se2       1.0  0.90500  0.53500  0.14800  1.0000
  Se  Se3       1.0  0.60400  0.49600  0.35900  1.0000
  Se  Se4       1.0  0.27100  0.00828  0.43100  1.0000
  Se  Se5       1.0  0.72900  0.00828  0.56900  1.0000
  Se  Se6       1.0  0.39600  0.49600  0.64100  1.0000
  Se  Se7       1.0  0.09510  0.53500  0.85200  1.0000
  Se  Se8       1.0  0.77200  0.01430  0.94400  1.0000
