data_image0
_chemical_formula_structural       Al4Ba8H28
_chemical_formula_sum              "Al4 Ba8 H28"
_cell_length_a       8.43201
_cell_length_b       8.66686
_cell_length_c       8.66686
_cell_angle_alpha    108.693
_cell_angle_beta     109.945
_cell_angle_gamma    70.0554

_space_group_name_H-M_alt    "P 1"
_space_group_IT_number       1

loop_
  _space_group_symop_operation_xyz
  'x, y, z'

loop_
  _atom_site_type_symbol
  _atom_site_label
  _atom_site_symmetry_multiplicity
  _atom_site_fract_x
  _atom_site_fract_y
  _atom_site_fract_z
  _atom_site_occupancy
  Al  Al1       1.0  0.70000  0.17900  0.03150  1.0000
  Al  Al2       1.0  0.20000  0.46900  0.32100  1.0000
  Al  Al3       1.0  0.80000  0.53200  0.67900  1.0000
  Al  Al4       1.0  0.30000  0.82100  0.96900  1.0000
  Ba  Ba1       1.0  0.98100  0.75800  0.07220  1.0000
  Ba  Ba2       1.0  0.51900  0.57200  0.25800  1.0000
  Ba  Ba3       1.0  0.52400  0.06830  0.28300  1.0000
  Ba  Ba4       1.0  0.02350  0.21700  0.43200  1.0000
  Ba  Ba5       1.0  0.97600  0.78300  0.56800  1.0000
  Ba  Ba6       1.0  0.47600  0.93200  0.71700  1.0000
  Ba  Ba7       1.0  0.48100  0.42800  0.74200  1.0000
  Ba  Ba8       1.0  0.01880  0.24200  0.92800  1.0000
  H   H1        1.0  0.67200  0.98600  0.01890  1.0000
  H   H2        1.0  0.71800  0.37600  0.03830  1.0000
  H   H3        1.0  0.52600  0.75200  0.05180  1.0000
  H   H4        1.0  0.92500  0.10300  0.10400  1.0000
  H   H5        1.0  0.21800  0.46200  0.12400  1.0000
  H   H6        1.0  0.27900  0.88300  0.18100  1.0000
  H   H7        1.0  0.68600  0.25500  0.23900  1.0000
  H   H8        1.0  0.18600  0.26100  0.24500  1.0000
  H   H9        1.0  0.97400  0.55200  0.25200  1.0000
  H   H10       1.0  0.87500  0.95600  0.34000  1.0000
  H   H11       1.0  0.22100  0.68100  0.38300  1.0000
  H   H12       1.0  0.42500  0.39600  0.39700  1.0000
  H   H13       1.0  0.62500  0.84000  0.45600  1.0000
  H   H14       1.0  0.82800  0.51900  0.48600  1.0000
  H   H15       1.0  0.17200  0.48100  0.51400  1.0000
  H   H16       1.0  0.37500  0.16000  0.54400  1.0000
  H   H17       1.0  0.57500  0.60400  0.60300  1.0000
  H   H18       1.0  0.77900  0.31900  0.61700  1.0000
  H   H19       1.0  0.12500  0.04420  0.66000  1.0000
  H   H20       1.0  0.02590  0.44800  0.74800  1.0000
  H   H21       1.0  0.81400  0.73900  0.75500  1.0000
  H   H22       1.0  0.31400  0.74500  0.76100  1.0000
  H   H23       1.0  0.72100  0.11700  0.81900  1.0000
  H   H24       1.0  0.78200  0.53800  0.87600  1.0000
  H   H25       1.0  0.07540  0.89700  0.89600  1.0000
  H   H26       1.0  0.47400  0.24800  0.94800  1.0000
  H   H27       1.0  0.28200  0.62400  0.96200  1.0000
  H   H28       1.0  0.32800  0.01420  0.98100  1.0000
