data_image0
_chemical_formula_structural       F20Lu12O8
_chemical_formula_sum              "F20 Lu12 O8"
_cell_length_a       5.43482
_cell_length_b       16.5939
_cell_length_c       5.16453
_cell_angle_alpha    90
_cell_angle_beta     90
_cell_angle_gamma    90

_space_group_name_H-M_alt    "P 1"
_space_group_IT_number       1

loop_
  _space_group_symop_operation_xyz
  'x, y, z'

loop_
  _atom_site_type_symbol
  _atom_site_label
  _atom_site_symmetry_multiplicity
  _atom_site_fract_x
  _atom_site_fract_y
  _atom_site_fract_z
  _atom_site_occupancy
  F   F1        1.0  0.61300  0.75000  0.13900  1.0000
  F   F2        1.0  0.33300  0.62500  0.17200  1.0000
  F   F3        1.0  0.33300  0.87500  0.17200  1.0000
  F   F4        1.0  0.61400  0.01310  0.22000  1.0000
  F   F5        1.0  0.61400  0.48700  0.22000  1.0000
  F   F6        1.0  0.11400  0.01310  0.28000  1.0000
  F   F7        1.0  0.11400  0.48700  0.28000  1.0000
  F   F8        1.0  0.83300  0.62500  0.32800  1.0000
  F   F9        1.0  0.83300  0.87500  0.32800  1.0000
  F   F10       1.0  0.11300  0.75000  0.36100  1.0000
  F   F11       1.0  0.88700  0.25000  0.63900  1.0000
  F   F12       1.0  0.16700  0.12500  0.67200  1.0000
  F   F13       1.0  0.16700  0.37500  0.67200  1.0000
  F   F14       1.0  0.88600  0.51300  0.72000  1.0000
  F   F15       1.0  0.88600  0.98700  0.72000  1.0000
  F   F16       1.0  0.38600  0.51300  0.78000  1.0000
  F   F17       1.0  0.38600  0.98700  0.78000  1.0000
  F   F18       1.0  0.66700  0.12500  0.82800  1.0000
  F   F19       1.0  0.66700  0.37500  0.82800  1.0000
  F   F20       1.0  0.38700  0.25000  0.86100  1.0000
  Lu  Lu1       1.0  0.32600  0.09690  0.03820  1.0000
  Lu  Lu2       1.0  0.32600  0.40300  0.03820  1.0000
  Lu  Lu3       1.0  0.76200  0.25000  0.04310  1.0000
  Lu  Lu4       1.0  0.26200  0.25000  0.45700  1.0000
  Lu  Lu5       1.0  0.82600  0.09690  0.46200  1.0000
  Lu  Lu6       1.0  0.82600  0.40300  0.46200  1.0000
  Lu  Lu7       1.0  0.17400  0.59700  0.53800  1.0000
  Lu  Lu8       1.0  0.17400  0.90300  0.53800  1.0000
  Lu  Lu9       1.0  0.73800  0.75000  0.54300  1.0000
  Lu  Lu10      1.0  0.23800  0.75000  0.95700  1.0000
  Lu  Lu11      1.0  0.67400  0.59700  0.96200  1.0000
  Lu  Lu12      1.0  0.67400  0.90300  0.96200  1.0000
  O   O1        1.0  0.03770  0.16800  0.20000  1.0000
  O   O2        1.0  0.03770  0.33200  0.20000  1.0000
  O   O3        1.0  0.53800  0.16800  0.30000  1.0000
  O   O4        1.0  0.53800  0.33200  0.30000  1.0000
  O   O5        1.0  0.46200  0.66800  0.70000  1.0000
  O   O6        1.0  0.46200  0.83200  0.70000  1.0000
  O   O7        1.0  0.96200  0.66800  0.80000  1.0000
  O   O8        1.0  0.96200  0.83200  0.80000  1.0000
