data_image0
_chemical_formula_structural       Bi10Cl24Ga6
_chemical_formula_sum              "Bi10 Cl24 Ga6"
_cell_length_a       11.9344
_cell_length_b       11.9344
_cell_length_c       12.2454
_cell_angle_alpha    119.163
_cell_angle_beta     90
_cell_angle_gamma    120

_space_group_name_H-M_alt    "P 1"
_space_group_IT_number       1

loop_
  _space_group_symop_operation_xyz
  'x, y, z'

loop_
  _atom_site_type_symbol
  _atom_site_label
  _atom_site_symmetry_multiplicity
  _atom_site_fract_x
  _atom_site_fract_y
  _atom_site_fract_z
  _atom_site_occupancy
  Bi  Bi1       1.0  0.67100  0.34200  0.01350  1.0000
  Bi  Bi2       1.0  0.90900  0.50000  0.25000  1.0000
  Bi  Bi3       1.0  0.59100  0.34100  0.25000  1.0000
  Bi  Bi4       1.0  0.75000  0.65900  0.25000  1.0000
  Bi  Bi5       1.0  0.82900  0.65800  0.48700  1.0000
  Bi  Bi6       1.0  0.17100  0.34200  0.51300  1.0000
  Bi  Bi7       1.0  0.25000  0.34100  0.75000  1.0000
  Bi  Bi8       1.0  0.40900  0.65900  0.75000  1.0000
  Bi  Bi9       1.0  0.09150  0.50000  0.75000  1.0000
  Bi  Bi10      1.0  0.32900  0.65800  0.98700  1.0000
  Cl  Cl1       1.0  0.69800  0.80200  0.07280  1.0000
  Cl  Cl2       1.0  0.10400  0.37500  0.07280  1.0000
  Cl  Cl3       1.0  0.27100  0.96900  0.07280  1.0000
  Cl  Cl4       1.0  0.57200  0.03070  0.22400  1.0000
  Cl  Cl5       1.0  0.45900  0.65200  0.22400  1.0000
  Cl  Cl6       1.0  0.19300  0.76500  0.22400  1.0000
  Cl  Cl7       1.0  0.92800  0.23500  0.27600  1.0000
  Cl  Cl8       1.0  0.30700  0.34800  0.27600  1.0000
  Cl  Cl9       1.0  0.04120  0.96900  0.27600  1.0000
  Cl  Cl10      1.0  0.80200  0.03070  0.42700  1.0000
  Cl  Cl11      1.0  0.39600  0.19800  0.42700  1.0000
  Cl  Cl12      1.0  0.22900  0.62500  0.42700  1.0000
  Cl  Cl13      1.0  0.77100  0.37500  0.57300  1.0000
  Cl  Cl14      1.0  0.60400  0.80200  0.57300  1.0000
  Cl  Cl15      1.0  0.19800  0.96900  0.57300  1.0000
  Cl  Cl16      1.0  0.95900  0.03070  0.72400  1.0000
  Cl  Cl17      1.0  0.69300  0.65200  0.72400  1.0000
  Cl  Cl18      1.0  0.07190  0.76500  0.72400  1.0000
  Cl  Cl19      1.0  0.80700  0.23500  0.77600  1.0000
  Cl  Cl20      1.0  0.54100  0.34800  0.77600  1.0000
  Cl  Cl21      1.0  0.42800  0.96900  0.77600  1.0000
  Cl  Cl22      1.0  0.72900  0.03070  0.92700  1.0000
  Cl  Cl23      1.0  0.89600  0.62500  0.92700  1.0000
  Cl  Cl24      1.0  0.30200  0.19800  0.92700  1.0000
  Ga  Ga1       1.0  0.75000  0.02160  0.25000  1.0000
  Ga  Ga2       1.0  0.27200  0.50000  0.25000  1.0000
  Ga  Ga3       1.0  0.22800  0.97800  0.25000  1.0000
  Ga  Ga4       1.0  0.77200  0.02160  0.75000  1.0000
  Ga  Ga5       1.0  0.72800  0.50000  0.75000  1.0000
  Ga  Ga6       1.0  0.25000  0.97800  0.75000  1.0000
