data_image0
_chemical_formula_structural       Bi8Cd4Ge4O24
_chemical_formula_sum              "Bi8 Cd4 Ge4 O24"
_cell_length_a       10.5387
_cell_length_b       10.0242
_cell_length_c       5.62289
_cell_angle_alpha    90
_cell_angle_beta     90
_cell_angle_gamma    90

_space_group_name_H-M_alt    "P 1"
_space_group_IT_number       1

loop_
  _space_group_symop_operation_xyz
  'x, y, z'

loop_
  _atom_site_type_symbol
  _atom_site_label
  _atom_site_symmetry_multiplicity
  _atom_site_fract_x
  _atom_site_fract_y
  _atom_site_fract_z
  _atom_site_occupancy
  Bi  Bi1       1.0  0.74100  0.11400  0.21500  1.0000
  Bi  Bi2       1.0  0.75900  0.61400  0.21500  1.0000
  Bi  Bi3       1.0  0.25900  0.11400  0.28500  1.0000
  Bi  Bi4       1.0  0.24100  0.61400  0.28500  1.0000
  Bi  Bi5       1.0  0.75900  0.38600  0.71500  1.0000
  Bi  Bi6       1.0  0.74100  0.88600  0.71500  1.0000
  Bi  Bi7       1.0  0.24100  0.38600  0.78500  1.0000
  Bi  Bi8       1.0  0.25900  0.88600  0.78500  1.0000
  Cd  Cd1       1.0  0.50000  0.38900  0.25000  1.0000
  Cd  Cd2       1.0  0.00000  0.88900  0.25000  1.0000
  Cd  Cd3       1.0  0.00000  0.11100  0.75000  1.0000
  Cd  Cd4       1.0  0.50000  0.61100  0.75000  1.0000
  Ge  Ge1       1.0  0.00000  0.34900  0.25000  1.0000
  Ge  Ge2       1.0  0.50000  0.84900  0.25000  1.0000
  Ge  Ge3       1.0  0.50000  0.15100  0.75000  1.0000
  Ge  Ge4       1.0  0.00000  0.65100  0.75000  1.0000
  O   O1        1.0  0.64800  0.46900  0.01210  1.0000
  O   O2        1.0  0.85200  0.96900  0.01210  1.0000
  O   O3        1.0  0.92100  0.25100  0.03360  1.0000
  O   O4        1.0  0.57900  0.75100  0.03360  1.0000
  O   O5        1.0  0.12100  0.44800  0.12100  1.0000
  O   O6        1.0  0.37900  0.94800  0.12100  1.0000
  O   O7        1.0  0.87900  0.44800  0.37900  1.0000
  O   O8        1.0  0.62100  0.94800  0.37900  1.0000
  O   O9        1.0  0.07860  0.25100  0.46600  1.0000
  O   O10       1.0  0.42100  0.75100  0.46600  1.0000
  O   O11       1.0  0.35200  0.46900  0.48800  1.0000
  O   O12       1.0  0.14800  0.96900  0.48800  1.0000
  O   O13       1.0  0.85200  0.03060  0.51200  1.0000
  O   O14       1.0  0.64800  0.53100  0.51200  1.0000
  O   O15       1.0  0.57900  0.24900  0.53400  1.0000
  O   O16       1.0  0.92100  0.74900  0.53400  1.0000
  O   O17       1.0  0.37900  0.05180  0.62100  1.0000
  O   O18       1.0  0.12100  0.55200  0.62100  1.0000
  O   O19       1.0  0.62100  0.05180  0.87900  1.0000
  O   O20       1.0  0.87900  0.55200  0.87900  1.0000
  O   O21       1.0  0.42100  0.24900  0.96600  1.0000
  O   O22       1.0  0.07860  0.74900  0.96600  1.0000
  O   O23       1.0  0.14800  0.03060  0.98800  1.0000
  O   O24       1.0  0.35200  0.53100  0.98800  1.0000
