data_image0
_chemical_formula_structural       Ca4Fe4O24Ti8
_chemical_formula_sum              "Ca4 Fe4 O24 Ti8"
_cell_length_a       7.49803
_cell_length_b       7.49803
_cell_length_c       7.56745
_cell_angle_alpha    90
_cell_angle_beta     90
_cell_angle_gamma    90

_space_group_name_H-M_alt    "P 1"
_space_group_IT_number       1

loop_
  _space_group_symop_operation_xyz
  'x, y, z'

loop_
  _atom_site_type_symbol
  _atom_site_label
  _atom_site_symmetry_multiplicity
  _atom_site_fract_x
  _atom_site_fract_y
  _atom_site_fract_z
  _atom_site_occupancy
  Ca  Ca1       1.0  0.25000  0.25000  0.22100  1.0000
  Ca  Ca2       1.0  0.75000  0.75000  0.27900  1.0000
  Ca  Ca3       1.0  0.25000  0.25000  0.72100  1.0000
  Ca  Ca4       1.0  0.75000  0.75000  0.77900  1.0000
  Fe  Fe1       1.0  0.75000  0.25000  0.25000  1.0000
  Fe  Fe2       1.0  0.25000  0.75000  0.25000  1.0000
  Fe  Fe3       1.0  0.75000  0.25000  0.75000  1.0000
  Fe  Fe4       1.0  0.25000  0.75000  0.75000  1.0000
  O   O1        1.0  0.75000  0.55800  0.03780  1.0000
  O   O2        1.0  0.75000  0.94200  0.03780  1.0000
  O   O3        1.0  0.54300  0.25000  0.07360  1.0000
  O   O4        1.0  0.95700  0.25000  0.07360  1.0000
  O   O5        1.0  0.05790  0.55800  0.25000  1.0000
  O   O6        1.0  0.44200  0.55800  0.25000  1.0000
  O   O7        1.0  0.05790  0.94200  0.25000  1.0000
  O   O8        1.0  0.44200  0.94200  0.25000  1.0000
  O   O9        1.0  0.75000  0.04260  0.42600  1.0000
  O   O10       1.0  0.75000  0.45700  0.42600  1.0000
  O   O11       1.0  0.05760  0.25000  0.46200  1.0000
  O   O12       1.0  0.44200  0.25000  0.46200  1.0000
  O   O13       1.0  0.55800  0.75000  0.53800  1.0000
  O   O14       1.0  0.94200  0.75000  0.53800  1.0000
  O   O15       1.0  0.25000  0.54300  0.57400  1.0000
  O   O16       1.0  0.25000  0.95700  0.57400  1.0000
  O   O17       1.0  0.55800  0.05790  0.75000  1.0000
  O   O18       1.0  0.94200  0.05790  0.75000  1.0000
  O   O19       1.0  0.55800  0.44200  0.75000  1.0000
  O   O20       1.0  0.94200  0.44200  0.75000  1.0000
  O   O21       1.0  0.04260  0.75000  0.92600  1.0000
  O   O22       1.0  0.45700  0.75000  0.92600  1.0000
  O   O23       1.0  0.25000  0.05760  0.96200  1.0000
  O   O24       1.0  0.25000  0.44200  0.96200  1.0000
  Ti  Ti1       1.0  0.00000  0.00000  0.00000  1.0000
  Ti  Ti2       1.0  0.50000  0.00000  0.00000  1.0000
  Ti  Ti3       1.0  0.00000  0.50000  0.00000  1.0000
  Ti  Ti4       1.0  0.50000  0.50000  0.00000  1.0000
  Ti  Ti5       1.0  0.00000  0.00000  0.50000  1.0000
  Ti  Ti6       1.0  0.50000  0.00000  0.50000  1.0000
  Ti  Ti7       1.0  0.00000  0.50000  0.50000  1.0000
  Ti  Ti8       1.0  0.50000  0.50000  0.50000  1.0000
