data_image0
_chemical_formula_structural       O28P8W4
_chemical_formula_sum              "O28 P8 W4"
_cell_length_a       8.24625
_cell_length_b       8.24625
_cell_length_c       8.24625
_cell_angle_alpha    90
_cell_angle_beta     90
_cell_angle_gamma    90

_space_group_name_H-M_alt    "P 1"
_space_group_IT_number       1

loop_
  _space_group_symop_operation_xyz
  'x, y, z'

loop_
  _atom_site_type_symbol
  _atom_site_label
  _atom_site_symmetry_multiplicity
  _atom_site_fract_x
  _atom_site_fract_y
  _atom_site_fract_z
  _atom_site_occupancy
  O   O1        1.0  0.50000  0.00000  0.00000  1.0000
  O   O2        1.0  0.00000  0.50000  0.00000  1.0000
  O   O3        1.0  0.71600  0.40800  0.05510  1.0000
  O   O4        1.0  0.78400  0.90800  0.05510  1.0000
  O   O5        1.0  0.94500  0.21600  0.09200  1.0000
  O   O6        1.0  0.55500  0.71600  0.09200  1.0000
  O   O7        1.0  0.40800  0.44500  0.21600  1.0000
  O   O8        1.0  0.09200  0.94500  0.21600  1.0000
  O   O9        1.0  0.90800  0.44500  0.28400  1.0000
  O   O10       1.0  0.59200  0.94500  0.28400  1.0000
  O   O11       1.0  0.44500  0.21600  0.40800  1.0000
  O   O12       1.0  0.05510  0.71600  0.40800  1.0000
  O   O13       1.0  0.21600  0.40800  0.44500  1.0000
  O   O14       1.0  0.28400  0.90800  0.44500  1.0000
  O   O15       1.0  0.00000  0.00000  0.50000  1.0000
  O   O16       1.0  0.50000  0.50000  0.50000  1.0000
  O   O17       1.0  0.71600  0.09200  0.55500  1.0000
  O   O18       1.0  0.78400  0.59200  0.55500  1.0000
  O   O19       1.0  0.94500  0.28400  0.59200  1.0000
  O   O20       1.0  0.55500  0.78400  0.59200  1.0000
  O   O21       1.0  0.40800  0.05510  0.71600  1.0000
  O   O22       1.0  0.09200  0.55500  0.71600  1.0000
  O   O23       1.0  0.90800  0.05510  0.78400  1.0000
  O   O24       1.0  0.59200  0.55500  0.78400  1.0000
  O   O25       1.0  0.44500  0.28400  0.90800  1.0000
  O   O26       1.0  0.05510  0.78400  0.90800  1.0000
  O   O27       1.0  0.21600  0.09200  0.94500  1.0000
  O   O28       1.0  0.28400  0.59200  0.94500  1.0000
  P   P1        1.0  0.88900  0.38900  0.11100  1.0000
  P   P2        1.0  0.61100  0.88900  0.11100  1.0000
  P   P3        1.0  0.38900  0.38900  0.38900  1.0000
  P   P4        1.0  0.11100  0.88900  0.38900  1.0000
  P   P5        1.0  0.88900  0.11100  0.61100  1.0000
  P   P6        1.0  0.61100  0.61100  0.61100  1.0000
  P   P7        1.0  0.38900  0.11100  0.88900  1.0000
  P   P8        1.0  0.11100  0.61100  0.88900  1.0000
  W   W1        1.0  0.00000  0.00000  0.00000  1.0000
  W   W2        1.0  0.50000  0.50000  0.00000  1.0000
  W   W3        1.0  0.50000  0.00000  0.50000  1.0000
  W   W4        1.0  0.00000  0.50000  0.50000  1.0000
