data_image0
_chemical_formula_structural       Ba4Co4O24Se8
_chemical_formula_sum              "Ba4 Co4 O24 Se8"
_cell_length_a       14.959
_cell_length_b       5.49546
_cell_length_c       7.19162
_cell_angle_alpha    90
_cell_angle_beta     90
_cell_angle_gamma    90

_space_group_name_H-M_alt    "P 1"
_space_group_IT_number       1

loop_
  _space_group_symop_operation_xyz
  'x, y, z'

loop_
  _atom_site_type_symbol
  _atom_site_label
  _atom_site_symmetry_multiplicity
  _atom_site_fract_x
  _atom_site_fract_y
  _atom_site_fract_z
  _atom_site_occupancy
  Ba  Ba1       1.0  0.62000  0.75000  0.07560  1.0000
  Ba  Ba2       1.0  0.12000  0.75000  0.42400  1.0000
  Ba  Ba3       1.0  0.88000  0.25000  0.57600  1.0000
  Ba  Ba4       1.0  0.38000  0.25000  0.92400  1.0000
  Co  Co1       1.0  0.87700  0.75000  0.21500  1.0000
  Co  Co2       1.0  0.37700  0.75000  0.28500  1.0000
  Co  Co3       1.0  0.62300  0.25000  0.71500  1.0000
  Co  Co4       1.0  0.12300  0.25000  0.78500  1.0000
  O   O1        1.0  0.65500  0.25000  0.00092  1.0000
  O   O2        1.0  0.09760  0.25000  0.07290  1.0000
  O   O3        1.0  0.77600  0.00821  0.19400  1.0000
  O   O4        1.0  0.77600  0.49200  0.19400  1.0000
  O   O5        1.0  0.47600  0.00896  0.21800  1.0000
  O   O6        1.0  0.47600  0.49100  0.21800  1.0000
  O   O7        1.0  0.97600  0.00896  0.28200  1.0000
  O   O8        1.0  0.97600  0.49100  0.28200  1.0000
  O   O9        1.0  0.27600  0.00821  0.30600  1.0000
  O   O10       1.0  0.27600  0.49200  0.30600  1.0000
  O   O11       1.0  0.59800  0.25000  0.42700  1.0000
  O   O12       1.0  0.15500  0.25000  0.49900  1.0000
  O   O13       1.0  0.84500  0.75000  0.50100  1.0000
  O   O14       1.0  0.40200  0.75000  0.57300  1.0000
  O   O15       1.0  0.72400  0.50800  0.69400  1.0000
  O   O16       1.0  0.72400  0.99200  0.69400  1.0000
  O   O17       1.0  0.02380  0.50900  0.71800  1.0000
  O   O18       1.0  0.02380  0.99100  0.71800  1.0000
  O   O19       1.0  0.52400  0.50900  0.78200  1.0000
  O   O20       1.0  0.52400  0.99100  0.78200  1.0000
  O   O21       1.0  0.22400  0.50800  0.80600  1.0000
  O   O22       1.0  0.22400  0.99200  0.80600  1.0000
  O   O23       1.0  0.90200  0.75000  0.92700  1.0000
  O   O24       1.0  0.34500  0.75000  0.99900  1.0000
  Se  Se1       1.0  0.76900  0.25000  0.04180  1.0000
  Se  Se2       1.0  0.98700  0.25000  0.12600  1.0000
  Se  Se3       1.0  0.48700  0.25000  0.37400  1.0000
  Se  Se4       1.0  0.26900  0.25000  0.45800  1.0000
  Se  Se5       1.0  0.73100  0.75000  0.54200  1.0000
  Se  Se6       1.0  0.51300  0.75000  0.62600  1.0000
  Se  Se7       1.0  0.01340  0.75000  0.87400  1.0000
  Se  Se8       1.0  0.23100  0.75000  0.95800  1.0000
