data_image0
_chemical_formula_structural       Al4Mo4O28V4
_chemical_formula_sum              "Al4 Mo4 O28 V4"
_cell_length_a       5.35804
_cell_length_b       8.13851
_cell_length_c       12.7341
_cell_angle_alpha    90
_cell_angle_beta     90
_cell_angle_gamma    90

_space_group_name_H-M_alt    "P 1"
_space_group_IT_number       1

loop_
  _space_group_symop_operation_xyz
  'x, y, z'

loop_
  _atom_site_type_symbol
  _atom_site_label
  _atom_site_symmetry_multiplicity
  _atom_site_fract_x
  _atom_site_fract_y
  _atom_site_fract_z
  _atom_site_occupancy
  Al  Al1       1.0  0.75000  0.73400  0.11400  1.0000
  Al  Al2       1.0  0.25000  0.23400  0.38600  1.0000
  Al  Al3       1.0  0.75000  0.76600  0.61400  1.0000
  Al  Al4       1.0  0.25000  0.26600  0.88600  1.0000
  Mo  Mo1       1.0  0.25000  0.45200  0.14400  1.0000
  Mo  Mo2       1.0  0.75000  0.95200  0.35600  1.0000
  Mo  Mo3       1.0  0.25000  0.04800  0.64400  1.0000
  Mo  Mo4       1.0  0.75000  0.54800  0.85600  1.0000
  O   O1        1.0  0.25000  0.34100  0.02380  1.0000
  O   O2        1.0  0.51800  0.90400  0.07330  1.0000
  O   O3        1.0  0.98200  0.90400  0.07330  1.0000
  O   O4        1.0  0.75000  0.22300  0.09510  1.0000
  O   O5        1.0  0.51000  0.58400  0.15100  1.0000
  O   O6        1.0  0.99000  0.58400  0.15100  1.0000
  O   O7        1.0  0.75000  0.81500  0.24900  1.0000
  O   O8        1.0  0.25000  0.31500  0.25100  1.0000
  O   O9        1.0  0.00974  0.08430  0.34900  1.0000
  O   O10       1.0  0.49000  0.08430  0.34900  1.0000
  O   O11       1.0  0.25000  0.72300  0.40500  1.0000
  O   O12       1.0  0.01840  0.40400  0.42700  1.0000
  O   O13       1.0  0.48200  0.40400  0.42700  1.0000
  O   O14       1.0  0.75000  0.84100  0.47600  1.0000
  O   O15       1.0  0.25000  0.15900  0.52400  1.0000
  O   O16       1.0  0.51800  0.59600  0.57300  1.0000
  O   O17       1.0  0.98200  0.59600  0.57300  1.0000
  O   O18       1.0  0.75000  0.27700  0.59500  1.0000
  O   O19       1.0  0.51000  0.91600  0.65100  1.0000
  O   O20       1.0  0.99000  0.91600  0.65100  1.0000
  O   O21       1.0  0.75000  0.68500  0.74900  1.0000
  O   O22       1.0  0.25000  0.18500  0.75100  1.0000
  O   O23       1.0  0.00974  0.41600  0.84900  1.0000
  O   O24       1.0  0.49000  0.41600  0.84900  1.0000
  O   O25       1.0  0.25000  0.77700  0.90500  1.0000
  O   O26       1.0  0.01840  0.09600  0.92700  1.0000
  O   O27       1.0  0.48200  0.09600  0.92700  1.0000
  O   O28       1.0  0.75000  0.65900  0.97600  1.0000
  V   V1        1.0  0.75000  0.06900  0.01580  1.0000
  V   V2        1.0  0.25000  0.56900  0.48400  1.0000
  V   V3        1.0  0.75000  0.43100  0.51600  1.0000
  V   V4        1.0  0.25000  0.93100  0.98400  1.0000
