data_image0
_chemical_formula_structural       Ge26Lu6Rh8
_chemical_formula_sum              "Ge26 Lu6 Rh8"
_cell_length_a       8.97397
_cell_length_b       8.97397
_cell_length_c       8.97397
_cell_angle_alpha    90
_cell_angle_beta     90
_cell_angle_gamma    90

_space_group_name_H-M_alt    "P 1"
_space_group_IT_number       1

loop_
  _space_group_symop_operation_xyz
  'x, y, z'

loop_
  _atom_site_type_symbol
  _atom_site_label
  _atom_site_symmetry_multiplicity
  _atom_site_fract_x
  _atom_site_fract_y
  _atom_site_fract_z
  _atom_site_occupancy
  Ge  Ge1       1.0  0.00000  0.00000  0.00000  1.0000
  Ge  Ge2       1.0  0.31300  0.14600  0.00000  1.0000
  Ge  Ge3       1.0  0.68700  0.14600  0.00000  1.0000
  Ge  Ge4       1.0  0.31300  0.85400  0.00000  1.0000
  Ge  Ge5       1.0  0.68700  0.85400  0.00000  1.0000
  Ge  Ge6       1.0  0.00000  0.31300  0.14600  1.0000
  Ge  Ge7       1.0  0.00000  0.68700  0.14600  1.0000
  Ge  Ge8       1.0  0.50000  0.35400  0.18700  1.0000
  Ge  Ge9       1.0  0.50000  0.64600  0.18700  1.0000
  Ge  Ge10      1.0  0.14600  0.00000  0.31300  1.0000
  Ge  Ge11      1.0  0.85400  0.00000  0.31300  1.0000
  Ge  Ge12      1.0  0.18700  0.50000  0.35400  1.0000
  Ge  Ge13      1.0  0.81300  0.50000  0.35400  1.0000
  Ge  Ge14      1.0  0.35400  0.18700  0.50000  1.0000
  Ge  Ge15      1.0  0.64600  0.18700  0.50000  1.0000
  Ge  Ge16      1.0  0.50000  0.50000  0.50000  1.0000
  Ge  Ge17      1.0  0.35400  0.81300  0.50000  1.0000
  Ge  Ge18      1.0  0.64600  0.81300  0.50000  1.0000
  Ge  Ge19      1.0  0.18700  0.50000  0.64600  1.0000
  Ge  Ge20      1.0  0.81300  0.50000  0.64600  1.0000
  Ge  Ge21      1.0  0.14600  0.00000  0.68700  1.0000
  Ge  Ge22      1.0  0.85400  0.00000  0.68700  1.0000
  Ge  Ge23      1.0  0.50000  0.35400  0.81300  1.0000
  Ge  Ge24      1.0  0.50000  0.64600  0.81300  1.0000
  Ge  Ge25      1.0  0.00000  0.31300  0.85400  1.0000
  Ge  Ge26      1.0  0.00000  0.68700  0.85400  1.0000
  Lu  Lu1       1.0  0.25000  0.50000  0.00000  1.0000
  Lu  Lu2       1.0  0.75000  0.50000  0.00000  1.0000
  Lu  Lu3       1.0  0.50000  0.00000  0.25000  1.0000
  Lu  Lu4       1.0  0.00000  0.25000  0.50000  1.0000
  Lu  Lu5       1.0  0.00000  0.75000  0.50000  1.0000
  Lu  Lu6       1.0  0.50000  0.00000  0.75000  1.0000
  Rh  Rh1       1.0  0.25000  0.25000  0.25000  1.0000
  Rh  Rh2       1.0  0.75000  0.25000  0.25000  1.0000
  Rh  Rh3       1.0  0.25000  0.75000  0.25000  1.0000
  Rh  Rh4       1.0  0.75000  0.75000  0.25000  1.0000
  Rh  Rh5       1.0  0.25000  0.25000  0.75000  1.0000
  Rh  Rh6       1.0  0.75000  0.25000  0.75000  1.0000
  Rh  Rh7       1.0  0.25000  0.75000  0.75000  1.0000
  Rh  Rh8       1.0  0.75000  0.75000  0.75000  1.0000
