data_image0
_chemical_formula_structural       Ag4Fe4O24Se8
_chemical_formula_sum              "Ag4 Fe4 O24 Se8"
_cell_length_a       13.875
_cell_length_b       5.26599
_cell_length_c       7.53622
_cell_angle_alpha    90
_cell_angle_beta     90
_cell_angle_gamma    90

_space_group_name_H-M_alt    "P 1"
_space_group_IT_number       1

loop_
  _space_group_symop_operation_xyz
  'x, y, z'

loop_
  _atom_site_type_symbol
  _atom_site_label
  _atom_site_symmetry_multiplicity
  _atom_site_fract_x
  _atom_site_fract_y
  _atom_site_fract_z
  _atom_site_occupancy
  Ag  Ag1       1.0  0.12200  0.63600  0.18100  1.0000
  Ag  Ag2       1.0  0.62200  0.86400  0.18100  1.0000
  Ag  Ag3       1.0  0.37800  0.13600  0.68100  1.0000
  Ag  Ag4       1.0  0.87800  0.36400  0.68100  1.0000
  Fe  Fe1       1.0  0.87300  0.70600  0.19500  1.0000
  Fe  Fe2       1.0  0.37300  0.79400  0.19500  1.0000
  Fe  Fe3       1.0  0.62700  0.20600  0.69500  1.0000
  Fe  Fe4       1.0  0.12700  0.29400  0.69500  1.0000
  O   O1        1.0  0.49100  0.58900  0.13000  1.0000
  O   O2        1.0  0.99100  0.91100  0.13000  1.0000
  O   O3        1.0  0.46100  0.09810  0.19100  1.0000
  O   O4        1.0  0.96100  0.40200  0.19100  1.0000
  O   O5        1.0  0.78800  0.01730  0.19300  1.0000
  O   O6        1.0  0.28800  0.48300  0.19300  1.0000
  O   O7        1.0  0.75600  0.51000  0.26300  1.0000
  O   O8        1.0  0.25600  0.99000  0.26300  1.0000
  O   O9        1.0  0.66100  0.15500  0.43500  1.0000
  O   O10       1.0  0.16100  0.34500  0.43500  1.0000
  O   O11       1.0  0.90800  0.74200  0.45700  1.0000
  O   O12       1.0  0.40800  0.75800  0.45700  1.0000
  O   O13       1.0  0.00910  0.08890  0.63000  1.0000
  O   O14       1.0  0.50900  0.41100  0.63000  1.0000
  O   O15       1.0  0.03860  0.59800  0.69100  1.0000
  O   O16       1.0  0.53900  0.90200  0.69100  1.0000
  O   O17       1.0  0.71200  0.51700  0.69300  1.0000
  O   O18       1.0  0.21200  0.98300  0.69300  1.0000
  O   O19       1.0  0.74400  0.01000  0.76300  1.0000
  O   O20       1.0  0.24400  0.49000  0.76300  1.0000
  O   O21       1.0  0.83900  0.65500  0.93500  1.0000
  O   O22       1.0  0.33900  0.84500  0.93500  1.0000
  O   O23       1.0  0.59200  0.24200  0.95700  1.0000
  O   O24       1.0  0.09160  0.25800  0.95700  1.0000
  Se  Se1       1.0  0.97400  0.19200  0.01420  1.0000
  Se  Se2       1.0  0.47400  0.30800  0.01420  1.0000
  Se  Se3       1.0  0.77700  0.22800  0.37200  1.0000
  Se  Se4       1.0  0.27700  0.27200  0.37200  1.0000
  Se  Se5       1.0  0.52600  0.69200  0.51400  1.0000
  Se  Se6       1.0  0.02640  0.80800  0.51400  1.0000
  Se  Se7       1.0  0.72300  0.72800  0.87200  1.0000
  Se  Se8       1.0  0.22300  0.77200  0.87200  1.0000
