data_image0
_chemical_formula_structural       Cs4F8N4O16S8
_chemical_formula_sum              "Cs4 F8 N4 O16 S8"
_cell_length_a       7.56404
_cell_length_b       8.14171
_cell_length_c       10.1837
_cell_angle_alpha    90
_cell_angle_beta     98.4368
_cell_angle_gamma    90

_space_group_name_H-M_alt    "P 1"
_space_group_IT_number       1

loop_
  _space_group_symop_operation_xyz
  'x, y, z'

loop_
  _atom_site_type_symbol
  _atom_site_label
  _atom_site_symmetry_multiplicity
  _atom_site_fract_x
  _atom_site_fract_y
  _atom_site_fract_z
  _atom_site_occupancy
  Cs  Cs1       1.0  0.35100  0.76300  0.08520  1.0000
  Cs  Cs2       1.0  0.14900  0.26300  0.41500  1.0000
  Cs  Cs3       1.0  0.85100  0.73700  0.58500  1.0000
  Cs  Cs4       1.0  0.64900  0.23700  0.91500  1.0000
  F   F1        1.0  0.30100  0.18500  0.14000  1.0000
  F   F2        1.0  0.67300  0.27100  0.22800  1.0000
  F   F3        1.0  0.82700  0.77100  0.27200  1.0000
  F   F4        1.0  0.19900  0.68500  0.36000  1.0000
  F   F5        1.0  0.80100  0.31500  0.64000  1.0000
  F   F6        1.0  0.17300  0.22900  0.72800  1.0000
  F   F7        1.0  0.32700  0.72900  0.77200  1.0000
  F   F8        1.0  0.69900  0.81500  0.86000  1.0000
  N   N1        1.0  0.94500  0.79700  0.05480  1.0000
  N   N2        1.0  0.55500  0.29700  0.44500  1.0000
  N   N3        1.0  0.44500  0.70300  0.55500  1.0000
  N   N4        1.0  0.05500  0.20300  0.94500  1.0000
  O   O1        1.0  0.68700  0.59400  0.01510  1.0000
  O   O2        1.0  0.68900  0.97000  0.11800  1.0000
  O   O3        1.0  0.07630  0.39900  0.13000  1.0000
  O   O4        1.0  0.00344  0.00526  0.22700  1.0000
  O   O5        1.0  0.49700  0.50500  0.27300  1.0000
  O   O6        1.0  0.42400  0.89900  0.37000  1.0000
  O   O7        1.0  0.81100  0.47000  0.38200  1.0000
  O   O8        1.0  0.81300  0.09350  0.48500  1.0000
  O   O9        1.0  0.18700  0.90600  0.51500  1.0000
  O   O10       1.0  0.18900  0.53000  0.61800  1.0000
  O   O11       1.0  0.57600  0.10100  0.63000  1.0000
  O   O12       1.0  0.50300  0.49500  0.72700  1.0000
  O   O13       1.0  0.99700  0.99500  0.77300  1.0000
  O   O14       1.0  0.92400  0.60100  0.87000  1.0000
  O   O15       1.0  0.31100  0.02950  0.88200  1.0000
  O   O16       1.0  0.31300  0.40600  0.98500  1.0000
  S   S1        1.0  0.18100  0.31600  0.04390  1.0000
  S   S2        1.0  0.86300  0.90400  0.16200  1.0000
  S   S3        1.0  0.63700  0.40400  0.33800  1.0000
  S   S4        1.0  0.31900  0.81600  0.45600  1.0000
  S   S5        1.0  0.68100  0.18400  0.54400  1.0000
  S   S6        1.0  0.36300  0.59600  0.66200  1.0000
  S   S7        1.0  0.13700  0.09630  0.83800  1.0000
  S   S8        1.0  0.81900  0.68400  0.95600  1.0000
