data_image0
_chemical_formula_structural       Si4Ta12Te24
_chemical_formula_sum              "Si4 Ta12 Te24"
_cell_length_a       6.4098
_cell_length_b       14.721
_cell_length_c       11.5674
_cell_angle_alpha    90
_cell_angle_beta     90
_cell_angle_gamma    90

_space_group_name_H-M_alt    "P 1"
_space_group_IT_number       1

loop_
  _space_group_symop_operation_xyz
  'x, y, z'

loop_
  _atom_site_type_symbol
  _atom_site_label
  _atom_site_symmetry_multiplicity
  _atom_site_fract_x
  _atom_site_fract_y
  _atom_site_fract_z
  _atom_site_occupancy
  Si  Si1       1.0  0.92500  0.25000  0.07510  1.0000
  Si  Si2       1.0  0.42500  0.25000  0.42500  1.0000
  Si  Si3       1.0  0.57500  0.75000  0.57500  1.0000
  Si  Si4       1.0  0.07490  0.75000  0.92500  1.0000
  Ta  Ta1       1.0  0.69700  0.75000  0.03300  1.0000
  Ta  Ta2       1.0  0.16700  0.75000  0.16500  1.0000
  Ta  Ta3       1.0  0.53200  0.25000  0.18800  1.0000
  Ta  Ta4       1.0  0.03220  0.25000  0.31200  1.0000
  Ta  Ta5       1.0  0.66700  0.75000  0.33500  1.0000
  Ta  Ta6       1.0  0.19700  0.75000  0.46700  1.0000
  Ta  Ta7       1.0  0.80300  0.25000  0.53300  1.0000
  Ta  Ta8       1.0  0.33300  0.25000  0.66500  1.0000
  Ta  Ta9       1.0  0.96800  0.75000  0.68800  1.0000
  Ta  Ta10      1.0  0.46800  0.75000  0.81200  1.0000
  Ta  Ta11      1.0  0.83300  0.25000  0.83500  1.0000
  Ta  Ta12      1.0  0.30300  0.25000  0.96700  1.0000
  Te  Te1       1.0  0.35500  0.62600  0.00282  1.0000
  Te  Te2       1.0  0.35500  0.87400  0.00282  1.0000
  Te  Te3       1.0  0.20400  0.12200  0.15600  1.0000
  Te  Te4       1.0  0.20400  0.37800  0.15600  1.0000
  Te  Te5       1.0  0.84900  0.62000  0.18200  1.0000
  Te  Te6       1.0  0.84900  0.88000  0.18200  1.0000
  Te  Te7       1.0  0.34900  0.62000  0.31800  1.0000
  Te  Te8       1.0  0.34900  0.88000  0.31800  1.0000
  Te  Te9       1.0  0.70400  0.12200  0.34400  1.0000
  Te  Te10      1.0  0.70400  0.37800  0.34400  1.0000
  Te  Te11      1.0  0.85500  0.62600  0.49700  1.0000
  Te  Te12      1.0  0.85500  0.87400  0.49700  1.0000
  Te  Te13      1.0  0.14500  0.12600  0.50300  1.0000
  Te  Te14      1.0  0.14500  0.37400  0.50300  1.0000
  Te  Te15      1.0  0.29600  0.62200  0.65600  1.0000
  Te  Te16      1.0  0.29600  0.87800  0.65600  1.0000
  Te  Te17      1.0  0.65100  0.12000  0.68200  1.0000
  Te  Te18      1.0  0.65100  0.38000  0.68200  1.0000
  Te  Te19      1.0  0.15100  0.12000  0.81800  1.0000
  Te  Te20      1.0  0.15100  0.38000  0.81800  1.0000
  Te  Te21      1.0  0.79600  0.62200  0.84400  1.0000
  Te  Te22      1.0  0.79600  0.87800  0.84400  1.0000
  Te  Te23      1.0  0.64500  0.12600  0.99700  1.0000
  Te  Te24      1.0  0.64500  0.37400  0.99700  1.0000
