data_image0
_chemical_formula_structural       Ba8Na2O24Ru6
_chemical_formula_sum              "Ba8 Na2 O24 Ru6"
_cell_length_a       5.80041
_cell_length_b       5.80039
_cell_length_c       19.1735
_cell_angle_alpha    90
_cell_angle_beta     90
_cell_angle_gamma    120

_space_group_name_H-M_alt    "P 1"
_space_group_IT_number       1

loop_
  _space_group_symop_operation_xyz
  'x, y, z'

loop_
  _atom_site_type_symbol
  _atom_site_label
  _atom_site_symmetry_multiplicity
  _atom_site_fract_x
  _atom_site_fract_y
  _atom_site_fract_z
  _atom_site_occupancy
  Ba  Ba1       1.0  0.00000  0.00000  0.00148  1.0000
  Ba  Ba2       1.0  0.33300  0.66700  0.12100  1.0000
  Ba  Ba3       1.0  0.66700  0.33300  0.24500  1.0000
  Ba  Ba4       1.0  0.33300  0.66700  0.37300  1.0000
  Ba  Ba5       1.0  0.00000  0.00000  0.50100  1.0000
  Ba  Ba6       1.0  0.66700  0.33300  0.62100  1.0000
  Ba  Ba7       1.0  0.33300  0.66700  0.74500  1.0000
  Ba  Ba8       1.0  0.66700  0.33300  0.87300  1.0000
  Na  Na1       1.0  0.66700  0.33300  0.05860  1.0000
  Na  Na2       1.0  0.33300  0.66700  0.55900  1.0000
  O   O1        1.0  0.84300  0.68600  0.12900  1.0000
  O   O2        1.0  0.84300  0.15700  0.12900  1.0000
  O   O3        1.0  0.31400  0.15700  0.12900  1.0000
  O   O4        1.0  0.15600  0.31200  0.25300  1.0000
  O   O5        1.0  0.68800  0.84400  0.25300  1.0000
  O   O6        1.0  0.15600  0.84400  0.25300  1.0000
  O   O7        1.0  0.83400  0.16600  0.37300  1.0000
  O   O8        1.0  0.33200  0.16600  0.37300  1.0000
  O   O9        1.0  0.83400  0.66800  0.37300  1.0000
  O   O10       1.0  0.51200  0.02410  0.49000  1.0000
  O   O11       1.0  0.97600  0.48800  0.49000  1.0000
  O   O12       1.0  0.51200  0.48800  0.49000  1.0000
  O   O13       1.0  0.15700  0.31400  0.62900  1.0000
  O   O14       1.0  0.68600  0.84300  0.62900  1.0000
  O   O15       1.0  0.15700  0.84300  0.62900  1.0000
  O   O16       1.0  0.84400  0.15600  0.75300  1.0000
  O   O17       1.0  0.31200  0.15600  0.75300  1.0000
  O   O18       1.0  0.84400  0.68800  0.75300  1.0000
  O   O19       1.0  0.16600  0.33200  0.87300  1.0000
  O   O20       1.0  0.66800  0.83400  0.87300  1.0000
  O   O21       1.0  0.16600  0.83400  0.87300  1.0000
  O   O22       1.0  0.48800  0.51200  0.99000  1.0000
  O   O23       1.0  0.02410  0.51200  0.99000  1.0000
  O   O24       1.0  0.48800  0.97600  0.99000  1.0000
  Ru  Ru1       1.0  0.00000  0.00000  0.18300  1.0000
  Ru  Ru2       1.0  0.00000  0.00000  0.31800  1.0000
  Ru  Ru3       1.0  0.66700  0.33300  0.43500  1.0000
  Ru  Ru4       1.0  0.00000  0.00000  0.68300  1.0000
  Ru  Ru5       1.0  0.00000  0.00000  0.81800  1.0000
  Ru  Ru6       1.0  0.33300  0.66700  0.93500  1.0000
