data_image0
_chemical_formula_structural       H16O20S4
_chemical_formula_sum              "H16 O20 S4"
_cell_length_a       6.77565
_cell_length_b       6.81326
_cell_length_c       7.84872
_cell_angle_alpha    90
_cell_angle_beta     105.402
_cell_angle_gamma    90

_space_group_name_H-M_alt    "P 1"
_space_group_IT_number       1

loop_
  _space_group_symop_operation_xyz
  'x, y, z'

loop_
  _atom_site_type_symbol
  _atom_site_label
  _atom_site_symmetry_multiplicity
  _atom_site_fract_x
  _atom_site_fract_y
  _atom_site_fract_z
  _atom_site_occupancy
  H   H1        1.0  0.59400  0.69100  0.07870  1.0000
  H   H2        1.0  0.09020  0.67400  0.10500  1.0000
  H   H3        1.0  0.77100  0.83700  0.20800  1.0000
  H   H4        1.0  0.27700  0.11200  0.22200  1.0000
  H   H5        1.0  0.72300  0.61200  0.27800  1.0000
  H   H6        1.0  0.22900  0.33700  0.29200  1.0000
  H   H7        1.0  0.91000  0.17400  0.39500  1.0000
  H   H8        1.0  0.40600  0.19100  0.42100  1.0000
  H   H9        1.0  0.59400  0.80900  0.57900  1.0000
  H   H10       1.0  0.09020  0.82600  0.60500  1.0000
  H   H11       1.0  0.77100  0.66300  0.70800  1.0000
  H   H12       1.0  0.27700  0.38800  0.72200  1.0000
  H   H13       1.0  0.72300  0.88800  0.77800  1.0000
  H   H14       1.0  0.22900  0.16300  0.79200  1.0000
  H   H15       1.0  0.91000  0.32600  0.89500  1.0000
  H   H16       1.0  0.40600  0.30900  0.92100  1.0000
  O   O1        1.0  0.94900  0.24800  0.01160  1.0000
  O   O2        1.0  0.61100  0.32100  0.05220  1.0000
  O   O3        1.0  0.33900  0.98400  0.08910  1.0000
  O   O4        1.0  0.73400  0.69600  0.17300  1.0000
  O   O5        1.0  0.82900  0.06270  0.22100  1.0000
  O   O6        1.0  0.17100  0.56300  0.27900  1.0000
  O   O7        1.0  0.26600  0.19600  0.32700  1.0000
  O   O8        1.0  0.66100  0.48400  0.41100  1.0000
  O   O9        1.0  0.38900  0.82100  0.44800  1.0000
  O   O10       1.0  0.05120  0.74800  0.48800  1.0000
  O   O11       1.0  0.94900  0.25200  0.51200  1.0000
  O   O12       1.0  0.61100  0.17900  0.55200  1.0000
  O   O13       1.0  0.33900  0.51600  0.58900  1.0000
  O   O14       1.0  0.73400  0.80400  0.67300  1.0000
  O   O15       1.0  0.82900  0.43700  0.72100  1.0000
  O   O16       1.0  0.17100  0.93700  0.77900  1.0000
  O   O17       1.0  0.26600  0.30400  0.82700  1.0000
  O   O18       1.0  0.66100  0.01590  0.91100  1.0000
  O   O19       1.0  0.38900  0.67900  0.94800  1.0000
  O   O20       1.0  0.05120  0.75200  0.98800  1.0000
  S   S1        1.0  0.75100  0.15900  0.04690  1.0000
  S   S2        1.0  0.24900  0.65900  0.45300  1.0000
  S   S3        1.0  0.75100  0.34100  0.54700  1.0000
  S   S4        1.0  0.24900  0.84100  0.95300  1.0000
