data_image0
_chemical_formula_structural       F16N4O12Rb4Te4
_chemical_formula_sum              "F16 N4 O12 Rb4 Te4"
_cell_length_a       7.92848
_cell_length_b       8.05934
_cell_length_c       9.98948
_cell_angle_alpha    108.798
_cell_angle_beta     89.0654
_cell_angle_gamma    111.929

_space_group_name_H-M_alt    "P 1"
_space_group_IT_number       1

loop_
  _space_group_symop_operation_xyz
  'x, y, z'

loop_
  _atom_site_type_symbol
  _atom_site_label
  _atom_site_symmetry_multiplicity
  _atom_site_fract_x
  _atom_site_fract_y
  _atom_site_fract_z
  _atom_site_occupancy
  F   F1        1.0  0.73700  0.86500  0.02810  1.0000
  F   F2        1.0  0.50700  0.45700  0.12100  1.0000
  F   F3        1.0  0.51500  0.15100  0.14000  1.0000
  F   F4        1.0  0.17000  0.97500  0.15400  1.0000
  F   F5        1.0  0.66700  0.95800  0.34800  1.0000
  F   F6        1.0  0.98600  0.55300  0.39100  1.0000
  F   F7        1.0  0.21900  0.86800  0.39100  1.0000
  F   F8        1.0  0.01890  0.14000  0.43000  1.0000
  F   F9        1.0  0.98100  0.86000  0.57000  1.0000
  F   F10       1.0  0.78100  0.13200  0.60900  1.0000
  F   F11       1.0  0.01410  0.44700  0.60900  1.0000
  F   F12       1.0  0.33300  0.04220  0.65200  1.0000
  F   F13       1.0  0.83000  0.02460  0.84600  1.0000
  F   F14       1.0  0.48500  0.84900  0.86000  1.0000
  F   F15       1.0  0.49300  0.54300  0.87900  1.0000
  F   F16       1.0  0.26300  0.13500  0.97200  1.0000
  N   N1        1.0  0.98600  0.32300  0.13300  1.0000
  N   N2        1.0  0.50800  0.67100  0.46800  1.0000
  N   N3        1.0  0.49200  0.32900  0.53200  1.0000
  N   N4        1.0  0.01410  0.67700  0.86700  1.0000
  O   O1        1.0  0.14700  0.39700  0.09540  1.0000
  O   O2        1.0  0.86200  0.36800  0.10500  1.0000
  O   O3        1.0  0.96700  0.20700  0.19800  1.0000
  O   O4        1.0  0.35600  0.62000  0.38900  1.0000
  O   O5        1.0  0.47100  0.21200  0.40700  1.0000
  O   O6        1.0  0.62100  0.60200  0.42100  1.0000
  O   O7        1.0  0.37900  0.39800  0.57900  1.0000
  O   O8        1.0  0.52900  0.78800  0.59300  1.0000
  O   O9        1.0  0.64400  0.38000  0.61100  1.0000
  O   O10       1.0  0.03310  0.79300  0.80200  1.0000
  O   O11       1.0  0.13800  0.63200  0.89500  1.0000
  O   O12       1.0  0.85300  0.60300  0.90500  1.0000
  Rb  Rb1       1.0  0.39200  0.77100  0.13600  1.0000
  Rb  Rb2       1.0  0.86700  0.74000  0.23100  1.0000
  Rb  Rb3       1.0  0.13300  0.26000  0.76900  1.0000
  Rb  Rb4       1.0  0.60800  0.22900  0.86400  1.0000
  Te  Te1       1.0  0.32200  0.24700  0.17500  1.0000
  Te  Te2       1.0  0.82300  0.23100  0.45500  1.0000
  Te  Te3       1.0  0.17700  0.76900  0.54500  1.0000
  Te  Te4       1.0  0.67800  0.75300  0.82500  1.0000
