data_image0
_chemical_formula_structural       K4La4P8Se24
_chemical_formula_sum              "K4 La4 P8 Se24"
_cell_length_a       12.5965
_cell_length_b       7.92986
_cell_length_c       11.9823
_cell_angle_alpha    90
_cell_angle_beta     109.403
_cell_angle_gamma    90

_space_group_name_H-M_alt    "P 1"
_space_group_IT_number       1

loop_
  _space_group_symop_operation_xyz
  'x, y, z'

loop_
  _atom_site_type_symbol
  _atom_site_label
  _atom_site_symmetry_multiplicity
  _atom_site_fract_x
  _atom_site_fract_y
  _atom_site_fract_z
  _atom_site_occupancy
  K   K1        1.0  0.87200  0.41200  0.12700  1.0000
  K   K2        1.0  0.12800  0.91200  0.37300  1.0000
  K   K3        1.0  0.87200  0.08820  0.62700  1.0000
  K   K4        1.0  0.12800  0.58800  0.87300  1.0000
  La  La1       1.0  0.35100  0.10300  0.09670  1.0000
  La  La2       1.0  0.64900  0.60300  0.40300  1.0000
  La  La3       1.0  0.35100  0.39700  0.59700  1.0000
  La  La4       1.0  0.64900  0.89700  0.90300  1.0000
  P   P1        1.0  0.78900  0.88300  0.23300  1.0000
  P   P2        1.0  0.67500  0.09700  0.24700  1.0000
  P   P3        1.0  0.32500  0.59700  0.25300  1.0000
  P   P4        1.0  0.21100  0.38300  0.26700  1.0000
  P   P5        1.0  0.78900  0.61700  0.73300  1.0000
  P   P6        1.0  0.67500  0.40300  0.74700  1.0000
  P   P7        1.0  0.32500  0.90300  0.75300  1.0000
  P   P8        1.0  0.21100  0.11700  0.76700  1.0000
  Se  Se1       1.0  0.58800  0.19000  0.06470  1.0000
  Se  Se2       1.0  0.12900  0.28700  0.08530  1.0000
  Se  Se3       1.0  0.88900  0.98000  0.12800  1.0000
  Se  Se4       1.0  0.67000  0.68800  0.13400  1.0000
  Se  Se5       1.0  0.21500  0.78800  0.13900  1.0000
  Se  Se6       1.0  0.44800  0.47300  0.18200  1.0000
  Se  Se7       1.0  0.55200  0.97300  0.31800  1.0000
  Se  Se8       1.0  0.78500  0.28800  0.36100  1.0000
  Se  Se9       1.0  0.33000  0.18800  0.36600  1.0000
  Se  Se10      1.0  0.11100  0.48000  0.37200  1.0000
  Se  Se11      1.0  0.87100  0.78700  0.41500  1.0000
  Se  Se12      1.0  0.41200  0.69000  0.43500  1.0000
  Se  Se13      1.0  0.58800  0.31000  0.56500  1.0000
  Se  Se14      1.0  0.12900  0.21300  0.58500  1.0000
  Se  Se15      1.0  0.88900  0.52000  0.62800  1.0000
  Se  Se16      1.0  0.67000  0.81200  0.63400  1.0000
  Se  Se17      1.0  0.21500  0.71200  0.63900  1.0000
  Se  Se18      1.0  0.44800  0.02740  0.68200  1.0000
  Se  Se19      1.0  0.55200  0.52700  0.81800  1.0000
  Se  Se20      1.0  0.78500  0.21200  0.86100  1.0000
  Se  Se21      1.0  0.33000  0.31200  0.86600  1.0000
  Se  Se22      1.0  0.11100  0.01960  0.87200  1.0000
  Se  Se23      1.0  0.87100  0.71300  0.91500  1.0000
  Se  Se24      1.0  0.41200  0.81000  0.93500  1.0000
