data_image0
_chemical_formula_structural       Bi10Cs6Cu4S20
_chemical_formula_sum              "Bi10 Cs6 Cu4 S20"
_cell_length_a       15.1825
_cell_length_b       18.2265
_cell_length_c       4.0963
_cell_angle_alpha    90
_cell_angle_beta     90
_cell_angle_gamma    90

_space_group_name_H-M_alt    "P 1"
_space_group_IT_number       1

loop_
  _space_group_symop_operation_xyz
  'x, y, z'

loop_
  _atom_site_type_symbol
  _atom_site_label
  _atom_site_symmetry_multiplicity
  _atom_site_fract_x
  _atom_site_fract_y
  _atom_site_fract_z
  _atom_site_occupancy
  Bi  Bi1       1.0  0.00000  0.00000  0.00000  1.0000
  Bi  Bi2       1.0  0.74400  0.10700  0.00000  1.0000
  Bi  Bi3       1.0  0.71200  0.40900  0.00000  1.0000
  Bi  Bi4       1.0  0.28800  0.59100  0.00000  1.0000
  Bi  Bi5       1.0  0.25600  0.89300  0.00000  1.0000
  Bi  Bi6       1.0  0.21200  0.09060  0.50000  1.0000
  Bi  Bi7       1.0  0.24400  0.39300  0.50000  1.0000
  Bi  Bi8       1.0  0.50000  0.50000  0.50000  1.0000
  Bi  Bi9       1.0  0.75600  0.60700  0.50000  1.0000
  Bi  Bi10      1.0  0.78800  0.90900  0.50000  1.0000
  Cs  Cs1       1.0  0.47800  0.25000  0.00000  1.0000
  Cs  Cs2       1.0  0.00000  0.50000  0.00000  1.0000
  Cs  Cs3       1.0  0.52200  0.75000  0.00000  1.0000
  Cs  Cs4       1.0  0.50000  0.00000  0.50000  1.0000
  Cs  Cs5       1.0  0.97800  0.25000  0.50000  1.0000
  Cs  Cs6       1.0  0.02220  0.75000  0.50000  1.0000
  Cu  Cu1       1.0  0.22400  0.24400  0.00000  1.0000
  Cu  Cu2       1.0  0.77600  0.75600  0.00000  1.0000
  Cu  Cu3       1.0  0.72400  0.25600  0.50000  1.0000
  Cu  Cu4       1.0  0.27600  0.74400  0.50000  1.0000
  S   S1        1.0  0.32200  0.02800  0.00000  1.0000
  S   S2        1.0  0.09610  0.13300  0.00000  1.0000
  S   S3        1.0  0.79300  0.27800  0.00000  1.0000
  S   S4        1.0  0.13700  0.34900  0.00000  1.0000
  S   S5        1.0  0.38400  0.44500  0.00000  1.0000
  S   S6        1.0  0.61600  0.55500  0.00000  1.0000
  S   S7        1.0  0.86300  0.65100  0.00000  1.0000
  S   S8        1.0  0.20700  0.72200  0.00000  1.0000
  S   S9        1.0  0.90400  0.86700  0.00000  1.0000
  S   S10       1.0  0.67800  0.97200  0.00000  1.0000
  S   S11       1.0  0.88400  0.05530  0.50000  1.0000
  S   S12       1.0  0.63700  0.15100  0.50000  1.0000
  S   S13       1.0  0.29300  0.22200  0.50000  1.0000
  S   S14       1.0  0.59600  0.36700  0.50000  1.0000
  S   S15       1.0  0.82200  0.47200  0.50000  1.0000
  S   S16       1.0  0.17800  0.52800  0.50000  1.0000
  S   S17       1.0  0.40400  0.63300  0.50000  1.0000
  S   S18       1.0  0.70700  0.77800  0.50000  1.0000
  S   S19       1.0  0.36300  0.84900  0.50000  1.0000
  S   S20       1.0  0.11600  0.94500  0.50000  1.0000
