data_image0
_chemical_formula_structural       Bi4Cl12O12Sr12
_chemical_formula_sum              "Bi4 Cl12 O12 Sr12"
_cell_length_a       6.69891
_cell_length_b       11.5021
_cell_length_c       11.6162
_cell_angle_alpha    90
_cell_angle_beta     90
_cell_angle_gamma    90

_space_group_name_H-M_alt    "P 1"
_space_group_IT_number       1

loop_
  _space_group_symop_operation_xyz
  'x, y, z'

loop_
  _atom_site_type_symbol
  _atom_site_label
  _atom_site_symmetry_multiplicity
  _atom_site_fract_x
  _atom_site_fract_y
  _atom_site_fract_z
  _atom_site_occupancy
  Bi  Bi1       1.0  0.59800  0.75000  0.13300  1.0000
  Bi  Bi2       1.0  0.09810  0.75000  0.36700  1.0000
  Bi  Bi3       1.0  0.90200  0.25000  0.63300  1.0000
  Bi  Bi4       1.0  0.40200  0.25000  0.86700  1.0000
  Cl  Cl1       1.0  0.90400  0.50700  0.14400  1.0000
  Cl  Cl2       1.0  0.90400  0.99300  0.14400  1.0000
  Cl  Cl3       1.0  0.58700  0.25000  0.23000  1.0000
  Cl  Cl4       1.0  0.08690  0.25000  0.27000  1.0000
  Cl  Cl5       1.0  0.40400  0.50700  0.35600  1.0000
  Cl  Cl6       1.0  0.40400  0.99300  0.35600  1.0000
  Cl  Cl7       1.0  0.59600  0.00660  0.64400  1.0000
  Cl  Cl8       1.0  0.59600  0.49300  0.64400  1.0000
  Cl  Cl9       1.0  0.91300  0.75000  0.73000  1.0000
  Cl  Cl10      1.0  0.41300  0.75000  0.77000  1.0000
  Cl  Cl11      1.0  0.09650  0.00660  0.85600  1.0000
  Cl  Cl12      1.0  0.09650  0.49300  0.85600  1.0000
  O   O1        1.0  0.20500  0.25000  0.00624  1.0000
  O   O2        1.0  0.42100  0.62300  0.05200  1.0000
  O   O3        1.0  0.42100  0.87700  0.05200  1.0000
  O   O4        1.0  0.92100  0.62300  0.44800  1.0000
  O   O5        1.0  0.92100  0.87700  0.44800  1.0000
  O   O6        1.0  0.70500  0.25000  0.49400  1.0000
  O   O7        1.0  0.29500  0.75000  0.50600  1.0000
  O   O8        1.0  0.07920  0.12300  0.55200  1.0000
  O   O9        1.0  0.07920  0.37700  0.55200  1.0000
  O   O10       1.0  0.57900  0.12300  0.94800  1.0000
  O   O11       1.0  0.57900  0.37700  0.94800  1.0000
  O   O12       1.0  0.79500  0.75000  0.99400  1.0000
  Sr  Sr1       1.0  0.84600  0.25000  0.02920  1.0000
  Sr  Sr2       1.0  0.33100  0.07110  0.11000  1.0000
  Sr  Sr3       1.0  0.33100  0.42900  0.11000  1.0000
  Sr  Sr4       1.0  0.83100  0.07110  0.39000  1.0000
  Sr  Sr5       1.0  0.83100  0.42900  0.39000  1.0000
  Sr  Sr6       1.0  0.34600  0.25000  0.47100  1.0000
  Sr  Sr7       1.0  0.65400  0.75000  0.52900  1.0000
  Sr  Sr8       1.0  0.16900  0.57100  0.61000  1.0000
  Sr  Sr9       1.0  0.16900  0.92900  0.61000  1.0000
  Sr  Sr10      1.0  0.66900  0.57100  0.89000  1.0000
  Sr  Sr11      1.0  0.66900  0.92900  0.89000  1.0000
  Sr  Sr12      1.0  0.15400  0.75000  0.97100  1.0000
