data_image0
_chemical_formula_structural       As4Bi4Cu8O24
_chemical_formula_sum              "As4 Bi4 Cu8 O24"
_cell_length_a       12.136
_cell_length_b       5.25364
_cell_length_c       7.63684
_cell_angle_alpha    90
_cell_angle_beta     90
_cell_angle_gamma    90

_space_group_name_H-M_alt    "P 1"
_space_group_IT_number       1

loop_
  _space_group_symop_operation_xyz
  'x, y, z'

loop_
  _atom_site_type_symbol
  _atom_site_label
  _atom_site_symmetry_multiplicity
  _atom_site_fract_x
  _atom_site_fract_y
  _atom_site_fract_z
  _atom_site_occupancy
  As  As1       1.0  0.12600  0.75000  0.02350  1.0000
  As  As2       1.0  0.62600  0.75000  0.47700  1.0000
  As  As3       1.0  0.37400  0.25000  0.52300  1.0000
  As  As4       1.0  0.87400  0.25000  0.97700  1.0000
  Bi  Bi1       1.0  0.56500  0.25000  0.14800  1.0000
  Bi  Bi2       1.0  0.06470  0.25000  0.35200  1.0000
  Bi  Bi3       1.0  0.93500  0.75000  0.64800  1.0000
  Bi  Bi4       1.0  0.43500  0.75000  0.85200  1.0000
  Cu  Cu1       1.0  0.30600  0.25000  0.04820  1.0000
  Cu  Cu2       1.0  0.87400  0.75000  0.21800  1.0000
  Cu  Cu3       1.0  0.37400  0.75000  0.28200  1.0000
  Cu  Cu4       1.0  0.80600  0.25000  0.45200  1.0000
  Cu  Cu5       1.0  0.19400  0.75000  0.54800  1.0000
  Cu  Cu6       1.0  0.62600  0.25000  0.71800  1.0000
  Cu  Cu7       1.0  0.12600  0.25000  0.78200  1.0000
  Cu  Cu8       1.0  0.69400  0.75000  0.95200  1.0000
  O   O1        1.0  0.79800  0.50900  0.05770  1.0000
  O   O2        1.0  0.79800  0.99100  0.05770  1.0000
  O   O3        1.0  0.00256  0.25000  0.06500  1.0000
  O   O4        1.0  0.41200  0.00147  0.11300  1.0000
  O   O5        1.0  0.41200  0.49900  0.11300  1.0000
  O   O6        1.0  0.11900  0.75000  0.24600  1.0000
  O   O7        1.0  0.61900  0.75000  0.25400  1.0000
  O   O8        1.0  0.91200  0.00147  0.38700  1.0000
  O   O9        1.0  0.91200  0.49900  0.38700  1.0000
  O   O10       1.0  0.50300  0.25000  0.43500  1.0000
  O   O11       1.0  0.29800  0.50900  0.44200  1.0000
  O   O12       1.0  0.29800  0.99100  0.44200  1.0000
  O   O13       1.0  0.70200  0.00891  0.55800  1.0000
  O   O14       1.0  0.70200  0.49100  0.55800  1.0000
  O   O15       1.0  0.49700  0.75000  0.56500  1.0000
  O   O16       1.0  0.08800  0.50100  0.61300  1.0000
  O   O17       1.0  0.08800  0.99900  0.61300  1.0000
  O   O18       1.0  0.38100  0.25000  0.74600  1.0000
  O   O19       1.0  0.88100  0.25000  0.75400  1.0000
  O   O20       1.0  0.58800  0.50100  0.88700  1.0000
  O   O21       1.0  0.58800  0.99900  0.88700  1.0000
  O   O22       1.0  0.99700  0.75000  0.93500  1.0000
  O   O23       1.0  0.20200  0.00891  0.94200  1.0000
  O   O24       1.0  0.20200  0.49100  0.94200  1.0000
