data_image0
_chemical_formula_structural       As24Ca16
_chemical_formula_sum              "As24 Ca16"
_cell_length_a       11.9933
_cell_length_b       5.84204
_cell_length_c       18.3659
_cell_angle_alpha    90
_cell_angle_beta     131.538
_cell_angle_gamma    90

_space_group_name_H-M_alt    "P 1"
_space_group_IT_number       1

loop_
  _space_group_symop_operation_xyz
  'x, y, z'

loop_
  _atom_site_type_symbol
  _atom_site_label
  _atom_site_symmetry_multiplicity
  _atom_site_fract_x
  _atom_site_fract_y
  _atom_site_fract_z
  _atom_site_occupancy
  As  As1       1.0  0.44200  0.73400  0.07730  1.0000
  As  As2       1.0  0.96600  0.77200  0.07740  1.0000
  As  As3       1.0  0.70300  0.09680  0.15500  1.0000
  As  As4       1.0  0.39100  0.45400  0.15800  1.0000
  As  As5       1.0  0.87700  0.39800  0.16400  1.0000
  As  As6       1.0  0.18400  0.04960  0.17000  1.0000
  As  As7       1.0  0.81600  0.04960  0.33000  1.0000
  As  As8       1.0  0.12300  0.39800  0.33600  1.0000
  As  As9       1.0  0.60900  0.45400  0.34200  1.0000
  As  As10      1.0  0.29700  0.09680  0.34500  1.0000
  As  As11      1.0  0.03390  0.77200  0.42300  1.0000
  As  As12      1.0  0.55800  0.73400  0.42300  1.0000
  As  As13      1.0  0.44200  0.26600  0.57700  1.0000
  As  As14      1.0  0.96600  0.22800  0.57700  1.0000
  As  As15      1.0  0.70300  0.90300  0.65500  1.0000
  As  As16      1.0  0.39100  0.54600  0.65800  1.0000
  As  As17      1.0  0.87700  0.60200  0.66400  1.0000
  As  As18      1.0  0.18400  0.95000  0.67000  1.0000
  As  As19      1.0  0.81600  0.95000  0.83000  1.0000
  As  As20      1.0  0.12300  0.60200  0.83600  1.0000
  As  As21      1.0  0.60900  0.54600  0.84200  1.0000
  As  As22      1.0  0.29700  0.90300  0.84500  1.0000
  As  As23      1.0  0.03390  0.22800  0.92300  1.0000
  As  As24      1.0  0.55800  0.26600  0.92300  1.0000
  Ca  Ca1       1.0  0.62700  0.75300  0.00134  1.0000
  Ca  Ca2       1.0  0.88400  0.25800  0.00828  1.0000
  Ca  Ca3       1.0  0.25700  0.54800  0.24900  1.0000
  Ca  Ca4       1.0  0.50000  0.96200  0.25000  1.0000
  Ca  Ca5       1.0  0.00000  0.91100  0.25000  1.0000
  Ca  Ca6       1.0  0.74300  0.54800  0.25100  1.0000
  Ca  Ca7       1.0  0.11600  0.25800  0.49200  1.0000
  Ca  Ca8       1.0  0.37300  0.75300  0.49900  1.0000
  Ca  Ca9       1.0  0.62700  0.24700  0.50100  1.0000
  Ca  Ca10      1.0  0.88400  0.74200  0.50800  1.0000
  Ca  Ca11      1.0  0.25700  0.45200  0.74900  1.0000
  Ca  Ca12      1.0  0.50000  0.03810  0.75000  1.0000
  Ca  Ca13      1.0  0.00000  0.08890  0.75000  1.0000
  Ca  Ca14      1.0  0.74300  0.45200  0.75100  1.0000
  Ca  Ca15      1.0  0.11600  0.74200  0.99200  1.0000
  Ca  Ca16      1.0  0.37300  0.24700  0.99900  1.0000
