data_image0
_chemical_formula_structural       K2Mo6O28P4
_chemical_formula_sum              "K2 Mo6 O28 P4"
_cell_length_a       8.43608
_cell_length_b       6.38631
_cell_length_c       10.6275
_cell_angle_alpha    90
_cell_angle_beta     112.193
_cell_angle_gamma    90

_space_group_name_H-M_alt    "P 1"
_space_group_IT_number       1

loop_
  _space_group_symop_operation_xyz
  'x, y, z'

loop_
  _atom_site_type_symbol
  _atom_site_label
  _atom_site_symmetry_multiplicity
  _atom_site_fract_x
  _atom_site_fract_y
  _atom_site_fract_z
  _atom_site_occupancy
  K   K1        1.0  0.49000  0.75000  0.25000  1.0000
  K   K2        1.0  0.51000  0.25000  0.75000  1.0000
  Mo  Mo1       1.0  0.24700  0.25000  0.01520  1.0000
  Mo  Mo2       1.0  0.26000  0.25000  0.33500  1.0000
  Mo  Mo3       1.0  0.83900  0.25000  0.38200  1.0000
  Mo  Mo4       1.0  0.16100  0.75000  0.61800  1.0000
  Mo  Mo5       1.0  0.74000  0.75000  0.66500  1.0000
  Mo  Mo6       1.0  0.75300  0.75000  0.98500  1.0000
  O   O1        1.0  0.22400  0.56000  0.02860  1.0000
  O   O2        1.0  0.22400  0.94000  0.02860  1.0000
  O   O3        1.0  0.59200  0.75000  0.04380  1.0000
  O   O4        1.0  0.04530  0.25000  0.11800  1.0000
  O   O5        1.0  0.95900  0.75000  0.16200  1.0000
  O   O6        1.0  0.78100  0.25000  0.18000  1.0000
  O   O7        1.0  0.36800  0.25000  0.20500  1.0000
  O   O8        1.0  0.23000  0.56100  0.30900  1.0000
  O   O9        1.0  0.23000  0.93900  0.30900  1.0000
  O   O10       1.0  0.71800  0.03060  0.37500  1.0000
  O   O11       1.0  0.71800  0.46900  0.37500  1.0000
  O   O12       1.0  0.07290  0.25000  0.39100  1.0000
  O   O13       1.0  0.04150  0.75000  0.41200  1.0000
  O   O14       1.0  0.43900  0.25000  0.48000  1.0000
  O   O15       1.0  0.56100  0.75000  0.52000  1.0000
  O   O16       1.0  0.95900  0.25000  0.58800  1.0000
  O   O17       1.0  0.92700  0.75000  0.60900  1.0000
  O   O18       1.0  0.28200  0.53100  0.62500  1.0000
  O   O19       1.0  0.28200  0.96900  0.62500  1.0000
  O   O20       1.0  0.77000  0.06080  0.69100  1.0000
  O   O21       1.0  0.77000  0.43900  0.69100  1.0000
  O   O22       1.0  0.63200  0.75000  0.79500  1.0000
  O   O23       1.0  0.21900  0.75000  0.82000  1.0000
  O   O24       1.0  0.04080  0.25000  0.83800  1.0000
  O   O25       1.0  0.95500  0.75000  0.88200  1.0000
  O   O26       1.0  0.40800  0.25000  0.95600  1.0000
  O   O27       1.0  0.77600  0.06010  0.97100  1.0000
  O   O28       1.0  0.77600  0.44000  0.97100  1.0000
  P   P1        1.0  0.85000  0.25000  0.06540  1.0000
  P   P2        1.0  0.11200  0.75000  0.29800  1.0000
  P   P3        1.0  0.88800  0.25000  0.70200  1.0000
  P   P4        1.0  0.15000  0.75000  0.93500  1.0000
