data_image0
_chemical_formula_structural       F8H20In4N8
_chemical_formula_sum              "F8 H20 In4 N8"
_cell_length_a       7.62742
_cell_length_b       5.30596
_cell_length_c       8.46057
_cell_angle_alpha    90
_cell_angle_beta     96.2896
_cell_angle_gamma    90

_space_group_name_H-M_alt    "P 1"
_space_group_IT_number       1

loop_
  _space_group_symop_operation_xyz
  'x, y, z'

loop_
  _atom_site_type_symbol
  _atom_site_label
  _atom_site_symmetry_multiplicity
  _atom_site_fract_x
  _atom_site_fract_y
  _atom_site_fract_z
  _atom_site_occupancy
  F   F1        1.0  0.31700  0.16200  0.00483  1.0000
  F   F2        1.0  0.06070  0.80000  0.08640  1.0000
  F   F3        1.0  0.43900  0.30000  0.41400  1.0000
  F   F4        1.0  0.18300  0.66200  0.49500  1.0000
  F   F5        1.0  0.81700  0.33800  0.50500  1.0000
  F   F6        1.0  0.56100  0.70000  0.58600  1.0000
  F   F7        1.0  0.93900  0.20000  0.91400  1.0000
  F   F8        1.0  0.68300  0.83800  0.99500  1.0000
  H   H1        1.0  0.68000  0.49700  0.05670  1.0000
  H   H2        1.0  0.53700  0.27900  0.09920  1.0000
  H   H3        1.0  0.38900  0.86700  0.15400  1.0000
  H   H4        1.0  0.06720  0.49800  0.17000  1.0000
  H   H5        1.0  0.19700  0.25100  0.18700  1.0000
  H   H6        1.0  0.30300  0.75100  0.31300  1.0000
  H   H7        1.0  0.43300  0.99800  0.33000  1.0000
  H   H8        1.0  0.11100  0.36700  0.34600  1.0000
  H   H9        1.0  0.96300  0.77900  0.40100  1.0000
  H   H10       1.0  0.82000  0.99700  0.44300  1.0000
  H   H11       1.0  0.18000  0.00340  0.55700  1.0000
  H   H12       1.0  0.03730  0.22100  0.59900  1.0000
  H   H13       1.0  0.88900  0.63300  0.65400  1.0000
  H   H14       1.0  0.56700  0.00157  0.67000  1.0000
  H   H15       1.0  0.69700  0.24900  0.68700  1.0000
  H   H16       1.0  0.80300  0.74900  0.81300  1.0000
  H   H17       1.0  0.93300  0.50200  0.83000  1.0000
  H   H18       1.0  0.61100  0.13300  0.84600  1.0000
  H   H19       1.0  0.46300  0.72100  0.90100  1.0000
  H   H20       1.0  0.32000  0.50300  0.94300  1.0000
  In  In1       1.0  0.86200  0.07300  0.14800  1.0000
  In  In2       1.0  0.63800  0.57300  0.35200  1.0000
  In  In3       1.0  0.36200  0.42700  0.64800  1.0000
  In  In4       1.0  0.13800  0.92700  0.85200  1.0000
  N   N1        1.0  0.65800  0.35800  0.13800  1.0000
  N   N2        1.0  0.08600  0.32700  0.22700  1.0000
  N   N3        1.0  0.41400  0.82700  0.27300  1.0000
  N   N4        1.0  0.84200  0.85800  0.36200  1.0000
  N   N5        1.0  0.15800  0.14200  0.63800  1.0000
  N   N6        1.0  0.58600  0.17300  0.72700  1.0000
  N   N7        1.0  0.91400  0.67300  0.77300  1.0000
  N   N8        1.0  0.34200  0.64200  0.86200  1.0000
