data_image0
_chemical_formula_structural       As6In4Na6O24
_chemical_formula_sum              "As6 In4 Na6 O24"
_cell_length_a       6.85861
_cell_length_b       9.0992
_cell_length_c       9.0992
_cell_angle_alpha    92.7514
_cell_angle_beta     106.104
_cell_angle_gamma    106.104

_space_group_name_H-M_alt    "P 1"
_space_group_IT_number       1

loop_
  _space_group_symop_operation_xyz
  'x, y, z'

loop_
  _atom_site_type_symbol
  _atom_site_label
  _atom_site_symmetry_multiplicity
  _atom_site_fract_x
  _atom_site_fract_y
  _atom_site_fract_z
  _atom_site_occupancy
  As  As1       1.0  0.13100  0.34200  0.13300  1.0000
  As  As2       1.0  0.75000  0.72300  0.27700  1.0000
  As  As3       1.0  0.63100  0.13300  0.34200  1.0000
  As  As4       1.0  0.36900  0.86700  0.65800  1.0000
  As  As5       1.0  0.25000  0.27700  0.72300  1.0000
  As  As6       1.0  0.86900  0.65800  0.86700  1.0000
  In  In1       1.0  0.64700  0.37600  0.06630  1.0000
  In  In2       1.0  0.14700  0.06630  0.37600  1.0000
  In  In3       1.0  0.85300  0.93400  0.62400  1.0000
  In  In4       1.0  0.35300  0.62400  0.93400  1.0000
  Na  Na1       1.0  0.25000  0.99600  0.00350  1.0000
  Na  Na2       1.0  0.25000  0.72200  0.27800  1.0000
  Na  Na3       1.0  0.00000  0.50000  0.50000  1.0000
  Na  Na4       1.0  0.50000  0.50000  0.50000  1.0000
  Na  Na5       1.0  0.75000  0.27800  0.72200  1.0000
  Na  Na6       1.0  0.75000  0.00350  0.99600  1.0000
  O   O1        1.0  0.10200  0.66800  0.00580  1.0000
  O   O2        1.0  0.33500  0.41000  0.05130  1.0000
  O   O3        1.0  0.61500  0.15600  0.15100  1.0000
  O   O4        1.0  0.11500  0.15100  0.15600  1.0000
  O   O5        1.0  0.52900  0.75600  0.15700  1.0000
  O   O6        1.0  0.97100  0.84300  0.24400  1.0000
  O   O7        1.0  0.77800  0.54100  0.26500  1.0000
  O   O8        1.0  0.17800  0.45400  0.29800  1.0000
  O   O9        1.0  0.39800  0.99400  0.33200  1.0000
  O   O10       1.0  0.83500  0.05130  0.41000  1.0000
  O   O11       1.0  0.67800  0.29800  0.45400  1.0000
  O   O12       1.0  0.72200  0.73500  0.45900  1.0000
  O   O13       1.0  0.27800  0.26500  0.54100  1.0000
  O   O14       1.0  0.32200  0.70200  0.54600  1.0000
  O   O15       1.0  0.16500  0.94900  0.59000  1.0000
  O   O16       1.0  0.60200  0.00580  0.66800  1.0000
  O   O17       1.0  0.82200  0.54600  0.70200  1.0000
  O   O18       1.0  0.22200  0.45900  0.73500  1.0000
  O   O19       1.0  0.02950  0.15700  0.75600  1.0000
  O   O20       1.0  0.47100  0.24400  0.84300  1.0000
  O   O21       1.0  0.88500  0.84900  0.84400  1.0000
  O   O22       1.0  0.38500  0.84400  0.84900  1.0000
  O   O23       1.0  0.66500  0.59000  0.94900  1.0000
  O   O24       1.0  0.89800  0.33200  0.99400  1.0000
