data_image0
_chemical_formula_structural       Dy8Mn12Si20
_chemical_formula_sum              "Dy8 Mn12 Si20"
_cell_length_a       10.5606
_cell_length_b       10.5606
_cell_length_c       5.41589
_cell_angle_alpha    90
_cell_angle_beta     90
_cell_angle_gamma    90

_space_group_name_H-M_alt    "P 1"
_space_group_IT_number       1

loop_
  _space_group_symop_operation_xyz
  'x, y, z'

loop_
  _atom_site_type_symbol
  _atom_site_label
  _atom_site_symmetry_multiplicity
  _atom_site_fract_x
  _atom_site_fract_y
  _atom_site_fract_z
  _atom_site_occupancy
  Dy  Dy1       1.0  0.76400  0.07560  0.00000  1.0000
  Dy  Dy2       1.0  0.07560  0.23600  0.00000  1.0000
  Dy  Dy3       1.0  0.92400  0.76400  0.00000  1.0000
  Dy  Dy4       1.0  0.23600  0.92400  0.00000  1.0000
  Dy  Dy5       1.0  0.57600  0.26400  0.50000  1.0000
  Dy  Dy6       1.0  0.26400  0.42400  0.50000  1.0000
  Dy  Dy7       1.0  0.73600  0.57600  0.50000  1.0000
  Dy  Dy8       1.0  0.42400  0.73600  0.50000  1.0000
  Mn  Mn1       1.0  0.37900  0.35500  0.00000  1.0000
  Mn  Mn2       1.0  0.64500  0.37900  0.00000  1.0000
  Mn  Mn3       1.0  0.35500  0.62100  0.00000  1.0000
  Mn  Mn4       1.0  0.62100  0.64500  0.00000  1.0000
  Mn  Mn5       1.0  0.50000  0.00000  0.25000  1.0000
  Mn  Mn6       1.0  0.00000  0.50000  0.25000  1.0000
  Mn  Mn7       1.0  0.14500  0.12100  0.50000  1.0000
  Mn  Mn8       1.0  0.87900  0.14500  0.50000  1.0000
  Mn  Mn9       1.0  0.12100  0.85500  0.50000  1.0000
  Mn  Mn10      1.0  0.85500  0.87900  0.50000  1.0000
  Mn  Mn11      1.0  0.50000  0.00000  0.75000  1.0000
  Mn  Mn12      1.0  0.00000  0.50000  0.75000  1.0000
  Si  Si1       1.0  0.52400  0.18500  0.00000  1.0000
  Si  Si2       1.0  0.18500  0.47600  0.00000  1.0000
  Si  Si3       1.0  0.81500  0.52400  0.00000  1.0000
  Si  Si4       1.0  0.47600  0.81500  0.00000  1.0000
  Si  Si5       1.0  0.50000  0.50000  0.24200  1.0000
  Si  Si6       1.0  0.32500  0.17500  0.25000  1.0000
  Si  Si7       1.0  0.82500  0.32500  0.25000  1.0000
  Si  Si8       1.0  0.17500  0.67500  0.25000  1.0000
  Si  Si9       1.0  0.67500  0.82500  0.25000  1.0000
  Si  Si10      1.0  0.00000  0.00000  0.25800  1.0000
  Si  Si11      1.0  0.68500  0.02390  0.50000  1.0000
  Si  Si12      1.0  0.02390  0.31500  0.50000  1.0000
  Si  Si13      1.0  0.97600  0.68500  0.50000  1.0000
  Si  Si14      1.0  0.31500  0.97600  0.50000  1.0000
  Si  Si15      1.0  0.00000  0.00000  0.74200  1.0000
  Si  Si16      1.0  0.32500  0.17500  0.75000  1.0000
  Si  Si17      1.0  0.82500  0.32500  0.75000  1.0000
  Si  Si18      1.0  0.17500  0.67500  0.75000  1.0000
  Si  Si19      1.0  0.67500  0.82500  0.75000  1.0000
  Si  Si20      1.0  0.50000  0.50000  0.75800  1.0000
