data_image0
_chemical_formula_structural       Bi4O24P4Zn8
_chemical_formula_sum              "Bi4 O24 P4 Zn8"
_cell_length_a       11.8382
_cell_length_b       5.28593
_cell_length_c       7.83326
_cell_angle_alpha    90
_cell_angle_beta     90
_cell_angle_gamma    90

_space_group_name_H-M_alt    "P 1"
_space_group_IT_number       1

loop_
  _space_group_symop_operation_xyz
  'x, y, z'

loop_
  _atom_site_type_symbol
  _atom_site_label
  _atom_site_symmetry_multiplicity
  _atom_site_fract_x
  _atom_site_fract_y
  _atom_site_fract_z
  _atom_site_occupancy
  Bi  Bi1       1.0  0.10200  0.25000  0.01380  1.0000
  Bi  Bi2       1.0  0.60200  0.25000  0.48600  1.0000
  Bi  Bi3       1.0  0.39800  0.75000  0.51400  1.0000
  Bi  Bi4       1.0  0.89800  0.75000  0.98600  1.0000
  O   O1        1.0  0.62400  0.00626  0.00418  1.0000
  O   O2        1.0  0.62400  0.49400  0.00418  1.0000
  O   O3        1.0  0.20700  0.75000  0.10500  1.0000
  O   O4        1.0  0.99400  0.00241  0.17200  1.0000
  O   O5        1.0  0.99400  0.49800  0.17200  1.0000
  O   O6        1.0  0.74200  0.25000  0.21100  1.0000
  O   O7        1.0  0.24200  0.25000  0.28900  1.0000
  O   O8        1.0  0.49400  0.00241  0.32800  1.0000
  O   O9        1.0  0.49400  0.49800  0.32800  1.0000
  O   O10       1.0  0.70700  0.75000  0.39500  1.0000
  O   O11       1.0  0.12400  0.00626  0.49600  1.0000
  O   O12       1.0  0.12400  0.49400  0.49600  1.0000
  O   O13       1.0  0.87600  0.50600  0.50400  1.0000
  O   O14       1.0  0.87600  0.99400  0.50400  1.0000
  O   O15       1.0  0.29300  0.25000  0.60500  1.0000
  O   O16       1.0  0.50600  0.50200  0.67200  1.0000
  O   O17       1.0  0.50600  0.99800  0.67200  1.0000
  O   O18       1.0  0.75800  0.75000  0.71100  1.0000
  O   O19       1.0  0.25800  0.75000  0.78900  1.0000
  O   O20       1.0  0.00611  0.50200  0.82800  1.0000
  O   O21       1.0  0.00611  0.99800  0.82800  1.0000
  O   O22       1.0  0.79300  0.25000  0.89500  1.0000
  O   O23       1.0  0.37600  0.50600  0.99600  1.0000
  O   O24       1.0  0.37600  0.99400  0.99600  1.0000
  P   P1        1.0  0.69700  0.25000  0.02510  1.0000
  P   P2        1.0  0.19700  0.25000  0.47500  1.0000
  P   P3        1.0  0.80300  0.75000  0.52500  1.0000
  P   P4        1.0  0.30300  0.75000  0.97500  1.0000
  Zn  Zn1       1.0  0.39800  0.25000  0.19600  1.0000
  Zn  Zn2       1.0  0.59000  0.75000  0.19900  1.0000
  Zn  Zn3       1.0  0.09040  0.75000  0.30100  1.0000
  Zn  Zn4       1.0  0.89800  0.25000  0.30400  1.0000
  Zn  Zn5       1.0  0.10200  0.75000  0.69600  1.0000
  Zn  Zn6       1.0  0.91000  0.25000  0.69900  1.0000
  Zn  Zn7       1.0  0.41000  0.25000  0.80100  1.0000
  Zn  Zn8       1.0  0.60200  0.75000  0.80400  1.0000
