data_image0
_chemical_formula_structural       In4Na6O24P6
_chemical_formula_sum              "In4 Na6 O24 P6"
_cell_length_a       6.58802
_cell_length_b       8.88135
_cell_length_c       8.88135
_cell_angle_alpha    91.6743
_cell_angle_beta     106.484
_cell_angle_gamma    106.484

_space_group_name_H-M_alt    "P 1"
_space_group_IT_number       1

loop_
  _space_group_symop_operation_xyz
  'x, y, z'

loop_
  _atom_site_type_symbol
  _atom_site_label
  _atom_site_symmetry_multiplicity
  _atom_site_fract_x
  _atom_site_fract_y
  _atom_site_fract_z
  _atom_site_occupancy
  In  In1       1.0  0.65700  0.38200  0.07160  1.0000
  In  In2       1.0  0.15700  0.07160  0.38200  1.0000
  In  In3       1.0  0.84300  0.92800  0.61800  1.0000
  In  In4       1.0  0.34300  0.61800  0.92800  1.0000
  Na  Na1       1.0  0.75000  0.99100  0.00864  1.0000
  Na  Na2       1.0  0.25000  0.72300  0.27700  1.0000
  Na  Na3       1.0  0.00000  0.50000  0.50000  1.0000
  Na  Na4       1.0  0.50000  0.50000  0.50000  1.0000
  Na  Na5       1.0  0.75000  0.27700  0.72300  1.0000
  Na  Na6       1.0  0.25000  0.00864  0.99100  1.0000
  O   O1        1.0  0.91700  0.33200  0.00277  1.0000
  O   O2        1.0  0.33200  0.41000  0.06760  1.0000
  O   O3        1.0  0.54300  0.74900  0.15300  1.0000
  O   O4        1.0  0.12300  0.16300  0.15800  1.0000
  O   O5        1.0  0.62300  0.15800  0.16300  1.0000
  O   O6        1.0  0.95700  0.84700  0.25100  1.0000
  O   O7        1.0  0.78500  0.56100  0.26100  1.0000
  O   O8        1.0  0.16400  0.43700  0.28800  1.0000
  O   O9        1.0  0.41700  0.00277  0.33200  1.0000
  O   O10       1.0  0.83200  0.06760  0.41000  1.0000
  O   O11       1.0  0.66400  0.28800  0.43700  1.0000
  O   O12       1.0  0.71500  0.73900  0.43900  1.0000
  O   O13       1.0  0.28500  0.26100  0.56100  1.0000
  O   O14       1.0  0.33600  0.71200  0.56300  1.0000
  O   O15       1.0  0.16800  0.93200  0.59000  1.0000
  O   O16       1.0  0.58300  0.99700  0.66800  1.0000
  O   O17       1.0  0.83600  0.56300  0.71200  1.0000
  O   O18       1.0  0.21500  0.43900  0.73900  1.0000
  O   O19       1.0  0.04260  0.15300  0.74900  1.0000
  O   O20       1.0  0.37700  0.84200  0.83700  1.0000
  O   O21       1.0  0.87700  0.83700  0.84200  1.0000
  O   O22       1.0  0.45700  0.25100  0.84700  1.0000
  O   O23       1.0  0.66800  0.59000  0.93200  1.0000
  O   O24       1.0  0.08260  0.66800  0.99700  1.0000
  P   P1        1.0  0.13400  0.34000  0.13500  1.0000
  P   P2        1.0  0.75000  0.72600  0.27400  1.0000
  P   P3        1.0  0.63400  0.13500  0.34000  1.0000
  P   P4        1.0  0.36600  0.86500  0.66000  1.0000
  P   P5        1.0  0.25000  0.27400  0.72600  1.0000
  P   P6        1.0  0.86600  0.66000  0.86500  1.0000
