data_image0
_chemical_formula_structural       Ce4H28Mg8
_chemical_formula_sum              "Ce4 H28 Mg8"
_cell_length_a       6.26327
_cell_length_b       6.26327
_cell_length_c       9.41637
_cell_angle_alpha    90
_cell_angle_beta     90
_cell_angle_gamma    90

_space_group_name_H-M_alt    "P 1"
_space_group_IT_number       1

loop_
  _space_group_symop_operation_xyz
  'x, y, z'

loop_
  _atom_site_type_symbol
  _atom_site_label
  _atom_site_symmetry_multiplicity
  _atom_site_fract_x
  _atom_site_fract_y
  _atom_site_fract_z
  _atom_site_occupancy
  Ce  Ce1       1.0  0.27300  0.27300  0.00000  1.0000
  Ce  Ce2       1.0  0.22700  0.77300  0.25000  1.0000
  Ce  Ce3       1.0  0.72700  0.72700  0.50000  1.0000
  Ce  Ce4       1.0  0.77300  0.22700  0.75000  1.0000
  H   H1        1.0  0.76000  0.76000  0.00000  1.0000
  H   H2        1.0  0.66300  0.19500  0.00397  1.0000
  H   H3        1.0  0.43100  0.93700  0.07250  1.0000
  H   H4        1.0  0.46800  0.53700  0.12100  1.0000
  H   H5        1.0  0.03220  0.03730  0.12900  1.0000
  H   H6        1.0  0.06870  0.43700  0.17700  1.0000
  H   H7        1.0  0.83700  0.69500  0.24600  1.0000
  H   H8        1.0  0.74000  0.26000  0.25000  1.0000
  H   H9        1.0  0.30500  0.16300  0.25400  1.0000
  H   H10       1.0  0.56300  0.93100  0.32300  1.0000
  H   H11       1.0  0.96300  0.96800  0.37100  1.0000
  H   H12       1.0  0.46300  0.53200  0.37900  1.0000
  H   H13       1.0  0.06310  0.56900  0.42700  1.0000
  H   H14       1.0  0.80500  0.33700  0.49600  1.0000
  H   H15       1.0  0.24000  0.24000  0.50000  1.0000
  H   H16       1.0  0.33700  0.80500  0.50400  1.0000
  H   H17       1.0  0.56900  0.06310  0.57300  1.0000
  H   H18       1.0  0.53200  0.46300  0.62100  1.0000
  H   H19       1.0  0.96800  0.96300  0.62900  1.0000
  H   H20       1.0  0.93100  0.56300  0.67700  1.0000
  H   H21       1.0  0.16300  0.30500  0.74600  1.0000
  H   H22       1.0  0.26000  0.74000  0.75000  1.0000
  H   H23       1.0  0.69500  0.83700  0.75400  1.0000
  H   H24       1.0  0.43700  0.06870  0.82300  1.0000
  H   H25       1.0  0.03730  0.03220  0.87100  1.0000
  H   H26       1.0  0.53700  0.46800  0.87900  1.0000
  H   H27       1.0  0.93700  0.43100  0.92700  1.0000
  H   H28       1.0  0.19500  0.66300  0.99600  1.0000
  Mg  Mg1       1.0  0.76300  0.47500  0.09990  1.0000
  Mg  Mg2       1.0  0.73700  0.97500  0.15000  1.0000
  Mg  Mg3       1.0  0.02460  0.26300  0.35000  1.0000
  Mg  Mg4       1.0  0.52500  0.23700  0.40000  1.0000
  Mg  Mg5       1.0  0.23700  0.52500  0.60000  1.0000
  Mg  Mg6       1.0  0.26300  0.02460  0.65000  1.0000
  Mg  Mg7       1.0  0.97500  0.73700  0.85000  1.0000
  Mg  Mg8       1.0  0.47500  0.76300  0.90000  1.0000
