data_image0
_chemical_formula_structural       N22Si12Sm6
_chemical_formula_sum              "N22 Si12 Sm6"
_cell_length_a       10.0014
_cell_length_b       10.0014
_cell_length_c       4.85046
_cell_angle_alpha    90
_cell_angle_beta     90
_cell_angle_gamma    90

_space_group_name_H-M_alt    "P 1"
_space_group_IT_number       1

loop_
  _space_group_symop_operation_xyz
  'x, y, z'

loop_
  _atom_site_type_symbol
  _atom_site_label
  _atom_site_symmetry_multiplicity
  _atom_site_fract_x
  _atom_site_fract_y
  _atom_site_fract_z
  _atom_site_occupancy
  N   N1        1.0  0.50000  0.00000  0.08040  1.0000
  N   N2        1.0  0.00000  0.50000  0.08040  1.0000
  N   N3        1.0  0.22600  0.07720  0.17700  1.0000
  N   N4        1.0  0.92300  0.22600  0.17700  1.0000
  N   N5        1.0  0.42300  0.27400  0.17700  1.0000
  N   N6        1.0  0.72600  0.42300  0.17700  1.0000
  N   N7        1.0  0.27400  0.57700  0.17700  1.0000
  N   N8        1.0  0.57700  0.72600  0.17700  1.0000
  N   N9        1.0  0.07720  0.77400  0.17700  1.0000
  N   N10       1.0  0.77400  0.92300  0.17700  1.0000
  N   N11       1.0  0.81900  0.08040  0.64900  1.0000
  N   N12       1.0  0.08040  0.18100  0.64900  1.0000
  N   N13       1.0  0.58000  0.31900  0.64900  1.0000
  N   N14       1.0  0.31900  0.42000  0.64900  1.0000
  N   N15       1.0  0.68100  0.58000  0.64900  1.0000
  N   N16       1.0  0.42000  0.68100  0.64900  1.0000
  N   N17       1.0  0.92000  0.81900  0.64900  1.0000
  N   N18       1.0  0.18100  0.92000  0.64900  1.0000
  N   N19       1.0  0.34900  0.15100  0.69400  1.0000
  N   N20       1.0  0.84900  0.34900  0.69400  1.0000
  N   N21       1.0  0.15100  0.65100  0.69400  1.0000
  N   N22       1.0  0.65100  0.84900  0.69400  1.0000
  Si  Si1       1.0  0.38200  0.11800  0.04340  1.0000
  Si  Si2       1.0  0.88200  0.38200  0.04340  1.0000
  Si  Si3       1.0  0.11800  0.61800  0.04340  1.0000
  Si  Si4       1.0  0.61800  0.88200  0.04340  1.0000
  Si  Si5       1.0  0.20900  0.07900  0.53200  1.0000
  Si  Si6       1.0  0.92100  0.20900  0.53200  1.0000
  Si  Si7       1.0  0.42100  0.29100  0.53200  1.0000
  Si  Si8       1.0  0.70900  0.42100  0.53200  1.0000
  Si  Si9       1.0  0.29100  0.57900  0.53200  1.0000
  Si  Si10      1.0  0.57900  0.70900  0.53200  1.0000
  Si  Si11      1.0  0.07900  0.79100  0.53200  1.0000
  Si  Si12      1.0  0.79100  0.92100  0.53200  1.0000
  Sm  Sm1       1.0  0.68200  0.18200  0.00124  1.0000
  Sm  Sm2       1.0  0.18200  0.31800  0.00124  1.0000
  Sm  Sm3       1.0  0.81800  0.68200  0.00124  1.0000
  Sm  Sm4       1.0  0.31800  0.81800  0.00124  1.0000
  Sm  Sm5       1.0  0.00000  0.00000  0.98200  1.0000
  Sm  Sm6       1.0  0.50000  0.50000  0.98200  1.0000
