data_image0
_chemical_formula_structural       B6Ca2H14O18
_chemical_formula_sum              "B6 Ca2 H14 O18"
_cell_length_a       6.47087
_cell_length_b       8.06534
_cell_length_c       6.33641
_cell_angle_alpha    90.3811
_cell_angle_beta     102.588
_cell_angle_gamma    86.6638

_space_group_name_H-M_alt    "P 1"
_space_group_IT_number       1

loop_
  _space_group_symop_operation_xyz
  'x, y, z'

loop_
  _atom_site_type_symbol
  _atom_site_label
  _atom_site_symmetry_multiplicity
  _atom_site_fract_x
  _atom_site_fract_y
  _atom_site_fract_z
  _atom_site_occupancy
  B   B1        1.0  0.29500  0.63300  0.16600  1.0000
  B   B2        1.0  0.95600  0.74000  0.30000  1.0000
  B   B3        1.0  0.32400  0.80500  0.49400  1.0000
  B   B4        1.0  0.67600  0.19500  0.50600  1.0000
  B   B5        1.0  0.04350  0.26000  0.70000  1.0000
  B   B6        1.0  0.70500  0.36700  0.83400  1.0000
  Ca  Ca1       1.0  0.01140  0.37600  0.24600  1.0000
  Ca  Ca2       1.0  0.98900  0.62400  0.75400  1.0000
  H   H1        1.0  0.16900  0.09800  0.05410  1.0000
  H   H2        1.0  0.62600  0.20900  0.06390  1.0000
  H   H3        1.0  0.46600  0.41200  0.14800  1.0000
  H   H4        1.0  0.04720  0.02310  0.22600  1.0000
  H   H5        1.0  0.73300  0.94800  0.26400  1.0000
  H   H6        1.0  0.41200  0.09530  0.32200  1.0000
  H   H7        1.0  0.67100  0.66100  0.35900  1.0000
  H   H8        1.0  0.32900  0.33900  0.64100  1.0000
  H   H9        1.0  0.58800  0.90500  0.67800  1.0000
  H   H10       1.0  0.26700  0.05160  0.73600  1.0000
  H   H11       1.0  0.95300  0.97700  0.77400  1.0000
  H   H12       1.0  0.53400  0.58800  0.85200  1.0000
  H   H13       1.0  0.37400  0.79100  0.93600  1.0000
  H   H14       1.0  0.83100  0.90200  0.94600  1.0000
  O   O1        1.0  0.65900  0.32500  0.04650  1.0000
  O   O2        1.0  0.06260  0.65700  0.14500  1.0000
  O   O3        1.0  0.84000  0.89000  0.19400  1.0000
  O   O4        1.0  0.34400  0.45700  0.20800  1.0000
  O   O5        1.0  0.15800  0.10100  0.21200  1.0000
  O   O6        1.0  0.41600  0.74000  0.33500  1.0000
  O   O7        1.0  0.56900  0.10200  0.33700  1.0000
  O   O8        1.0  0.82300  0.62200  0.37800  1.0000
  O   O9        1.0  0.11500  0.78600  0.49600  1.0000
  O   O10       1.0  0.88500  0.21400  0.50400  1.0000
  O   O11       1.0  0.17700  0.37800  0.62200  1.0000
  O   O12       1.0  0.43100  0.89800  0.66300  1.0000
  O   O13       1.0  0.58400  0.26000  0.66500  1.0000
  O   O14       1.0  0.84200  0.89900  0.78800  1.0000
  O   O15       1.0  0.65600  0.54300  0.79200  1.0000
  O   O16       1.0  0.16000  0.11000  0.80600  1.0000
  O   O17       1.0  0.93700  0.34300  0.85500  1.0000
  O   O18       1.0  0.34100  0.67500  0.95400  1.0000
