data_image0
_chemical_formula_structural       Fe4Na4O24Se8
_chemical_formula_sum              "Fe4 Na4 O24 Se8"
_cell_length_a       12.3511
_cell_length_b       5.37629
_cell_length_c       7.85007
_cell_angle_alpha    90
_cell_angle_beta     89.9998
_cell_angle_gamma    90

_space_group_name_H-M_alt    "P 1"
_space_group_IT_number       1

loop_
  _space_group_symop_operation_xyz
  'x, y, z'

loop_
  _atom_site_type_symbol
  _atom_site_label
  _atom_site_symmetry_multiplicity
  _atom_site_fract_x
  _atom_site_fract_y
  _atom_site_fract_z
  _atom_site_occupancy
  Fe  Fe1       1.0  0.90200  0.75000  0.20500  1.0000
  Fe  Fe2       1.0  0.40200  0.75000  0.29500  1.0000
  Fe  Fe3       1.0  0.59800  0.25000  0.70500  1.0000
  Fe  Fe4       1.0  0.09750  0.25000  0.79500  1.0000
  Na  Na1       1.0  0.61500  0.75000  0.00948  1.0000
  Na  Na2       1.0  0.11500  0.75000  0.49100  1.0000
  Na  Na3       1.0  0.88500  0.25000  0.50900  1.0000
  Na  Na4       1.0  0.38500  0.25000  0.99100  1.0000
  O   O1        1.0  0.01750  0.25000  0.01130  1.0000
  O   O2        1.0  0.34100  0.75000  0.05790  1.0000
  O   O3        1.0  0.78900  0.50000  0.13200  1.0000
  O   O4        1.0  0.78900  0.00000  0.13200  1.0000
  O   O5        1.0  0.50500  0.00512  0.19500  1.0000
  O   O6        1.0  0.50500  0.49500  0.19500  1.0000
  O   O7        1.0  0.00541  0.00511  0.30500  1.0000
  O   O8        1.0  0.00541  0.49500  0.30500  1.0000
  O   O9        1.0  0.28900  0.50000  0.36800  1.0000
  O   O10       1.0  0.28900  0.00000  0.36800  1.0000
  O   O11       1.0  0.84100  0.75000  0.44200  1.0000
  O   O12       1.0  0.51800  0.25000  0.48900  1.0000
  O   O13       1.0  0.48200  0.75000  0.51100  1.0000
  O   O14       1.0  0.15900  0.25000  0.55800  1.0000
  O   O15       1.0  0.71100  0.00046  0.63200  1.0000
  O   O16       1.0  0.71100  0.50000  0.63200  1.0000
  O   O17       1.0  0.99500  0.50500  0.69500  1.0000
  O   O18       1.0  0.99500  0.99500  0.69500  1.0000
  O   O19       1.0  0.49500  0.50500  0.80500  1.0000
  O   O20       1.0  0.49500  0.99500  0.80500  1.0000
  O   O21       1.0  0.21100  0.00045  0.86800  1.0000
  O   O22       1.0  0.21100  0.50000  0.86800  1.0000
  O   O23       1.0  0.65900  0.25000  0.94200  1.0000
  O   O24       1.0  0.98200  0.75000  0.98900  1.0000
  Se  Se1       1.0  0.20500  0.75000  0.00645  1.0000
  Se  Se2       1.0  0.07380  0.25000  0.21200  1.0000
  Se  Se3       1.0  0.57400  0.25000  0.28800  1.0000
  Se  Se4       1.0  0.70500  0.75000  0.49400  1.0000
  Se  Se5       1.0  0.29500  0.25000  0.50600  1.0000
  Se  Se6       1.0  0.42600  0.75000  0.71200  1.0000
  Se  Se7       1.0  0.92600  0.75000  0.78800  1.0000
  Se  Se8       1.0  0.79500  0.25000  0.99400  1.0000
