data_image0
_chemical_formula_structural       Br20K8N4O4Ru4
_chemical_formula_sum              "Br20 K8 N4 O4 Ru4"
_cell_length_a       7.30013
_cell_length_b       10.8856
_cell_length_c       14.0486
_cell_angle_alpha    90
_cell_angle_beta     90
_cell_angle_gamma    90

_space_group_name_H-M_alt    "P 1"
_space_group_IT_number       1

loop_
  _space_group_symop_operation_xyz
  'x, y, z'

loop_
  _atom_site_type_symbol
  _atom_site_label
  _atom_site_symmetry_multiplicity
  _atom_site_fract_x
  _atom_site_fract_y
  _atom_site_fract_z
  _atom_site_occupancy
  Br  Br1       1.0  0.46400  0.25000  0.00246  1.0000
  Br  Br2       1.0  0.18800  0.01590  0.11300  1.0000
  Br  Br3       1.0  0.18800  0.48400  0.11300  1.0000
  Br  Br4       1.0  0.91100  0.25000  0.22600  1.0000
  Br  Br5       1.0  0.89000  0.75000  0.24800  1.0000
  Br  Br6       1.0  0.39000  0.25000  0.25200  1.0000
  Br  Br7       1.0  0.41100  0.75000  0.27400  1.0000
  Br  Br8       1.0  0.68800  0.51600  0.38700  1.0000
  Br  Br9       1.0  0.68800  0.98400  0.38700  1.0000
  Br  Br10      1.0  0.96400  0.75000  0.49800  1.0000
  Br  Br11      1.0  0.03600  0.25000  0.50200  1.0000
  Br  Br12      1.0  0.31200  0.01590  0.61300  1.0000
  Br  Br13      1.0  0.31200  0.48400  0.61300  1.0000
  Br  Br14      1.0  0.58900  0.25000  0.72600  1.0000
  Br  Br15      1.0  0.61000  0.75000  0.74800  1.0000
  Br  Br16      1.0  0.11000  0.25000  0.75200  1.0000
  Br  Br17      1.0  0.08890  0.75000  0.77400  1.0000
  Br  Br18      1.0  0.81200  0.51600  0.88700  1.0000
  Br  Br19      1.0  0.81200  0.98400  0.88700  1.0000
  Br  Br20      1.0  0.53600  0.75000  0.99800  1.0000
  K   K1        1.0  0.65400  0.00038  0.14400  1.0000
  K   K2        1.0  0.65400  0.50000  0.14400  1.0000
  K   K3        1.0  0.15400  0.50000  0.35600  1.0000
  K   K4        1.0  0.15400  0.00000  0.35600  1.0000
  K   K5        1.0  0.84600  0.00038  0.64400  1.0000
  K   K6        1.0  0.84600  0.50000  0.64400  1.0000
  K   K7        1.0  0.34600  0.50000  0.85600  1.0000
  K   K8        1.0  0.34600  0.00000  0.85600  1.0000
  N   N1        1.0  0.02250  0.25000  0.01540  1.0000
  N   N2        1.0  0.52300  0.75000  0.48500  1.0000
  N   N3        1.0  0.47700  0.25000  0.51500  1.0000
  N   N4        1.0  0.97700  0.75000  0.98500  1.0000
  O   O1        1.0  0.09260  0.75000  0.04230  1.0000
  O   O2        1.0  0.59300  0.25000  0.45800  1.0000
  O   O3        1.0  0.40700  0.75000  0.54200  1.0000
  O   O4        1.0  0.90700  0.25000  0.95800  1.0000
  Ru  Ru1       1.0  0.18000  0.25000  0.10900  1.0000
  Ru  Ru2       1.0  0.68000  0.75000  0.39100  1.0000
  Ru  Ru3       1.0  0.32000  0.25000  0.60900  1.0000
  Ru  Ru4       1.0  0.82000  0.75000  0.89100  1.0000
