data_image0
_chemical_formula_structural       O26P8Sr6
_chemical_formula_sum              "O26 P8 Sr6"
_cell_length_a       7.23517
_cell_length_b       7.66926
_cell_length_c       10.1162
_cell_angle_alpha    102.111
_cell_angle_beta     103.649
_cell_angle_gamma    94.4236

_space_group_name_H-M_alt    "P 1"
_space_group_IT_number       1

loop_
  _space_group_symop_operation_xyz
  'x, y, z'

loop_
  _atom_site_type_symbol
  _atom_site_label
  _atom_site_symmetry_multiplicity
  _atom_site_fract_x
  _atom_site_fract_y
  _atom_site_fract_z
  _atom_site_occupancy
  O   O1        1.0  0.73500  0.59900  0.00565  1.0000
  O   O2        1.0  0.00016  0.19300  0.03230  1.0000
  O   O3        1.0  0.33800  0.10100  0.04960  1.0000
  O   O4        1.0  0.38300  0.72200  0.10700  1.0000
  O   O5        1.0  0.87500  0.88900  0.18400  1.0000
  O   O6        1.0  0.54300  0.48300  0.21800  1.0000
  O   O7        1.0  0.20100  0.53700  0.22300  1.0000
  O   O8        1.0  0.93000  0.48500  0.32000  1.0000
  O   O9        1.0  0.59400  0.12700  0.33000  1.0000
  O   O10       1.0  0.18500  0.27500  0.35500  1.0000
  O   O11       1.0  0.47300  0.82100  0.42500  1.0000
  O   O12       1.0  0.15000  0.89200  0.45600  1.0000
  O   O13       1.0  0.26500  0.59100  0.48600  1.0000
  O   O14       1.0  0.73500  0.40900  0.51400  1.0000
  O   O15       1.0  0.85000  0.10800  0.54400  1.0000
  O   O16       1.0  0.52700  0.17900  0.57500  1.0000
  O   O17       1.0  0.81500  0.72500  0.64500  1.0000
  O   O18       1.0  0.40600  0.87300  0.67000  1.0000
  O   O19       1.0  0.06980  0.51500  0.68000  1.0000
  O   O20       1.0  0.79900  0.46300  0.77700  1.0000
  O   O21       1.0  0.45700  0.51700  0.78200  1.0000
  O   O22       1.0  0.12500  0.11100  0.81600  1.0000
  O   O23       1.0  0.61700  0.27800  0.89300  1.0000
  O   O24       1.0  0.66200  0.89900  0.95000  1.0000
  O   O25       1.0  0.00000  0.80700  0.96800  1.0000
  O   O26       1.0  0.26500  0.40100  0.99400  1.0000
  P   P1        1.0  0.82500  0.81100  0.02600  1.0000
  P   P2        1.0  0.36500  0.54000  0.14000  1.0000
  P   P3        1.0  0.13900  0.46000  0.34500  1.0000
  P   P4        1.0  0.66900  0.19200  0.48800  1.0000
  P   P5        1.0  0.33100  0.80800  0.51200  1.0000
  P   P6        1.0  0.86100  0.54000  0.65500  1.0000
  P   P7        1.0  0.63500  0.46000  0.86000  1.0000
  P   P8        1.0  0.17500  0.18900  0.97400  1.0000
  Sr  Sr1       1.0  0.70800  0.21600  0.13800  1.0000
  Sr  Sr2       1.0  0.24700  0.97400  0.24000  1.0000
  Sr  Sr3       1.0  0.78500  0.77000  0.37800  1.0000
  Sr  Sr4       1.0  0.21500  0.23000  0.62200  1.0000
  Sr  Sr5       1.0  0.75300  0.02590  0.76000  1.0000
  Sr  Sr6       1.0  0.29200  0.78400  0.86200  1.0000
