data_image0
_chemical_formula_structural       Ga10Na2O24Ti4
_chemical_formula_sum              "Ga10 Na2 O24 Ti4"
_cell_length_a       9.34832
_cell_length_b       15.7688
_cell_length_c       2.99989
_cell_angle_alpha    90
_cell_angle_beta     90
_cell_angle_gamma    90

_space_group_name_H-M_alt    "P 1"
_space_group_IT_number       1

loop_
  _space_group_symop_operation_xyz
  'x, y, z'

loop_
  _atom_site_type_symbol
  _atom_site_label
  _atom_site_symmetry_multiplicity
  _atom_site_fract_x
  _atom_site_fract_y
  _atom_site_fract_z
  _atom_site_occupancy
  Ga  Ga1       1.0  0.00000  0.00000  0.00000  1.0000
  Ga  Ga2       1.0  0.50900  0.19800  0.00000  1.0000
  Ga  Ga3       1.0  0.00947  0.30200  0.00000  1.0000
  Ga  Ga4       1.0  0.50000  0.50000  0.00000  1.0000
  Ga  Ga5       1.0  0.99100  0.69800  0.00000  1.0000
  Ga  Ga6       1.0  0.49100  0.80200  0.00000  1.0000
  Ga  Ga7       1.0  0.80600  0.14700  0.50000  1.0000
  Ga  Ga8       1.0  0.30600  0.35300  0.50000  1.0000
  Ga  Ga9       1.0  0.69400  0.64700  0.50000  1.0000
  Ga  Ga10      1.0  0.19400  0.85300  0.50000  1.0000
  Na  Na1       1.0  0.50000  0.00000  0.50000  1.0000
  Na  Na2       1.0  0.00000  0.50000  0.50000  1.0000
  O   O1        1.0  0.86300  0.09200  0.00000  1.0000
  O   O2        1.0  0.35700  0.10200  0.00000  1.0000
  O   O3        1.0  0.14200  0.20500  0.00000  1.0000
  O   O4        1.0  0.64200  0.29500  0.00000  1.0000
  O   O5        1.0  0.85700  0.39800  0.00000  1.0000
  O   O6        1.0  0.36300  0.40800  0.00000  1.0000
  O   O7        1.0  0.63700  0.59200  0.00000  1.0000
  O   O8        1.0  0.14300  0.60200  0.00000  1.0000
  O   O9        1.0  0.35800  0.70500  0.00000  1.0000
  O   O10       1.0  0.85800  0.79500  0.00000  1.0000
  O   O11       1.0  0.64300  0.89800  0.00000  1.0000
  O   O12       1.0  0.13700  0.90800  0.00000  1.0000
  O   O13       1.0  0.10600  0.05310  0.50000  1.0000
  O   O14       1.0  0.60800  0.14100  0.50000  1.0000
  O   O15       1.0  0.38800  0.24400  0.50000  1.0000
  O   O16       1.0  0.88800  0.25600  0.50000  1.0000
  O   O17       1.0  0.10800  0.35900  0.50000  1.0000
  O   O18       1.0  0.60600  0.44700  0.50000  1.0000
  O   O19       1.0  0.39400  0.55300  0.50000  1.0000
  O   O20       1.0  0.89200  0.64100  0.50000  1.0000
  O   O21       1.0  0.11200  0.74400  0.50000  1.0000
  O   O22       1.0  0.61200  0.75600  0.50000  1.0000
  O   O23       1.0  0.39200  0.85900  0.50000  1.0000
  O   O24       1.0  0.89400  0.94700  0.50000  1.0000
  Ti  Ti1       1.0  0.23100  0.14300  0.50000  1.0000
  Ti  Ti2       1.0  0.73100  0.35700  0.50000  1.0000
  Ti  Ti3       1.0  0.26900  0.64300  0.50000  1.0000
  Ti  Ti4       1.0  0.76900  0.85700  0.50000  1.0000
