data_image0
_chemical_formula_structural       P16Pt8Si16
_chemical_formula_sum              "P16 Pt8 Si16"
_cell_length_a       6.06475
_cell_length_b       9.60782
_cell_length_c       12.1117
_cell_angle_alpha    90
_cell_angle_beta     103.023
_cell_angle_gamma    90

_space_group_name_H-M_alt    "P 1"
_space_group_IT_number       1

loop_
  _space_group_symop_operation_xyz
  'x, y, z'

loop_
  _atom_site_type_symbol
  _atom_site_label
  _atom_site_symmetry_multiplicity
  _atom_site_fract_x
  _atom_site_fract_y
  _atom_site_fract_z
  _atom_site_occupancy
  P   P1        1.0  0.23500  0.75000  0.06910  1.0000
  P   P2        1.0  0.73500  0.97800  0.07310  1.0000
  P   P3        1.0  0.27200  0.12900  0.10300  1.0000
  P   P4        1.0  0.92900  0.79000  0.13900  1.0000
  P   P5        1.0  0.45200  0.60000  0.32500  1.0000
  P   P6        1.0  0.95400  0.77200  0.32900  1.0000
  P   P7        1.0  0.23900  0.93600  0.39000  1.0000
  P   P8        1.0  0.74900  0.46400  0.41900  1.0000
  P   P9        1.0  0.25100  0.96400  0.58100  1.0000
  P   P10       1.0  0.76100  0.43600  0.61000  1.0000
  P   P11       1.0  0.04560  0.27200  0.67100  1.0000
  P   P12       1.0  0.54800  0.09960  0.67500  1.0000
  P   P13       1.0  0.07140  0.29000  0.86100  1.0000
  P   P14       1.0  0.72800  0.62900  0.89700  1.0000
  P   P15       1.0  0.26500  0.47800  0.92700  1.0000
  P   P16       1.0  0.76500  0.25000  0.93100  1.0000
  Pt  Pt1       1.0  0.39100  0.52000  0.12800  1.0000
  Pt  Pt2       1.0  0.91100  0.20200  0.13600  1.0000
  Pt  Pt3       1.0  0.58700  0.84500  0.35700  1.0000
  Pt  Pt4       1.0  0.09380  0.54000  0.37300  1.0000
  Pt  Pt5       1.0  0.90600  0.04000  0.62700  1.0000
  Pt  Pt6       1.0  0.41300  0.34500  0.64300  1.0000
  Pt  Pt7       1.0  0.08940  0.70200  0.86400  1.0000
  Pt  Pt8       1.0  0.60900  0.02000  0.87200  1.0000
  Si  Si1       1.0  0.74600  0.58600  0.08420  1.0000
  Si  Si2       1.0  0.45300  0.92600  0.16400  1.0000
  Si  Si3       1.0  0.55100  0.29100  0.17000  1.0000
  Si  Si4       1.0  0.04050  0.44200  0.17800  1.0000
  Si  Si5       1.0  0.03460  0.13700  0.33200  1.0000
  Si  Si6       1.0  0.55900  0.26500  0.36100  1.0000
  Si  Si7       1.0  0.75900  0.06730  0.42500  1.0000
  Si  Si8       1.0  0.25200  0.31400  0.43700  1.0000
  Si  Si9       1.0  0.74800  0.81400  0.56300  1.0000
  Si  Si10      1.0  0.24100  0.56700  0.57500  1.0000
  Si  Si11      1.0  0.44100  0.76500  0.63900  1.0000
  Si  Si12      1.0  0.96500  0.63700  0.66800  1.0000
  Si  Si13      1.0  0.96000  0.94200  0.82200  1.0000
  Si  Si14      1.0  0.44900  0.79100  0.83000  1.0000
  Si  Si15      1.0  0.54700  0.42600  0.83600  1.0000
  Si  Si16      1.0  0.25400  0.08580  0.91600  1.0000
