data_image0
_chemical_formula_structural       Pb26Rh8Sr6
_chemical_formula_sum              "Pb26 Rh8 Sr6"
_cell_length_a       10.1953
_cell_length_b       10.1953
_cell_length_c       10.1953
_cell_angle_alpha    90
_cell_angle_beta     90
_cell_angle_gamma    90

_space_group_name_H-M_alt    "P 1"
_space_group_IT_number       1

loop_
  _space_group_symop_operation_xyz
  'x, y, z'

loop_
  _atom_site_type_symbol
  _atom_site_label
  _atom_site_symmetry_multiplicity
  _atom_site_fract_x
  _atom_site_fract_y
  _atom_site_fract_z
  _atom_site_occupancy
  Pb  Pb1       1.0  0.00000  0.00000  0.00000  1.0000
  Pb  Pb2       1.0  0.30300  0.15500  0.00000  1.0000
  Pb  Pb3       1.0  0.69700  0.15500  0.00000  1.0000
  Pb  Pb4       1.0  0.30300  0.84500  0.00000  1.0000
  Pb  Pb5       1.0  0.69700  0.84500  0.00000  1.0000
  Pb  Pb6       1.0  0.00000  0.30300  0.15500  1.0000
  Pb  Pb7       1.0  0.00000  0.69700  0.15500  1.0000
  Pb  Pb8       1.0  0.50000  0.34500  0.19700  1.0000
  Pb  Pb9       1.0  0.50000  0.65500  0.19700  1.0000
  Pb  Pb10      1.0  0.15500  0.00000  0.30300  1.0000
  Pb  Pb11      1.0  0.84500  0.00000  0.30300  1.0000
  Pb  Pb12      1.0  0.19700  0.50000  0.34500  1.0000
  Pb  Pb13      1.0  0.80300  0.50000  0.34500  1.0000
  Pb  Pb14      1.0  0.34500  0.19700  0.50000  1.0000
  Pb  Pb15      1.0  0.65500  0.19700  0.50000  1.0000
  Pb  Pb16      1.0  0.50000  0.50000  0.50000  1.0000
  Pb  Pb17      1.0  0.34500  0.80300  0.50000  1.0000
  Pb  Pb18      1.0  0.65500  0.80300  0.50000  1.0000
  Pb  Pb19      1.0  0.19700  0.50000  0.65500  1.0000
  Pb  Pb20      1.0  0.80300  0.50000  0.65500  1.0000
  Pb  Pb21      1.0  0.15500  0.00000  0.69700  1.0000
  Pb  Pb22      1.0  0.84500  0.00000  0.69700  1.0000
  Pb  Pb23      1.0  0.50000  0.34500  0.80300  1.0000
  Pb  Pb24      1.0  0.50000  0.65500  0.80300  1.0000
  Pb  Pb25      1.0  0.00000  0.30300  0.84500  1.0000
  Pb  Pb26      1.0  0.00000  0.69700  0.84500  1.0000
  Rh  Rh1       1.0  0.25000  0.25000  0.25000  1.0000
  Rh  Rh2       1.0  0.75000  0.25000  0.25000  1.0000
  Rh  Rh3       1.0  0.25000  0.75000  0.25000  1.0000
  Rh  Rh4       1.0  0.75000  0.75000  0.25000  1.0000
  Rh  Rh5       1.0  0.25000  0.25000  0.75000  1.0000
  Rh  Rh6       1.0  0.75000  0.25000  0.75000  1.0000
  Rh  Rh7       1.0  0.25000  0.75000  0.75000  1.0000
  Rh  Rh8       1.0  0.75000  0.75000  0.75000  1.0000
  Sr  Sr1       1.0  0.25000  0.50000  0.00000  1.0000
  Sr  Sr2       1.0  0.75000  0.50000  0.00000  1.0000
  Sr  Sr3       1.0  0.50000  0.00000  0.25000  1.0000
  Sr  Sr4       1.0  0.00000  0.25000  0.50000  1.0000
  Sr  Sr5       1.0  0.00000  0.75000  0.50000  1.0000
  Sr  Sr6       1.0  0.50000  0.00000  0.75000  1.0000
