data_image0
_chemical_formula_structural       Fe6O26P6Sr2
_chemical_formula_sum              "Fe6 O26 P6 Sr2"
_cell_length_a       7.48182
_cell_length_b       6.3609
_cell_length_c       10.3181
_cell_angle_alpha    90
_cell_angle_beta     99.9962
_cell_angle_gamma    90

_space_group_name_H-M_alt    "P 1"
_space_group_IT_number       1

loop_
  _space_group_symop_operation_xyz
  'x, y, z'

loop_
  _atom_site_type_symbol
  _atom_site_label
  _atom_site_symmetry_multiplicity
  _atom_site_fract_x
  _atom_site_fract_y
  _atom_site_fract_z
  _atom_site_occupancy
  Fe  Fe1       1.0  0.21100  0.25000  0.06190  1.0000
  Fe  Fe2       1.0  0.64800  0.25000  0.29800  1.0000
  Fe  Fe3       1.0  0.00000  0.00000  0.50000  1.0000
  Fe  Fe4       1.0  0.00000  0.50000  0.50000  1.0000
  Fe  Fe5       1.0  0.35200  0.75000  0.70200  1.0000
  Fe  Fe6       1.0  0.78900  0.75000  0.93800  1.0000
  O   O1        1.0  0.24500  0.55900  0.07630  1.0000
  O   O2        1.0  0.24500  0.94100  0.07630  1.0000
  O   O3        1.0  0.97400  0.25000  0.10300  1.0000
  O   O4        1.0  0.63800  0.25000  0.10700  1.0000
  O   O5        1.0  0.80200  0.75000  0.12500  1.0000
  O   O6        1.0  0.35200  0.25000  0.24400  1.0000
  O   O7        1.0  0.62900  0.56100  0.28500  1.0000
  O   O8        1.0  0.62900  0.93900  0.28500  1.0000
  O   O9        1.0  0.92700  0.75000  0.36500  1.0000
  O   O10       1.0  0.88000  0.25000  0.40600  1.0000
  O   O11       1.0  0.21100  0.05100  0.41200  1.0000
  O   O12       1.0  0.21100  0.44900  0.41200  1.0000
  O   O13       1.0  0.51300  0.25000  0.46400  1.0000
  O   O14       1.0  0.48700  0.75000  0.53600  1.0000
  O   O15       1.0  0.78900  0.55100  0.58800  1.0000
  O   O16       1.0  0.78900  0.94900  0.58800  1.0000
  O   O17       1.0  0.12000  0.75000  0.59400  1.0000
  O   O18       1.0  0.07310  0.25000  0.63500  1.0000
  O   O19       1.0  0.37100  0.06100  0.71500  1.0000
  O   O20       1.0  0.37100  0.43900  0.71500  1.0000
  O   O21       1.0  0.64800  0.75000  0.75600  1.0000
  O   O22       1.0  0.19800  0.25000  0.87500  1.0000
  O   O23       1.0  0.36200  0.75000  0.89300  1.0000
  O   O24       1.0  0.02600  0.75000  0.89700  1.0000
  O   O25       1.0  0.75500  0.05860  0.92400  1.0000
  O   O26       1.0  0.75500  0.44100  0.92400  1.0000
  P   P1        1.0  0.78200  0.25000  0.01910  1.0000
  P   P2        1.0  0.74600  0.75000  0.26000  1.0000
  P   P3        1.0  0.31700  0.25000  0.38900  1.0000
  P   P4        1.0  0.68300  0.75000  0.61100  1.0000
  P   P5        1.0  0.25400  0.25000  0.74000  1.0000
  P   P6        1.0  0.21800  0.75000  0.98100  1.0000
  Sr  Sr1       1.0  0.32500  0.75000  0.29700  1.0000
  Sr  Sr2       1.0  0.67500  0.25000  0.70300  1.0000
