data_image0
_chemical_formula_structural       Cr4Hg12O16S8
_chemical_formula_sum              "Cr4 Hg12 O16 S8"
_cell_length_a       7.56024
_cell_length_b       14.9109
_cell_length_c       7.50486
_cell_angle_alpha    90
_cell_angle_beta     118.442
_cell_angle_gamma    90

_space_group_name_H-M_alt    "P 1"
_space_group_IT_number       1

loop_
  _space_group_symop_operation_xyz
  'x, y, z'

loop_
  _atom_site_type_symbol
  _atom_site_label
  _atom_site_symmetry_multiplicity
  _atom_site_fract_x
  _atom_site_fract_y
  _atom_site_fract_z
  _atom_site_occupancy
  Cr  Cr1       1.0  0.37900  0.90500  0.10700  1.0000
  Cr  Cr2       1.0  0.62100  0.40500  0.39300  1.0000
  Cr  Cr3       1.0  0.37900  0.59500  0.60700  1.0000
  Cr  Cr4       1.0  0.62100  0.09550  0.89300  1.0000
  Hg  Hg1       1.0  0.89300  0.85700  0.07990  1.0000
  Hg  Hg2       1.0  0.40400  0.66400  0.10600  1.0000
  Hg  Hg3       1.0  0.83300  0.54500  0.12900  1.0000
  Hg  Hg4       1.0  0.16700  0.04460  0.37100  1.0000
  Hg  Hg5       1.0  0.59600  0.16400  0.39400  1.0000
  Hg  Hg6       1.0  0.10700  0.35700  0.42000  1.0000
  Hg  Hg7       1.0  0.89300  0.64300  0.58000  1.0000
  Hg  Hg8       1.0  0.40400  0.83600  0.60600  1.0000
  Hg  Hg9       1.0  0.83300  0.95500  0.62900  1.0000
  Hg  Hg10      1.0  0.16700  0.45500  0.87100  1.0000
  Hg  Hg11      1.0  0.59600  0.33600  0.89400  1.0000
  Hg  Hg12      1.0  0.10700  0.14300  0.92000  1.0000
  O   O1        1.0  0.49200  0.12500  0.01170  1.0000
  O   O2        1.0  0.82700  0.03660  0.04390  1.0000
  O   O3        1.0  0.30700  0.81200  0.18300  1.0000
  O   O4        1.0  0.48300  0.46700  0.19100  1.0000
  O   O5        1.0  0.51700  0.96700  0.30900  1.0000
  O   O6        1.0  0.69300  0.31200  0.31700  1.0000
  O   O7        1.0  0.17300  0.53700  0.45600  1.0000
  O   O8        1.0  0.50800  0.62500  0.48800  1.0000
  O   O9        1.0  0.49200  0.37500  0.51200  1.0000
  O   O10       1.0  0.82700  0.46300  0.54400  1.0000
  O   O11       1.0  0.30700  0.68800  0.68300  1.0000
  O   O12       1.0  0.48300  0.03250  0.69100  1.0000
  O   O13       1.0  0.51700  0.53300  0.80900  1.0000
  O   O14       1.0  0.69300  0.18800  0.81700  1.0000
  O   O15       1.0  0.17300  0.96300  0.95600  1.0000
  O   O16       1.0  0.50800  0.87500  0.98800  1.0000
  S   S1        1.0  0.93300  0.39600  0.06580  1.0000
  S   S2        1.0  0.76100  0.68900  0.23200  1.0000
  S   S3        1.0  0.23900  0.18900  0.26800  1.0000
  S   S4        1.0  0.06680  0.89600  0.43400  1.0000
  S   S5        1.0  0.93300  0.10400  0.56600  1.0000
  S   S6        1.0  0.76100  0.81100  0.73200  1.0000
  S   S7        1.0  0.23900  0.31100  0.76800  1.0000
  S   S8        1.0  0.06680  0.60400  0.93400  1.0000
