data_image0
_chemical_formula_structural       H10N2O20P6Sm2
_chemical_formula_sum              "H10 N2 O20 P6 Sm2"
_cell_length_a       6.93574
_cell_length_b       7.62947
_cell_length_c       8.50934
_cell_angle_alpha    107.03
_cell_angle_beta     106.243
_cell_angle_gamma    82.4696

_space_group_name_H-M_alt    "P 1"
_space_group_IT_number       1

loop_
  _space_group_symop_operation_xyz
  'x, y, z'

loop_
  _atom_site_type_symbol
  _atom_site_label
  _atom_site_symmetry_multiplicity
  _atom_site_fract_x
  _atom_site_fract_y
  _atom_site_fract_z
  _atom_site_occupancy
  H   H1        1.0  0.13800  0.60500  0.37100  1.0000
  H   H2        1.0  0.31000  0.19100  0.41500  1.0000
  H   H3        1.0  0.19000  0.82500  0.42700  1.0000
  H   H4        1.0  0.88600  0.25900  0.43700  1.0000
  H   H5        1.0  0.65300  0.31400  0.46700  1.0000
  H   H6        1.0  0.34700  0.68600  0.53300  1.0000
  H   H7        1.0  0.11400  0.74100  0.56300  1.0000
  H   H8        1.0  0.81000  0.17500  0.57300  1.0000
  H   H9        1.0  0.69000  0.80900  0.58500  1.0000
  H   H10       1.0  0.86200  0.39500  0.62900  1.0000
  N   N1        1.0  0.19600  0.71300  0.47300  1.0000
  N   N2        1.0  0.80400  0.28700  0.52700  1.0000
  O   O1        1.0  0.27500  0.09320  0.05170  1.0000
  O   O2        1.0  0.46500  0.36600  0.07580  1.0000
  O   O3        1.0  0.13100  0.42700  0.13200  1.0000
  O   O4        1.0  0.04380  0.84900  0.16800  1.0000
  O   O5        1.0  0.87300  0.17200  0.18400  1.0000
  O   O6        1.0  0.71200  0.94400  0.25100  1.0000
  O   O7        1.0  0.80300  0.60800  0.25900  1.0000
  O   O8        1.0  0.44800  0.75400  0.26300  1.0000
  O   O9        1.0  0.41100  0.29800  0.34100  1.0000
  O   O10       1.0  0.25100  0.13400  0.48600  1.0000
  O   O11       1.0  0.74900  0.86600  0.51400  1.0000
  O   O12       1.0  0.58900  0.70200  0.65900  1.0000
  O   O13       1.0  0.55200  0.24600  0.73700  1.0000
  O   O14       1.0  0.19700  0.39200  0.74100  1.0000
  O   O15       1.0  0.28800  0.05650  0.74900  1.0000
  O   O16       1.0  0.12700  0.82800  0.81600  1.0000
  O   O17       1.0  0.95600  0.15100  0.83200  1.0000
  O   O18       1.0  0.86900  0.57300  0.86800  1.0000
  O   O19       1.0  0.53500  0.63400  0.92400  1.0000
  O   O20       1.0  0.72500  0.90700  0.94800  1.0000
  P   P1        1.0  0.85500  0.96800  0.14300  1.0000
  P   P2        1.0  0.32700  0.30400  0.16000  1.0000
  P   P3        1.0  0.67100  0.77600  0.31800  1.0000
  P   P4        1.0  0.32900  0.22400  0.68200  1.0000
  P   P5        1.0  0.67300  0.69600  0.84000  1.0000
  P   P6        1.0  0.14500  0.03210  0.85700  1.0000
  Sm  Sm1       1.0  0.77100  0.36900  0.00638  1.0000
  Sm  Sm2       1.0  0.22900  0.63100  0.99400  1.0000
