data_image0
_chemical_formula_structural       F4H12K4O16P4
_chemical_formula_sum              "F4 H12 K4 O16 P4"
_cell_length_a       6.22288
_cell_length_b       7.39506
_cell_length_c       9.2821
_cell_angle_alpha    90
_cell_angle_beta     101.372
_cell_angle_gamma    90

_space_group_name_H-M_alt    "P 1"
_space_group_IT_number       1

loop_
  _space_group_symop_operation_xyz
  'x, y, z'

loop_
  _atom_site_type_symbol
  _atom_site_label
  _atom_site_symmetry_multiplicity
  _atom_site_fract_x
  _atom_site_fract_y
  _atom_site_fract_z
  _atom_site_occupancy
  F   F1        1.0  0.97000  0.53500  0.18700  1.0000
  F   F2        1.0  0.02950  0.03500  0.31300  1.0000
  F   F3        1.0  0.97000  0.96500  0.68700  1.0000
  F   F4        1.0  0.02950  0.46500  0.81300  1.0000
  H   H1        1.0  0.62800  0.33100  0.04160  1.0000
  H   H2        1.0  0.61000  0.02040  0.16000  1.0000
  H   H3        1.0  0.10400  0.97900  0.22800  1.0000
  H   H4        1.0  0.89600  0.47900  0.27200  1.0000
  H   H5        1.0  0.39000  0.52000  0.34000  1.0000
  H   H6        1.0  0.37200  0.83100  0.45800  1.0000
  H   H7        1.0  0.62800  0.16900  0.54200  1.0000
  H   H8        1.0  0.61000  0.48000  0.66000  1.0000
  H   H9        1.0  0.10400  0.52100  0.72800  1.0000
  H   H10       1.0  0.89600  0.02070  0.77200  1.0000
  H   H11       1.0  0.39000  0.98000  0.84000  1.0000
  H   H12       1.0  0.37200  0.66900  0.95800  1.0000
  K   K1        1.0  0.14700  0.27700  0.04890  1.0000
  K   K2        1.0  0.85300  0.77700  0.45100  1.0000
  K   K3        1.0  0.14700  0.22300  0.54900  1.0000
  K   K4        1.0  0.85300  0.72300  0.95100  1.0000
  O   O1        1.0  0.35900  0.62400  0.06130  1.0000
  O   O2        1.0  0.19500  0.92400  0.12400  1.0000
  O   O3        1.0  0.60800  0.88100  0.14900  1.0000
  O   O4        1.0  0.59400  0.21900  0.17600  1.0000
  O   O5        1.0  0.40600  0.71900  0.32400  1.0000
  O   O6        1.0  0.39200  0.38100  0.35100  1.0000
  O   O7        1.0  0.80500  0.42400  0.37600  1.0000
  O   O8        1.0  0.64100  0.12400  0.43900  1.0000
  O   O9        1.0  0.35900  0.87600  0.56100  1.0000
  O   O10       1.0  0.19500  0.57600  0.62400  1.0000
  O   O11       1.0  0.60800  0.61900  0.64900  1.0000
  O   O12       1.0  0.59400  0.28100  0.67600  1.0000
  O   O13       1.0  0.40600  0.78100  0.82400  1.0000
  O   O14       1.0  0.39200  0.11900  0.85100  1.0000
  O   O15       1.0  0.80500  0.07580  0.87600  1.0000
  O   O16       1.0  0.64100  0.37600  0.93900  1.0000
  P   P1        1.0  0.38500  0.79200  0.16800  1.0000
  P   P2        1.0  0.61500  0.29200  0.33200  1.0000
  P   P3        1.0  0.38500  0.70800  0.66800  1.0000
  P   P4        1.0  0.61500  0.20800  0.83200  1.0000
