data_image0
_chemical_formula_structural       C4Cl8H12N4O8S4
_chemical_formula_sum              "C4 Cl8 H12 N4 O8 S4"
_cell_length_a       6.05367
_cell_length_b       9.2846
_cell_length_c       9.58447
_cell_angle_alpha    90
_cell_angle_beta     89.9993
_cell_angle_gamma    90

_space_group_name_H-M_alt    "P 1"
_space_group_IT_number       1

loop_
  _space_group_symop_operation_xyz
  'x, y, z'

loop_
  _atom_site_type_symbol
  _atom_site_label
  _atom_site_symmetry_multiplicity
  _atom_site_fract_x
  _atom_site_fract_y
  _atom_site_fract_z
  _atom_site_occupancy
  C   C1        1.0  0.61500  0.25000  0.00080  1.0000
  C   C2        1.0  0.11500  0.25000  0.49900  1.0000
  C   C3        1.0  0.88500  0.75000  0.50100  1.0000
  C   C4        1.0  0.38500  0.75000  0.99900  1.0000
  Cl  Cl1       1.0  0.15800  0.09660  0.13000  1.0000
  Cl  Cl2       1.0  0.15800  0.40300  0.13000  1.0000
  Cl  Cl3       1.0  0.65800  0.09660  0.37000  1.0000
  Cl  Cl4       1.0  0.65800  0.40300  0.37000  1.0000
  Cl  Cl5       1.0  0.34200  0.59700  0.63000  1.0000
  Cl  Cl6       1.0  0.34200  0.90300  0.63000  1.0000
  Cl  Cl7       1.0  0.84200  0.59700  0.87000  1.0000
  Cl  Cl8       1.0  0.84200  0.90300  0.87000  1.0000
  H   H1        1.0  0.62200  0.15200  0.06430  1.0000
  H   H2        1.0  0.62200  0.34800  0.06430  1.0000
  H   H3        1.0  0.25400  0.75000  0.07810  1.0000
  H   H4        1.0  0.75400  0.75000  0.42200  1.0000
  H   H5        1.0  0.12200  0.15200  0.43600  1.0000
  H   H6        1.0  0.12200  0.34800  0.43600  1.0000
  H   H7        1.0  0.87800  0.65200  0.56400  1.0000
  H   H8        1.0  0.87800  0.84800  0.56400  1.0000
  H   H9        1.0  0.24600  0.25000  0.57800  1.0000
  H   H10       1.0  0.74600  0.25000  0.92200  1.0000
  H   H11       1.0  0.37800  0.65200  0.93600  1.0000
  H   H12       1.0  0.37800  0.84800  0.93600  1.0000
  N   N1        1.0  0.14500  0.25000  0.02500  1.0000
  N   N2        1.0  0.64500  0.25000  0.47500  1.0000
  N   N3        1.0  0.35500  0.75000  0.52500  1.0000
  N   N4        1.0  0.85500  0.75000  0.97500  1.0000
  O   O1        1.0  0.66000  0.61600  0.16900  1.0000
  O   O2        1.0  0.66000  0.88400  0.16900  1.0000
  O   O3        1.0  0.16000  0.61600  0.33100  1.0000
  O   O4        1.0  0.16000  0.88400  0.33100  1.0000
  O   O5        1.0  0.84000  0.11600  0.66900  1.0000
  O   O6        1.0  0.84000  0.38400  0.66900  1.0000
  O   O7        1.0  0.34000  0.11600  0.83100  1.0000
  O   O8        1.0  0.34000  0.38400  0.83100  1.0000
  S   S1        1.0  0.63300  0.75000  0.09550  1.0000
  S   S2        1.0  0.13300  0.75000  0.40500  1.0000
  S   S3        1.0  0.86700  0.25000  0.59500  1.0000
  S   S4        1.0  0.36700  0.25000  0.90500  1.0000
