data_image0
_chemical_formula_structural       Ho4O26Te10
_chemical_formula_sum              "Ho4 O26 Te10"
_cell_length_a       6.89636
_cell_length_b       8.54037
_cell_length_c       10.4162
_cell_angle_alpha    89.0217
_cell_angle_beta     86.8788
_cell_angle_gamma    74.9857

_space_group_name_H-M_alt    "P 1"
_space_group_IT_number       1

loop_
  _space_group_symop_operation_xyz
  'x, y, z'

loop_
  _atom_site_type_symbol
  _atom_site_label
  _atom_site_symmetry_multiplicity
  _atom_site_fract_x
  _atom_site_fract_y
  _atom_site_fract_z
  _atom_site_occupancy
  Ho  Ho1       1.0  0.55300  0.53000  0.18000  1.0000
  Ho  Ho2       1.0  0.99800  0.73600  0.23700  1.0000
  Ho  Ho3       1.0  0.00224  0.26400  0.76300  1.0000
  Ho  Ho4       1.0  0.44700  0.47000  0.82000  1.0000
  O   O1        1.0  0.53200  0.32500  0.00345  1.0000
  O   O2        1.0  0.05590  0.82100  0.03220  1.0000
  O   O3        1.0  0.87700  0.51200  0.10600  1.0000
  O   O4        1.0  0.34300  0.99300  0.12400  1.0000
  O   O5        1.0  0.23800  0.49500  0.18600  1.0000
  O   O6        1.0  0.66900  0.78000  0.22300  1.0000
  O   O7        1.0  0.66700  0.25600  0.23100  1.0000
  O   O8        1.0  0.06710  0.26600  0.28200  1.0000
  O   O9        1.0  0.31200  0.73600  0.29200  1.0000
  O   O10       1.0  0.94000  0.98000  0.31600  1.0000
  O   O11       1.0  0.66300  0.48500  0.38600  1.0000
  O   O12       1.0  0.95900  0.65000  0.43800  1.0000
  O   O13       1.0  0.53900  0.81100  0.48800  1.0000
  O   O14       1.0  0.46100  0.18900  0.51200  1.0000
  O   O15       1.0  0.04120  0.35000  0.56200  1.0000
  O   O16       1.0  0.33700  0.51500  0.61400  1.0000
  O   O17       1.0  0.05990  0.02010  0.68400  1.0000
  O   O18       1.0  0.68800  0.26400  0.70800  1.0000
  O   O19       1.0  0.93300  0.73400  0.71800  1.0000
  O   O20       1.0  0.33300  0.74400  0.76900  1.0000
  O   O21       1.0  0.33100  0.22000  0.77700  1.0000
  O   O22       1.0  0.76200  0.50500  0.81400  1.0000
  O   O23       1.0  0.65700  0.00723  0.87600  1.0000
  O   O24       1.0  0.12300  0.48800  0.89400  1.0000
  O   O25       1.0  0.94400  0.17900  0.96800  1.0000
  O   O26       1.0  0.46800  0.67500  0.99700  1.0000
  Te  Te1       1.0  0.71000  0.11600  0.03280  1.0000
  Te  Te2       1.0  0.12700  0.34400  0.10400  1.0000
  Te  Te3       1.0  0.43200  0.91000  0.30600  1.0000
  Te  Te4       1.0  0.84300  0.19700  0.37000  1.0000
  Te  Te5       1.0  0.27200  0.39500  0.47700  1.0000
  Te  Te6       1.0  0.72800  0.60500  0.52300  1.0000
  Te  Te7       1.0  0.15700  0.80300  0.63000  1.0000
  Te  Te8       1.0  0.56800  0.09000  0.69400  1.0000
  Te  Te9       1.0  0.87300  0.65600  0.89600  1.0000
  Te  Te10      1.0  0.29000  0.88400  0.96700  1.0000
