data_image0
_chemical_formula_structural       Cl20Nb12O8
_chemical_formula_sum              "Cl20 Nb12 O8"
_cell_length_a       8.16454
_cell_length_b       14.637
_cell_length_c       6.73547
_cell_angle_alpha    90
_cell_angle_beta     90
_cell_angle_gamma    90

_space_group_name_H-M_alt    "P 1"
_space_group_IT_number       1

loop_
  _space_group_symop_operation_xyz
  'x, y, z'

loop_
  _atom_site_type_symbol
  _atom_site_label
  _atom_site_symmetry_multiplicity
  _atom_site_fract_x
  _atom_site_fract_y
  _atom_site_fract_z
  _atom_site_occupancy
  Cl  Cl1       1.0  0.32600  0.11100  0.00000  1.0000
  Cl  Cl2       1.0  0.70600  0.14100  0.00000  1.0000
  Cl  Cl3       1.0  0.77500  0.37100  0.00000  1.0000
  Cl  Cl4       1.0  0.20900  0.37400  0.00000  1.0000
  Cl  Cl5       1.0  0.79100  0.62600  0.00000  1.0000
  Cl  Cl6       1.0  0.22500  0.62900  0.00000  1.0000
  Cl  Cl7       1.0  0.29400  0.85900  0.00000  1.0000
  Cl  Cl8       1.0  0.67400  0.88900  0.00000  1.0000
  Cl  Cl9       1.0  0.00000  0.00000  0.24100  1.0000
  Cl  Cl10      1.0  0.50000  0.50000  0.25900  1.0000
  Cl  Cl11      1.0  0.70900  0.12600  0.50000  1.0000
  Cl  Cl12      1.0  0.27500  0.12900  0.50000  1.0000
  Cl  Cl13      1.0  0.20600  0.35900  0.50000  1.0000
  Cl  Cl14      1.0  0.82600  0.38900  0.50000  1.0000
  Cl  Cl15      1.0  0.17400  0.61100  0.50000  1.0000
  Cl  Cl16      1.0  0.79400  0.64100  0.50000  1.0000
  Cl  Cl17      1.0  0.72500  0.87100  0.50000  1.0000
  Cl  Cl18      1.0  0.29100  0.87400  0.50000  1.0000
  Cl  Cl19      1.0  0.50000  0.50000  0.74100  1.0000
  Cl  Cl20      1.0  0.00000  0.00000  0.75900  1.0000
  Nb  Nb1       1.0  0.02660  0.13500  0.00000  1.0000
  Nb  Nb2       1.0  0.97300  0.86500  0.00000  1.0000
  Nb  Nb3       1.0  0.24000  0.24000  0.21100  1.0000
  Nb  Nb4       1.0  0.76000  0.76000  0.21100  1.0000
  Nb  Nb5       1.0  0.74000  0.26000  0.28900  1.0000
  Nb  Nb6       1.0  0.26000  0.74000  0.28900  1.0000
  Nb  Nb7       1.0  0.52700  0.36500  0.50000  1.0000
  Nb  Nb8       1.0  0.47300  0.63500  0.50000  1.0000
  Nb  Nb9       1.0  0.74000  0.26000  0.71100  1.0000
  Nb  Nb10      1.0  0.26000  0.74000  0.71100  1.0000
  Nb  Nb11      1.0  0.24000  0.24000  0.78900  1.0000
  Nb  Nb12      1.0  0.76000  0.76000  0.78900  1.0000
  O   O1        1.0  0.99100  0.22600  0.22200  1.0000
  O   O2        1.0  0.00916  0.77400  0.22200  1.0000
  O   O3        1.0  0.49100  0.27400  0.27800  1.0000
  O   O4        1.0  0.50900  0.72600  0.27800  1.0000
  O   O5        1.0  0.49100  0.27400  0.72200  1.0000
  O   O6        1.0  0.50900  0.72600  0.72200  1.0000
  O   O7        1.0  0.99100  0.22600  0.77800  1.0000
  O   O8        1.0  0.00916  0.77400  0.77800  1.0000
