data_image0
_chemical_formula_structural       Ag4K4N8O24
_chemical_formula_sum              "Ag4 K4 N8 O24"
_cell_length_a       13.2794
_cell_length_b       4.85522
_cell_length_c       8.0273
_cell_angle_alpha    90
_cell_angle_beta     95.4182
_cell_angle_gamma    90

_space_group_name_H-M_alt    "P 1"
_space_group_IT_number       1

loop_
  _space_group_symop_operation_xyz
  'x, y, z'

loop_
  _atom_site_type_symbol
  _atom_site_label
  _atom_site_symmetry_multiplicity
  _atom_site_fract_x
  _atom_site_fract_y
  _atom_site_fract_z
  _atom_site_occupancy
  Ag  Ag1       1.0  0.27600  0.41600  0.20400  1.0000
  Ag  Ag2       1.0  0.77600  0.08410  0.20400  1.0000
  Ag  Ag3       1.0  0.22400  0.91600  0.79600  1.0000
  Ag  Ag4       1.0  0.72400  0.58400  0.79600  1.0000
  K   K1        1.0  0.06070  0.95700  0.26400  1.0000
  K   K2        1.0  0.56100  0.54300  0.26400  1.0000
  K   K3        1.0  0.43900  0.45700  0.73600  1.0000
  K   K4        1.0  0.93900  0.04330  0.73600  1.0000
  N   N1        1.0  0.40100  0.95600  0.06480  1.0000
  N   N2        1.0  0.90100  0.54400  0.06480  1.0000
  N   N3        1.0  0.33900  0.86300  0.44400  1.0000
  N   N4        1.0  0.83900  0.63700  0.44400  1.0000
  N   N5        1.0  0.16100  0.36300  0.55600  1.0000
  N   N6        1.0  0.66100  0.13700  0.55600  1.0000
  N   N7        1.0  0.09870  0.45600  0.93500  1.0000
  N   N8        1.0  0.59900  0.04380  0.93500  1.0000
  O   O1        1.0  0.65800  0.86800  0.01530  1.0000
  O   O2        1.0  0.15800  0.63200  0.01530  1.0000
  O   O3        1.0  0.39500  0.70500  0.02500  1.0000
  O   O4        1.0  0.89500  0.79500  0.02500  1.0000
  O   O5        1.0  0.46300  0.03820  0.18300  1.0000
  O   O6        1.0  0.96300  0.46200  0.18300  1.0000
  O   O7        1.0  0.27500  0.95700  0.33100  1.0000
  O   O8        1.0  0.77500  0.54300  0.33100  1.0000
  O   O9        1.0  0.64100  0.01130  0.42000  1.0000
  O   O10       1.0  0.14100  0.48900  0.42000  1.0000
  O   O11       1.0  0.38100  0.63100  0.42100  1.0000
  O   O12       1.0  0.88100  0.86900  0.42100  1.0000
  O   O13       1.0  0.61900  0.36900  0.57900  1.0000
  O   O14       1.0  0.11900  0.13100  0.57900  1.0000
  O   O15       1.0  0.35900  0.98900  0.58000  1.0000
  O   O16       1.0  0.85900  0.51100  0.58000  1.0000
  O   O17       1.0  0.22500  0.45700  0.66900  1.0000
  O   O18       1.0  0.72500  0.04270  0.66900  1.0000
  O   O19       1.0  0.03730  0.53800  0.81700  1.0000
  O   O20       1.0  0.53700  0.96200  0.81700  1.0000
  O   O21       1.0  0.10500  0.20500  0.97500  1.0000
  O   O22       1.0  0.60500  0.29500  0.97500  1.0000
  O   O23       1.0  0.34200  0.13200  0.98500  1.0000
  O   O24       1.0  0.84200  0.36800  0.98500  1.0000
