data_image0
_chemical_formula_structural       F28Hf4K4Pd4
_chemical_formula_sum              "F28 Hf4 K4 Pd4"
_cell_length_a       11.2354
_cell_length_b       7.68643
_cell_length_c       6.12202
_cell_angle_alpha    90
_cell_angle_beta     90
_cell_angle_gamma    90

_space_group_name_H-M_alt    "P 1"
_space_group_IT_number       1

loop_
  _space_group_symop_operation_xyz
  'x, y, z'

loop_
  _atom_site_type_symbol
  _atom_site_label
  _atom_site_symmetry_multiplicity
  _atom_site_fract_x
  _atom_site_fract_y
  _atom_site_fract_z
  _atom_site_occupancy
  F   F1        1.0  0.94900  0.15600  0.05670  1.0000
  F   F2        1.0  0.55100  0.84400  0.05670  1.0000
  F   F3        1.0  0.25300  0.19500  0.06330  1.0000
  F   F4        1.0  0.24700  0.80500  0.06330  1.0000
  F   F5        1.0  0.39400  0.48800  0.11700  1.0000
  F   F6        1.0  0.10600  0.51200  0.11700  1.0000
  F   F7        1.0  0.58300  0.25000  0.25000  1.0000
  F   F8        1.0  0.91700  0.75000  0.25000  1.0000
  F   F9        1.0  0.39400  0.01210  0.38300  1.0000
  F   F10       1.0  0.10600  0.98800  0.38300  1.0000
  F   F11       1.0  0.25300  0.30500  0.43700  1.0000
  F   F12       1.0  0.24700  0.69500  0.43700  1.0000
  F   F13       1.0  0.94900  0.34400  0.44300  1.0000
  F   F14       1.0  0.55100  0.65600  0.44300  1.0000
  F   F15       1.0  0.44900  0.34400  0.55700  1.0000
  F   F16       1.0  0.05120  0.65600  0.55700  1.0000
  F   F17       1.0  0.75300  0.30500  0.56300  1.0000
  F   F18       1.0  0.74700  0.69500  0.56300  1.0000
  F   F19       1.0  0.89400  0.01210  0.61700  1.0000
  F   F20       1.0  0.60600  0.98800  0.61700  1.0000
  F   F21       1.0  0.08250  0.25000  0.75000  1.0000
  F   F22       1.0  0.41700  0.75000  0.75000  1.0000
  F   F23       1.0  0.89400  0.48800  0.88300  1.0000
  F   F24       1.0  0.60600  0.51200  0.88300  1.0000
  F   F25       1.0  0.75300  0.19500  0.93700  1.0000
  F   F26       1.0  0.74700  0.80500  0.93700  1.0000
  F   F27       1.0  0.44900  0.15600  0.94300  1.0000
  F   F28       1.0  0.05120  0.84400  0.94300  1.0000
  Hf  Hf1       1.0  0.40600  0.25000  0.25000  1.0000
  Hf  Hf2       1.0  0.09390  0.75000  0.25000  1.0000
  Hf  Hf3       1.0  0.90600  0.25000  0.75000  1.0000
  Hf  Hf4       1.0  0.59400  0.75000  0.75000  1.0000
  K   K1        1.0  0.75000  0.50000  0.22500  1.0000
  K   K2        1.0  0.75000  0.00000  0.27500  1.0000
  K   K3        1.0  0.25000  0.00000  0.72500  1.0000
  K   K4        1.0  0.25000  0.50000  0.77500  1.0000
  Pd  Pd1       1.0  0.09500  0.25000  0.25000  1.0000
  Pd  Pd2       1.0  0.40500  0.75000  0.25000  1.0000
  Pd  Pd3       1.0  0.59500  0.25000  0.75000  1.0000
  Pd  Pd4       1.0  0.90500  0.75000  0.75000  1.0000
