data_image0
_chemical_formula_structural       La8Ru8Sn24
_chemical_formula_sum              "La8 Ru8 Sn24"
_cell_length_a       9.84311
_cell_length_b       9.84311
_cell_length_c       9.84311
_cell_angle_alpha    90
_cell_angle_beta     90
_cell_angle_gamma    90

_space_group_name_H-M_alt    "P 1"
_space_group_IT_number       1

loop_
  _space_group_symop_operation_xyz
  'x, y, z'

loop_
  _atom_site_type_symbol
  _atom_site_label
  _atom_site_symmetry_multiplicity
  _atom_site_fract_x
  _atom_site_fract_y
  _atom_site_fract_z
  _atom_site_occupancy
  La  La1       1.0  0.00000  0.00000  0.00000  1.0000
  La  La2       1.0  0.25000  0.50000  0.00000  1.0000
  La  La3       1.0  0.75000  0.50000  0.00000  1.0000
  La  La4       1.0  0.50000  0.00000  0.25000  1.0000
  La  La5       1.0  0.00000  0.25000  0.50000  1.0000
  La  La6       1.0  0.50000  0.50000  0.50000  1.0000
  La  La7       1.0  0.00000  0.75000  0.50000  1.0000
  La  La8       1.0  0.50000  0.00000  0.75000  1.0000
  Ru  Ru1       1.0  0.25000  0.25000  0.25000  1.0000
  Ru  Ru2       1.0  0.75000  0.25000  0.25000  1.0000
  Ru  Ru3       1.0  0.25000  0.75000  0.25000  1.0000
  Ru  Ru4       1.0  0.75000  0.75000  0.25000  1.0000
  Ru  Ru5       1.0  0.25000  0.25000  0.75000  1.0000
  Ru  Ru6       1.0  0.75000  0.25000  0.75000  1.0000
  Ru  Ru7       1.0  0.25000  0.75000  0.75000  1.0000
  Ru  Ru8       1.0  0.75000  0.75000  0.75000  1.0000
  Sn  Sn1       1.0  0.31600  0.15700  0.00000  1.0000
  Sn  Sn2       1.0  0.68400  0.15700  0.00000  1.0000
  Sn  Sn3       1.0  0.31600  0.84300  0.00000  1.0000
  Sn  Sn4       1.0  0.68400  0.84300  0.00000  1.0000
  Sn  Sn5       1.0  0.00000  0.31600  0.15700  1.0000
  Sn  Sn6       1.0  0.00000  0.68400  0.15700  1.0000
  Sn  Sn7       1.0  0.50000  0.34300  0.18400  1.0000
  Sn  Sn8       1.0  0.50000  0.65700  0.18400  1.0000
  Sn  Sn9       1.0  0.15700  0.00000  0.31600  1.0000
  Sn  Sn10      1.0  0.84300  0.00000  0.31600  1.0000
  Sn  Sn11      1.0  0.18400  0.50000  0.34300  1.0000
  Sn  Sn12      1.0  0.81600  0.50000  0.34300  1.0000
  Sn  Sn13      1.0  0.34300  0.18400  0.50000  1.0000
  Sn  Sn14      1.0  0.65700  0.18400  0.50000  1.0000
  Sn  Sn15      1.0  0.34300  0.81600  0.50000  1.0000
  Sn  Sn16      1.0  0.65700  0.81600  0.50000  1.0000
  Sn  Sn17      1.0  0.18400  0.50000  0.65700  1.0000
  Sn  Sn18      1.0  0.81600  0.50000  0.65700  1.0000
  Sn  Sn19      1.0  0.15700  0.00000  0.68400  1.0000
  Sn  Sn20      1.0  0.84300  0.00000  0.68400  1.0000
  Sn  Sn21      1.0  0.50000  0.34300  0.81600  1.0000
  Sn  Sn22      1.0  0.50000  0.65700  0.81600  1.0000
  Sn  Sn23      1.0  0.00000  0.31600  0.84300  1.0000
  Sn  Sn24      1.0  0.00000  0.68400  0.84300  1.0000
