data_image0
_chemical_formula_structural       Al4Ca8F28
_chemical_formula_sum              "Al4 Ca8 F28"
_cell_length_a       7.53715
_cell_length_b       6.89038
_cell_length_c       9.4119
_cell_angle_alpha    90
_cell_angle_beta     90
_cell_angle_gamma    90

_space_group_name_H-M_alt    "P 1"
_space_group_IT_number       1

loop_
  _space_group_symop_operation_xyz
  'x, y, z'

loop_
  _atom_site_type_symbol
  _atom_site_label
  _atom_site_symmetry_multiplicity
  _atom_site_fract_x
  _atom_site_fract_y
  _atom_site_fract_z
  _atom_site_occupancy
  Al  Al1       1.0  0.31400  0.25000  0.05690  1.0000
  Al  Al2       1.0  0.81400  0.25000  0.44300  1.0000
  Al  Al3       1.0  0.18600  0.75000  0.55700  1.0000
  Al  Al4       1.0  0.68600  0.75000  0.94300  1.0000
  Ca  Ca1       1.0  0.80300  0.25000  0.10800  1.0000
  Ca  Ca2       1.0  0.38600  0.75000  0.24300  1.0000
  Ca  Ca3       1.0  0.88600  0.75000  0.25700  1.0000
  Ca  Ca4       1.0  0.30300  0.25000  0.39200  1.0000
  Ca  Ca5       1.0  0.69700  0.75000  0.60800  1.0000
  Ca  Ca6       1.0  0.11400  0.25000  0.74300  1.0000
  Ca  Ca7       1.0  0.61400  0.25000  0.75700  1.0000
  Ca  Ca8       1.0  0.19700  0.75000  0.89200  1.0000
  F   F1        1.0  0.46300  0.75000  0.01090  1.0000
  F   F2        1.0  0.75000  0.57200  0.07580  1.0000
  F   F3        1.0  0.75000  0.92800  0.07580  1.0000
  F   F4        1.0  0.12600  0.75000  0.12600  1.0000
  F   F5        1.0  0.09830  0.25000  0.13500  1.0000
  F   F6        1.0  0.37800  0.06820  0.18600  1.0000
  F   F7        1.0  0.37800  0.43200  0.18600  1.0000
  F   F8        1.0  0.87800  0.06820  0.31400  1.0000
  F   F9        1.0  0.87800  0.43200  0.31400  1.0000
  F   F10       1.0  0.59800  0.25000  0.36500  1.0000
  F   F11       1.0  0.62600  0.75000  0.37400  1.0000
  F   F12       1.0  0.25000  0.57200  0.42400  1.0000
  F   F13       1.0  0.25000  0.92800  0.42400  1.0000
  F   F14       1.0  0.96300  0.75000  0.48900  1.0000
  F   F15       1.0  0.03720  0.25000  0.51100  1.0000
  F   F16       1.0  0.75000  0.07170  0.57600  1.0000
  F   F17       1.0  0.75000  0.42800  0.57600  1.0000
  F   F18       1.0  0.37400  0.25000  0.62600  1.0000
  F   F19       1.0  0.40200  0.75000  0.63500  1.0000
  F   F20       1.0  0.12200  0.56800  0.68600  1.0000
  F   F21       1.0  0.12200  0.93200  0.68600  1.0000
  F   F22       1.0  0.62200  0.56800  0.81400  1.0000
  F   F23       1.0  0.62200  0.93200  0.81400  1.0000
  F   F24       1.0  0.90200  0.75000  0.86500  1.0000
  F   F25       1.0  0.87400  0.25000  0.87400  1.0000
  F   F26       1.0  0.25000  0.07170  0.92400  1.0000
  F   F27       1.0  0.25000  0.42800  0.92400  1.0000
  F   F28       1.0  0.53700  0.25000  0.98900  1.0000
