data_image0
_chemical_formula_structural       CaCu4O24Re3Sr8
_chemical_formula_sum              "Ca1 Cu4 O24 Re3 Sr8"
_cell_length_a       7.97094
_cell_length_b       7.97094
_cell_length_c       7.97094
_cell_angle_alpha    90
_cell_angle_beta     90
_cell_angle_gamma    90

_space_group_name_H-M_alt    "P 1"
_space_group_IT_number       1

loop_
  _space_group_symop_operation_xyz
  'x, y, z'

loop_
  _atom_site_type_symbol
  _atom_site_label
  _atom_site_symmetry_multiplicity
  _atom_site_fract_x
  _atom_site_fract_y
  _atom_site_fract_z
  _atom_site_occupancy
  Ca  Ca1       1.0  0.00000  0.00000  0.00000  1.0000
  Cu  Cu1       1.0  0.50000  0.50000  0.00000  1.0000
  Cu  Cu2       1.0  0.50000  0.00000  0.50000  1.0000
  Cu  Cu3       1.0  0.00000  0.50000  0.50000  1.0000
  Cu  Cu4       1.0  0.50000  0.50000  0.50000  1.0000
  O   O1        1.0  0.26800  0.00000  0.00000  1.0000
  O   O2        1.0  0.73200  0.00000  0.00000  1.0000
  O   O3        1.0  0.50000  0.23800  0.00000  1.0000
  O   O4        1.0  0.00000  0.26800  0.00000  1.0000
  O   O5        1.0  0.23800  0.50000  0.00000  1.0000
  O   O6        1.0  0.76200  0.50000  0.00000  1.0000
  O   O7        1.0  0.00000  0.73200  0.00000  1.0000
  O   O8        1.0  0.50000  0.76200  0.00000  1.0000
  O   O9        1.0  0.50000  0.00000  0.23800  1.0000
  O   O10       1.0  0.00000  0.50000  0.23800  1.0000
  O   O11       1.0  0.50000  0.50000  0.24600  1.0000
  O   O12       1.0  0.00000  0.00000  0.26800  1.0000
  O   O13       1.0  0.23800  0.00000  0.50000  1.0000
  O   O14       1.0  0.76200  0.00000  0.50000  1.0000
  O   O15       1.0  0.00000  0.23800  0.50000  1.0000
  O   O16       1.0  0.50000  0.24600  0.50000  1.0000
  O   O17       1.0  0.24600  0.50000  0.50000  1.0000
  O   O18       1.0  0.75400  0.50000  0.50000  1.0000
  O   O19       1.0  0.50000  0.75400  0.50000  1.0000
  O   O20       1.0  0.00000  0.76200  0.50000  1.0000
  O   O21       1.0  0.00000  0.00000  0.73200  1.0000
  O   O22       1.0  0.50000  0.50000  0.75400  1.0000
  O   O23       1.0  0.50000  0.00000  0.76200  1.0000
  O   O24       1.0  0.00000  0.50000  0.76200  1.0000
  Re  Re1       1.0  0.50000  0.00000  0.00000  1.0000
  Re  Re2       1.0  0.00000  0.50000  0.00000  1.0000
  Re  Re3       1.0  0.00000  0.00000  0.50000  1.0000
  Sr  Sr1       1.0  0.26900  0.26900  0.26900  1.0000
  Sr  Sr2       1.0  0.73100  0.26900  0.26900  1.0000
  Sr  Sr3       1.0  0.26900  0.73100  0.26900  1.0000
  Sr  Sr4       1.0  0.73100  0.73100  0.26900  1.0000
  Sr  Sr5       1.0  0.26900  0.26900  0.73100  1.0000
  Sr  Sr6       1.0  0.73100  0.26900  0.73100  1.0000
  Sr  Sr7       1.0  0.26900  0.73100  0.73100  1.0000
  Sr  Sr8       1.0  0.73100  0.73100  0.73100  1.0000
