data_image0
_chemical_formula_structural       Os8Si12
_chemical_formula_sum              "Os8 Si12"
_cell_length_a       5.64277
_cell_length_b       5.64277
_cell_length_c       8.92998
_cell_angle_alpha    90
_cell_angle_beta     90
_cell_angle_gamma    90

_space_group_name_H-M_alt    "P 1"
_space_group_IT_number       1

loop_
  _space_group_symop_operation_xyz
  'x, y, z'

loop_
  _atom_site_type_symbol
  _atom_site_label
  _atom_site_symmetry_multiplicity
  _atom_site_fract_x
  _atom_site_fract_y
  _atom_site_fract_z
  _atom_site_occupancy
  Os  Os1       1.0  0.00000  0.00000  0.00000  1.0000
  Os  Os2       1.0  0.50000  0.00000  0.12800  1.0000
  Os  Os3       1.0  0.50000  0.50000  0.25000  1.0000
  Os  Os4       1.0  0.00000  0.50000  0.37200  1.0000
  Os  Os5       1.0  0.00000  0.00000  0.50000  1.0000
  Os  Os6       1.0  0.50000  0.00000  0.62800  1.0000
  Os  Os7       1.0  0.50000  0.50000  0.75000  1.0000
  Os  Os8       1.0  0.00000  0.50000  0.87200  1.0000
  Si  Si1       1.0  0.20700  0.35600  0.09030  1.0000
  Si  Si2       1.0  0.79300  0.64400  0.09030  1.0000
  Si  Si3       1.0  0.83200  0.16800  0.25000  1.0000
  Si  Si4       1.0  0.16800  0.83200  0.25000  1.0000
  Si  Si5       1.0  0.35600  0.20700  0.41000  1.0000
  Si  Si6       1.0  0.64400  0.79300  0.41000  1.0000
  Si  Si7       1.0  0.79300  0.35600  0.59000  1.0000
  Si  Si8       1.0  0.20700  0.64400  0.59000  1.0000
  Si  Si9       1.0  0.16800  0.16800  0.75000  1.0000
  Si  Si10      1.0  0.83200  0.83200  0.75000  1.0000
  Si  Si11      1.0  0.64400  0.20700  0.91000  1.0000
  Si  Si12      1.0  0.35600  0.79300  0.91000  1.0000
