data_image0
_chemical_formula_structural       Bi8Cd4Cs8S20
_chemical_formula_sum              "Bi8 Cd4 Cs8 S20"
_cell_length_a       15.9948
_cell_length_b       4.21622
_cell_length_c       18.6637
_cell_angle_alpha    90
_cell_angle_beta     90
_cell_angle_gamma    90

_space_group_name_H-M_alt    "P 1"
_space_group_IT_number       1

loop_
  _space_group_symop_operation_xyz
  'x, y, z'

loop_
  _atom_site_type_symbol
  _atom_site_label
  _atom_site_symmetry_multiplicity
  _atom_site_fract_x
  _atom_site_fract_y
  _atom_site_fract_z
  _atom_site_occupancy
  Bi  Bi1       1.0  0.25500  0.25000  0.01780  1.0000
  Bi  Bi2       1.0  0.20800  0.75000  0.19500  1.0000
  Bi  Bi3       1.0  0.70800  0.75000  0.30500  1.0000
  Bi  Bi4       1.0  0.75500  0.25000  0.48200  1.0000
  Bi  Bi5       1.0  0.24500  0.75000  0.51800  1.0000
  Bi  Bi6       1.0  0.29200  0.25000  0.69500  1.0000
  Bi  Bi7       1.0  0.79200  0.25000  0.80500  1.0000
  Bi  Bi8       1.0  0.74500  0.75000  0.98200  1.0000
  Cd  Cd1       1.0  0.71100  0.25000  0.14500  1.0000
  Cd  Cd2       1.0  0.21100  0.25000  0.35500  1.0000
  Cd  Cd3       1.0  0.78900  0.75000  0.64500  1.0000
  Cd  Cd4       1.0  0.28900  0.75000  0.85500  1.0000
  Cs  Cs1       1.0  0.96500  0.25000  0.11200  1.0000
  Cs  Cs2       1.0  0.49300  0.75000  0.12700  1.0000
  Cs  Cs3       1.0  0.99300  0.75000  0.37300  1.0000
  Cs  Cs4       1.0  0.46500  0.25000  0.38800  1.0000
  Cs  Cs5       1.0  0.53500  0.75000  0.61200  1.0000
  Cs  Cs6       1.0  0.00656  0.25000  0.62700  1.0000
  Cs  Cs7       1.0  0.50700  0.25000  0.87300  1.0000
  Cs  Cs8       1.0  0.03470  0.75000  0.88800  1.0000
  S   S1        1.0  0.63700  0.25000  0.02400  1.0000
  S   S2        1.0  0.13800  0.75000  0.06140  1.0000
  S   S3        1.0  0.31800  0.25000  0.14700  1.0000
  S   S4        1.0  0.80000  0.75000  0.16200  1.0000
  S   S5        1.0  0.10500  0.25000  0.24900  1.0000
  S   S6        1.0  0.60500  0.25000  0.25100  1.0000
  S   S7        1.0  0.30000  0.75000  0.33800  1.0000
  S   S8        1.0  0.81800  0.25000  0.35300  1.0000
  S   S9        1.0  0.63800  0.75000  0.43900  1.0000
  S   S10       1.0  0.13700  0.25000  0.47600  1.0000
  S   S11       1.0  0.86300  0.75000  0.52400  1.0000
  S   S12       1.0  0.36200  0.25000  0.56100  1.0000
  S   S13       1.0  0.18200  0.75000  0.64700  1.0000
  S   S14       1.0  0.70000  0.25000  0.66200  1.0000
  S   S15       1.0  0.39500  0.75000  0.74900  1.0000
  S   S16       1.0  0.89500  0.75000  0.75100  1.0000
  S   S17       1.0  0.20000  0.25000  0.83800  1.0000
  S   S18       1.0  0.68200  0.75000  0.85300  1.0000
  S   S19       1.0  0.86200  0.25000  0.93900  1.0000
  S   S20       1.0  0.36300  0.75000  0.97600  1.0000
