data_image0
_chemical_formula_structural       Cl20Cs12Cu8
_chemical_formula_sum              "Cl20 Cs12 Cu8"
_cell_length_a       9.27942
_cell_length_b       10.5422
_cell_length_c       13.2122
_cell_angle_alpha    90
_cell_angle_beta     90
_cell_angle_gamma    90

_space_group_name_H-M_alt    "P 1"
_space_group_IT_number       1

loop_
  _space_group_symop_operation_xyz
  'x, y, z'

loop_
  _atom_site_type_symbol
  _atom_site_label
  _atom_site_symmetry_multiplicity
  _atom_site_fract_x
  _atom_site_fract_y
  _atom_site_fract_z
  _atom_site_occupancy
  Cl  Cl1       1.0  0.52600  0.75000  0.01050  1.0000
  Cl  Cl2       1.0  0.81700  0.06590  0.05940  1.0000
  Cl  Cl3       1.0  0.81700  0.43400  0.05940  1.0000
  Cl  Cl4       1.0  0.17600  0.25000  0.20400  1.0000
  Cl  Cl5       1.0  0.19600  0.75000  0.20600  1.0000
  Cl  Cl6       1.0  0.69600  0.75000  0.29400  1.0000
  Cl  Cl7       1.0  0.67600  0.25000  0.29600  1.0000
  Cl  Cl8       1.0  0.31700  0.06590  0.44100  1.0000
  Cl  Cl9       1.0  0.31700  0.43400  0.44100  1.0000
  Cl  Cl10      1.0  0.02550  0.75000  0.48900  1.0000
  Cl  Cl11      1.0  0.97400  0.25000  0.51100  1.0000
  Cl  Cl12      1.0  0.68300  0.56600  0.55900  1.0000
  Cl  Cl13      1.0  0.68300  0.93400  0.55900  1.0000
  Cl  Cl14      1.0  0.32400  0.75000  0.70400  1.0000
  Cl  Cl15      1.0  0.30400  0.25000  0.70600  1.0000
  Cl  Cl16      1.0  0.80400  0.25000  0.79400  1.0000
  Cl  Cl17      1.0  0.82400  0.75000  0.79600  1.0000
  Cl  Cl18      1.0  0.18300  0.56600  0.94100  1.0000
  Cl  Cl19      1.0  0.18300  0.93400  0.94100  1.0000
  Cl  Cl20      1.0  0.47400  0.25000  0.98900  1.0000
  Cs  Cs1       1.0  0.89100  0.75000  0.04890  1.0000
  Cs  Cs2       1.0  0.45900  0.01250  0.17800  1.0000
  Cs  Cs3       1.0  0.45900  0.48800  0.17800  1.0000
  Cs  Cs4       1.0  0.95900  0.01250  0.32200  1.0000
  Cs  Cs5       1.0  0.95900  0.48800  0.32200  1.0000
  Cs  Cs6       1.0  0.39100  0.75000  0.45100  1.0000
  Cs  Cs7       1.0  0.60900  0.25000  0.54900  1.0000
  Cs  Cs8       1.0  0.04070  0.51200  0.67800  1.0000
  Cs  Cs9       1.0  0.04070  0.98800  0.67800  1.0000
  Cs  Cs10      1.0  0.54100  0.51200  0.82200  1.0000
  Cs  Cs11      1.0  0.54100  0.98800  0.82200  1.0000
  Cs  Cs12      1.0  0.10900  0.25000  0.95100  1.0000
  Cu  Cu1       1.0  0.28600  0.75000  0.04820  1.0000
  Cu  Cu2       1.0  0.76500  0.25000  0.13900  1.0000
  Cu  Cu3       1.0  0.26500  0.25000  0.36100  1.0000
  Cu  Cu4       1.0  0.78600  0.75000  0.45200  1.0000
  Cu  Cu5       1.0  0.21400  0.25000  0.54800  1.0000
  Cu  Cu6       1.0  0.73500  0.75000  0.63900  1.0000
  Cu  Cu7       1.0  0.23500  0.75000  0.86100  1.0000
  Cu  Cu8       1.0  0.71400  0.25000  0.95200  1.0000
