data_image0
_chemical_formula_structural       Na4P8S24Sm4
_chemical_formula_sum              "Na4 P8 S24 Sm4"
_cell_length_a       11.1119
_cell_length_b       7.35626
_cell_length_c       11.6629
_cell_angle_alpha    90
_cell_angle_beta     111.249
_cell_angle_gamma    90

_space_group_name_H-M_alt    "P 1"
_space_group_IT_number       1

loop_
  _space_group_symop_operation_xyz
  'x, y, z'

loop_
  _atom_site_type_symbol
  _atom_site_label
  _atom_site_symmetry_multiplicity
  _atom_site_fract_x
  _atom_site_fract_y
  _atom_site_fract_z
  _atom_site_occupancy
  Na  Na1       1.0  0.62100  0.60900  0.36000  1.0000
  Na  Na2       1.0  0.12100  0.89100  0.36000  1.0000
  Na  Na3       1.0  0.87900  0.10900  0.64000  1.0000
  Na  Na4       1.0  0.37900  0.39100  0.64000  1.0000
  P   P1        1.0  0.75000  0.89600  0.17600  1.0000
  P   P2        1.0  0.25000  0.60400  0.17600  1.0000
  P   P3        1.0  0.25100  0.38400  0.30700  1.0000
  P   P4        1.0  0.75100  0.11600  0.30700  1.0000
  P   P5        1.0  0.74900  0.61600  0.69300  1.0000
  P   P6        1.0  0.24900  0.88400  0.69300  1.0000
  P   P7        1.0  0.75000  0.39600  0.82400  1.0000
  P   P8        1.0  0.25000  0.10400  0.82400  1.0000
  S   S1        1.0  0.81400  0.02080  0.05040  1.0000
  S   S2        1.0  0.31400  0.47900  0.05040  1.0000
  S   S3        1.0  0.06380  0.68800  0.09210  1.0000
  S   S4        1.0  0.56400  0.81200  0.09210  1.0000
  S   S5        1.0  0.64600  0.31600  0.19400  1.0000
  S   S6        1.0  0.14600  0.18400  0.19400  1.0000
  S   S7        1.0  0.86700  0.70400  0.28300  1.0000
  S   S8        1.0  0.36700  0.79600  0.28300  1.0000
  S   S9        1.0  0.93700  0.20100  0.38000  1.0000
  S   S10       1.0  0.43700  0.29900  0.38000  1.0000
  S   S11       1.0  0.16100  0.49200  0.41200  1.0000
  S   S12       1.0  0.66100  0.00800  0.41200  1.0000
  S   S13       1.0  0.83900  0.50800  0.58800  1.0000
  S   S14       1.0  0.33900  0.99200  0.58800  1.0000
  S   S15       1.0  0.56300  0.70100  0.62000  1.0000
  S   S16       1.0  0.06340  0.79900  0.62000  1.0000
  S   S17       1.0  0.13300  0.29600  0.71700  1.0000
  S   S18       1.0  0.63300  0.20400  0.71700  1.0000
  S   S19       1.0  0.85400  0.81600  0.80600  1.0000
  S   S20       1.0  0.35400  0.68400  0.80600  1.0000
  S   S21       1.0  0.93600  0.31200  0.90800  1.0000
  S   S22       1.0  0.43600  0.18800  0.90800  1.0000
  S   S23       1.0  0.68600  0.52100  0.95000  1.0000
  S   S24       1.0  0.18600  0.97900  0.95000  1.0000
  Sm  Sm1       1.0  0.90900  0.39000  0.15300  1.0000
  Sm  Sm2       1.0  0.40900  0.11000  0.15300  1.0000
  Sm  Sm3       1.0  0.59100  0.89000  0.84700  1.0000
  Sm  Sm4       1.0  0.09080  0.61000  0.84700  1.0000
