data_image0
_chemical_formula_structural       Cs4O26P8Ti2
_chemical_formula_sum              "Cs4 O26 P8 Ti2"
_cell_length_a       5.1065
_cell_length_b       7.87727
_cell_length_c       15.4179
_cell_angle_alpha    83.7937
_cell_angle_beta     83.8296
_cell_angle_gamma    80.7644

_space_group_name_H-M_alt    "P 1"
_space_group_IT_number       1

loop_
  _space_group_symop_operation_xyz
  'x, y, z'

loop_
  _atom_site_type_symbol
  _atom_site_label
  _atom_site_symmetry_multiplicity
  _atom_site_fract_x
  _atom_site_fract_y
  _atom_site_fract_z
  _atom_site_occupancy
  Cs  Cs1       1.0  0.33500  0.25400  0.01250  1.0000
  Cs  Cs2       1.0  0.74300  0.70800  0.46600  1.0000
  Cs  Cs3       1.0  0.25700  0.29200  0.53400  1.0000
  Cs  Cs4       1.0  0.66500  0.74600  0.98700  1.0000
  O   O1        1.0  0.12100  0.83500  0.07510  1.0000
  O   O2        1.0  0.82600  0.42100  0.10500  1.0000
  O   O3        1.0  0.71100  0.96400  0.16900  1.0000
  O   O4        1.0  0.16400  0.03860  0.18800  1.0000
  O   O5        1.0  0.46200  0.29000  0.20600  1.0000
  O   O6        1.0  0.51700  0.60000  0.20700  1.0000
  O   O7        1.0  0.04650  0.74100  0.24000  1.0000
  O   O8        1.0  0.85800  0.36700  0.27100  1.0000
  O   O9        1.0  0.42100  0.82300  0.31300  1.0000
  O   O10       1.0  0.71400  0.08190  0.33600  1.0000
  O   O11       1.0  0.17200  0.14500  0.35300  1.0000
  O   O12       1.0  0.26200  0.53300  0.36000  1.0000
  O   O13       1.0  0.77700  0.30600  0.43700  1.0000
  O   O14       1.0  0.22300  0.69400  0.56300  1.0000
  O   O15       1.0  0.73800  0.46700  0.64000  1.0000
  O   O16       1.0  0.82800  0.85500  0.64700  1.0000
  O   O17       1.0  0.28600  0.91800  0.66400  1.0000
  O   O18       1.0  0.57900  0.17700  0.68700  1.0000
  O   O19       1.0  0.14200  0.63300  0.72900  1.0000
  O   O20       1.0  0.95400  0.25900  0.76000  1.0000
  O   O21       1.0  0.48300  0.40000  0.79300  1.0000
  O   O22       1.0  0.53800  0.71000  0.79400  1.0000
  O   O23       1.0  0.83600  0.96100  0.81200  1.0000
  O   O24       1.0  0.28900  0.03640  0.83100  1.0000
  O   O25       1.0  0.17400  0.57900  0.89500  1.0000
  O   O26       1.0  0.87900  0.16500  0.92500  1.0000
  P   P1        1.0  0.01270  0.89900  0.16100  1.0000
  P   P2        1.0  0.67400  0.41000  0.19200  1.0000
  P   P3        1.0  0.31000  0.66700  0.28800  1.0000
  P   P4        1.0  0.87500  0.22300  0.35600  1.0000
  P   P5        1.0  0.12500  0.77700  0.64400  1.0000
  P   P6        1.0  0.69000  0.33300  0.71200  1.0000
  P   P7        1.0  0.32600  0.59000  0.80800  1.0000
  P   P8        1.0  0.98700  0.10100  0.83900  1.0000
  Ti  Ti1       1.0  0.44000  0.05810  0.26200  1.0000
  Ti  Ti2       1.0  0.56000  0.94200  0.73800  1.0000
