data_image0
_chemical_formula_structural       Au4Ba8Tl28
_chemical_formula_sum              "Au4 Ba8 Tl28"
_cell_length_a       22.0785
_cell_length_b       5.23468
_cell_length_c       10.5786
_cell_angle_alpha    90
_cell_angle_beta     90
_cell_angle_gamma    90

_space_group_name_H-M_alt    "P 1"
_space_group_IT_number       1

loop_
  _space_group_symop_operation_xyz
  'x, y, z'

loop_
  _atom_site_type_symbol
  _atom_site_label
  _atom_site_symmetry_multiplicity
  _atom_site_fract_x
  _atom_site_fract_y
  _atom_site_fract_z
  _atom_site_occupancy
  Au  Au1       1.0  0.17400  0.25000  0.24100  1.0000
  Au  Au2       1.0  0.67400  0.25000  0.25900  1.0000
  Au  Au3       1.0  0.32600  0.75000  0.74100  1.0000
  Au  Au4       1.0  0.82600  0.75000  0.75900  1.0000
  Ba  Ba1       1.0  0.21100  0.75000  0.00436  1.0000
  Ba  Ba2       1.0  0.04090  0.75000  0.25000  1.0000
  Ba  Ba3       1.0  0.54100  0.75000  0.25000  1.0000
  Ba  Ba4       1.0  0.71100  0.75000  0.49600  1.0000
  Ba  Ba5       1.0  0.28900  0.25000  0.50400  1.0000
  Ba  Ba6       1.0  0.45900  0.25000  0.75000  1.0000
  Ba  Ba7       1.0  0.95900  0.25000  0.75000  1.0000
  Ba  Ba8       1.0  0.78900  0.25000  0.99600  1.0000
  Tl  Tl1       1.0  0.60300  0.25000  0.02530  1.0000
  Tl  Tl2       1.0  0.08920  0.25000  0.03970  1.0000
  Tl  Tl3       1.0  0.45100  0.25000  0.09770  1.0000
  Tl  Tl4       1.0  0.94600  0.25000  0.10500  1.0000
  Tl  Tl5       1.0  0.30000  0.25000  0.14700  1.0000
  Tl  Tl6       1.0  0.70400  0.75000  0.15100  1.0000
  Tl  Tl7       1.0  0.85300  0.75000  0.23300  1.0000
  Tl  Tl8       1.0  0.35300  0.75000  0.26700  1.0000
  Tl  Tl9       1.0  0.20400  0.75000  0.34900  1.0000
  Tl  Tl10      1.0  0.80000  0.25000  0.35300  1.0000
  Tl  Tl11      1.0  0.44600  0.25000  0.39500  1.0000
  Tl  Tl12      1.0  0.95100  0.25000  0.40200  1.0000
  Tl  Tl13      1.0  0.58900  0.25000  0.46000  1.0000
  Tl  Tl14      1.0  0.10300  0.25000  0.47500  1.0000
  Tl  Tl15      1.0  0.89700  0.75000  0.52500  1.0000
  Tl  Tl16      1.0  0.41100  0.75000  0.54000  1.0000
  Tl  Tl17      1.0  0.04910  0.75000  0.59800  1.0000
  Tl  Tl18      1.0  0.55400  0.75000  0.60500  1.0000
  Tl  Tl19      1.0  0.20000  0.75000  0.64700  1.0000
  Tl  Tl20      1.0  0.79600  0.25000  0.65100  1.0000
  Tl  Tl21      1.0  0.64700  0.25000  0.73300  1.0000
  Tl  Tl22      1.0  0.14700  0.25000  0.76700  1.0000
  Tl  Tl23      1.0  0.29600  0.25000  0.84900  1.0000
  Tl  Tl24      1.0  0.70000  0.75000  0.85300  1.0000
  Tl  Tl25      1.0  0.05350  0.75000  0.89500  1.0000
  Tl  Tl26      1.0  0.54900  0.75000  0.90200  1.0000
  Tl  Tl27      1.0  0.91100  0.75000  0.96000  1.0000
  Tl  Tl28      1.0  0.39700  0.75000  0.97500  1.0000
