data_image0
_chemical_formula_structural       Ag4N8O24Rb4
_chemical_formula_sum              "Ag4 N8 O24 Rb4"
_cell_length_a       13.5861
_cell_length_b       4.96594
_cell_length_c       8.10668
_cell_angle_alpha    90
_cell_angle_beta     94.5014
_cell_angle_gamma    90

_space_group_name_H-M_alt    "P 1"
_space_group_IT_number       1

loop_
  _space_group_symop_operation_xyz
  'x, y, z'

loop_
  _atom_site_type_symbol
  _atom_site_label
  _atom_site_symmetry_multiplicity
  _atom_site_fract_x
  _atom_site_fract_y
  _atom_site_fract_z
  _atom_site_occupancy
  Ag  Ag1       1.0  0.77400  0.07640  0.20100  1.0000
  Ag  Ag2       1.0  0.27400  0.42400  0.20100  1.0000
  Ag  Ag3       1.0  0.72600  0.57600  0.79900  1.0000
  Ag  Ag4       1.0  0.22600  0.92400  0.79900  1.0000
  N   N1        1.0  0.89700  0.53300  0.06160  1.0000
  N   N2        1.0  0.39700  0.96700  0.06160  1.0000
  N   N3        1.0  0.83500  0.62900  0.43700  1.0000
  N   N4        1.0  0.33500  0.87100  0.43700  1.0000
  N   N5        1.0  0.66500  0.12900  0.56300  1.0000
  N   N6        1.0  0.16500  0.37100  0.56300  1.0000
  N   N7        1.0  0.10300  0.46700  0.93800  1.0000
  N   N8        1.0  0.60300  0.03280  0.93800  1.0000
  O   O1        1.0  0.16000  0.64200  0.01460  1.0000
  O   O2        1.0  0.66000  0.85800  0.01460  1.0000
  O   O3        1.0  0.88900  0.77800  0.02130  1.0000
  O   O4        1.0  0.38900  0.72200  0.02130  1.0000
  O   O5        1.0  0.95900  0.45600  0.17600  1.0000
  O   O6        1.0  0.45900  0.04400  0.17600  1.0000
  O   O7        1.0  0.27400  0.97000  0.32700  1.0000
  O   O8        1.0  0.77400  0.53000  0.32700  1.0000
  O   O9        1.0  0.87200  0.86200  0.41200  1.0000
  O   O10       1.0  0.37200  0.63800  0.41200  1.0000
  O   O11       1.0  0.64200  0.00745  0.43000  1.0000
  O   O12       1.0  0.14200  0.49300  0.43000  1.0000
  O   O13       1.0  0.85800  0.50700  0.57000  1.0000
  O   O14       1.0  0.35800  0.99300  0.57000  1.0000
  O   O15       1.0  0.12800  0.13800  0.58800  1.0000
  O   O16       1.0  0.62800  0.36200  0.58800  1.0000
  O   O17       1.0  0.72600  0.03040  0.67300  1.0000
  O   O18       1.0  0.22600  0.47000  0.67300  1.0000
  O   O19       1.0  0.54100  0.95600  0.82400  1.0000
  O   O20       1.0  0.04140  0.54400  0.82400  1.0000
  O   O21       1.0  0.61100  0.27800  0.97900  1.0000
  O   O22       1.0  0.11100  0.22200  0.97900  1.0000
  O   O23       1.0  0.84000  0.35800  0.98500  1.0000
  O   O24       1.0  0.34000  0.14200  0.98500  1.0000
  Rb  Rb1       1.0  0.05840  0.95700  0.26700  1.0000
  Rb  Rb2       1.0  0.55800  0.54300  0.26700  1.0000
  Rb  Rb3       1.0  0.94200  0.04310  0.73300  1.0000
  Rb  Rb4       1.0  0.44200  0.45700  0.73300  1.0000
