data_image0
_chemical_formula_structural       Cu4F28K4Zr4
_chemical_formula_sum              "Cu4 F28 K4 Zr4"
_cell_length_a       7.50154
_cell_length_b       7.50154
_cell_length_c       9.96083
_cell_angle_alpha    90
_cell_angle_beta     90
_cell_angle_gamma    114.754

_space_group_name_H-M_alt    "P 1"
_space_group_IT_number       1

loop_
  _space_group_symop_operation_xyz
  'x, y, z'

loop_
  _atom_site_type_symbol
  _atom_site_label
  _atom_site_symmetry_multiplicity
  _atom_site_fract_x
  _atom_site_fract_y
  _atom_site_fract_z
  _atom_site_occupancy
  Cu  Cu1       1.0  0.63300  0.36700  0.07280  1.0000
  Cu  Cu2       1.0  0.63300  0.36700  0.42700  1.0000
  Cu  Cu3       1.0  0.36700  0.63300  0.57300  1.0000
  Cu  Cu4       1.0  0.36700  0.63300  0.92700  1.0000
  F   F1        1.0  0.50000  0.50000  0.00000  1.0000
  F   F2        1.0  0.36700  0.11400  0.01090  1.0000
  F   F3        1.0  0.88600  0.63300  0.01090  1.0000
  F   F4        1.0  0.97400  0.02640  0.11500  1.0000
  F   F5        1.0  0.29500  0.70500  0.11500  1.0000
  F   F6        1.0  0.77900  0.22100  0.12000  1.0000
  F   F7        1.0  0.28300  0.01290  0.25000  1.0000
  F   F8        1.0  0.57100  0.42900  0.25000  1.0000
  F   F9        1.0  0.98700  0.71700  0.25000  1.0000
  F   F10       1.0  0.77900  0.22100  0.38000  1.0000
  F   F11       1.0  0.29500  0.70500  0.38500  1.0000
  F   F12       1.0  0.97400  0.02640  0.38500  1.0000
  F   F13       1.0  0.36700  0.11400  0.48900  1.0000
  F   F14       1.0  0.88600  0.63300  0.48900  1.0000
  F   F15       1.0  0.50000  0.50000  0.50000  1.0000
  F   F16       1.0  0.11400  0.36700  0.51100  1.0000
  F   F17       1.0  0.63300  0.88600  0.51100  1.0000
  F   F18       1.0  0.02640  0.97400  0.61500  1.0000
  F   F19       1.0  0.70500  0.29500  0.61500  1.0000
  F   F20       1.0  0.22100  0.77900  0.62000  1.0000
  F   F21       1.0  0.01290  0.28300  0.75000  1.0000
  F   F22       1.0  0.42900  0.57100  0.75000  1.0000
  F   F23       1.0  0.71700  0.98700  0.75000  1.0000
  F   F24       1.0  0.22100  0.77900  0.88000  1.0000
  F   F25       1.0  0.70500  0.29500  0.88500  1.0000
  F   F26       1.0  0.02640  0.97400  0.88500  1.0000
  F   F27       1.0  0.11400  0.36700  0.98900  1.0000
  F   F28       1.0  0.63300  0.88600  0.98900  1.0000
  K   K1        1.0  0.16600  0.36400  0.25000  1.0000
  K   K2        1.0  0.63600  0.83400  0.25000  1.0000
  K   K3        1.0  0.36400  0.16600  0.75000  1.0000
  K   K4        1.0  0.83400  0.63600  0.75000  1.0000
  Zr  Zr1       1.0  0.13500  0.86500  0.06780  1.0000
  Zr  Zr2       1.0  0.13500  0.86500  0.43200  1.0000
  Zr  Zr3       1.0  0.86500  0.13500  0.56800  1.0000
  Zr  Zr4       1.0  0.86500  0.13500  0.93200  1.0000
