data_image0
_chemical_formula_structural       Bi8Cs8S20Zn4
_chemical_formula_sum              "Bi8 Cs8 S20 Zn4"
_cell_length_a       15.949
_cell_length_b       4.14031
_cell_length_c       18.3554
_cell_angle_alpha    90
_cell_angle_beta     90
_cell_angle_gamma    90

_space_group_name_H-M_alt    "P 1"
_space_group_IT_number       1

loop_
  _space_group_symop_operation_xyz
  'x, y, z'

loop_
  _atom_site_type_symbol
  _atom_site_label
  _atom_site_symmetry_multiplicity
  _atom_site_fract_x
  _atom_site_fract_y
  _atom_site_fract_z
  _atom_site_occupancy
  Bi  Bi1       1.0  0.25100  0.25000  0.01670  1.0000
  Bi  Bi2       1.0  0.20800  0.75000  0.19800  1.0000
  Bi  Bi3       1.0  0.70800  0.75000  0.30200  1.0000
  Bi  Bi4       1.0  0.75100  0.25000  0.48300  1.0000
  Bi  Bi5       1.0  0.24900  0.75000  0.51700  1.0000
  Bi  Bi6       1.0  0.29200  0.25000  0.69800  1.0000
  Bi  Bi7       1.0  0.79200  0.25000  0.80200  1.0000
  Bi  Bi8       1.0  0.74900  0.75000  0.98300  1.0000
  Cs  Cs1       1.0  0.96100  0.25000  0.11900  1.0000
  Cs  Cs2       1.0  0.49300  0.75000  0.12200  1.0000
  Cs  Cs3       1.0  0.99300  0.75000  0.37800  1.0000
  Cs  Cs4       1.0  0.46100  0.25000  0.38100  1.0000
  Cs  Cs5       1.0  0.53900  0.75000  0.61900  1.0000
  Cs  Cs6       1.0  0.00651  0.25000  0.62200  1.0000
  Cs  Cs7       1.0  0.50700  0.25000  0.87800  1.0000
  Cs  Cs8       1.0  0.03940  0.75000  0.88100  1.0000
  S   S1        1.0  0.64100  0.25000  0.02860  1.0000
  S   S2        1.0  0.13300  0.75000  0.06200  1.0000
  S   S3        1.0  0.31800  0.25000  0.14900  1.0000
  S   S4        1.0  0.78500  0.75000  0.15600  1.0000
  S   S5        1.0  0.60700  0.25000  0.24300  1.0000
  S   S6        1.0  0.10700  0.25000  0.25700  1.0000
  S   S7        1.0  0.28500  0.75000  0.34400  1.0000
  S   S8        1.0  0.81800  0.25000  0.35100  1.0000
  S   S9        1.0  0.63300  0.75000  0.43800  1.0000
  S   S10       1.0  0.14100  0.25000  0.47100  1.0000
  S   S11       1.0  0.85900  0.75000  0.52900  1.0000
  S   S12       1.0  0.36700  0.25000  0.56200  1.0000
  S   S13       1.0  0.18200  0.75000  0.64900  1.0000
  S   S14       1.0  0.71500  0.25000  0.65600  1.0000
  S   S15       1.0  0.89300  0.75000  0.74300  1.0000
  S   S16       1.0  0.39300  0.75000  0.75700  1.0000
  S   S17       1.0  0.21500  0.25000  0.84400  1.0000
  S   S18       1.0  0.68200  0.75000  0.85100  1.0000
  S   S19       1.0  0.86700  0.25000  0.93800  1.0000
  S   S20       1.0  0.35900  0.75000  0.97100  1.0000
  Zn  Zn1       1.0  0.70500  0.25000  0.14500  1.0000
  Zn  Zn2       1.0  0.20500  0.25000  0.35500  1.0000
  Zn  Zn3       1.0  0.79500  0.75000  0.64500  1.0000
  Zn  Zn4       1.0  0.29500  0.75000  0.85500  1.0000
