data_image0
_chemical_formula_structural       Cu6La8Mo2O24
_chemical_formula_sum              "Cu6 La8 Mo2 O24"
_cell_length_a       7.88454
_cell_length_b       6.80579
_cell_length_c       10.9297
_cell_angle_alpha    90
_cell_angle_beta     90
_cell_angle_gamma    90.2624

_space_group_name_H-M_alt    "P 1"
_space_group_IT_number       1

loop_
  _space_group_symop_operation_xyz
  'x, y, z'

loop_
  _atom_site_type_symbol
  _atom_site_label
  _atom_site_symmetry_multiplicity
  _atom_site_fract_x
  _atom_site_fract_y
  _atom_site_fract_z
  _atom_site_occupancy
  Cu  Cu1       1.0  0.87600  0.46300  0.25000  1.0000
  Cu  Cu2       1.0  0.64800  0.88300  0.25000  1.0000
  Cu  Cu3       1.0  0.09230  0.89300  0.25000  1.0000
  Cu  Cu4       1.0  0.90800  0.10700  0.75000  1.0000
  Cu  Cu5       1.0  0.35200  0.11700  0.75000  1.0000
  Cu  Cu6       1.0  0.12400  0.53700  0.75000  1.0000
  La  La1       1.0  0.12000  0.25000  0.00048  1.0000
  La  La2       1.0  0.63100  0.23800  0.00292  1.0000
  La  La3       1.0  0.63100  0.23800  0.49700  1.0000
  La  La4       1.0  0.12000  0.25000  0.50000  1.0000
  La  La5       1.0  0.88000  0.75000  0.50000  1.0000
  La  La6       1.0  0.36900  0.76200  0.50300  1.0000
  La  La7       1.0  0.36900  0.76200  0.99700  1.0000
  La  La8       1.0  0.88000  0.75000  0.00000  1.0000
  Mo  Mo1       1.0  0.37700  0.42000  0.25000  1.0000
  Mo  Mo2       1.0  0.62300  0.58000  0.75000  1.0000
  O   O1        1.0  0.37700  0.42000  0.07440  1.0000
  O   O2        1.0  0.62500  0.91400  0.08380  1.0000
  O   O3        1.0  0.87500  0.41400  0.08460  1.0000
  O   O4        1.0  0.12400  0.91700  0.08480  1.0000
  O   O5        1.0  0.57700  0.28100  0.25000  1.0000
  O   O6        1.0  0.17400  0.28800  0.25000  1.0000
  O   O7        1.0  0.38100  0.69200  0.25000  1.0000
  O   O8        1.0  0.87200  0.75400  0.25000  1.0000
  O   O9        1.0  0.12400  0.91700  0.41500  1.0000
  O   O10       1.0  0.87500  0.41400  0.41500  1.0000
  O   O11       1.0  0.62500  0.91400  0.41600  1.0000
  O   O12       1.0  0.37700  0.42000  0.42600  1.0000
  O   O13       1.0  0.62300  0.58000  0.57400  1.0000
  O   O14       1.0  0.37500  0.08580  0.58400  1.0000
  O   O15       1.0  0.12500  0.58600  0.58500  1.0000
  O   O16       1.0  0.87600  0.08320  0.58500  1.0000
  O   O17       1.0  0.12800  0.24600  0.75000  1.0000
  O   O18       1.0  0.61900  0.30800  0.75000  1.0000
  O   O19       1.0  0.82600  0.71200  0.75000  1.0000
  O   O20       1.0  0.42300  0.71900  0.75000  1.0000
  O   O21       1.0  0.87600  0.08320  0.91500  1.0000
  O   O22       1.0  0.12500  0.58600  0.91500  1.0000
  O   O23       1.0  0.37500  0.08580  0.91600  1.0000
  O   O24       1.0  0.62300  0.58000  0.92600  1.0000
