data_image0
_chemical_formula_structural       C8F4H26N2
_chemical_formula_sum              "C8 F4 H26 N2"
_cell_length_a       6.20806
_cell_length_b       8.38115
_cell_length_c       5.09407
_cell_angle_alpha    90
_cell_angle_beta     90
_cell_angle_gamma    90

_space_group_name_H-M_alt    "P 1"
_space_group_IT_number       1

loop_
  _space_group_symop_operation_xyz
  'x, y, z'

loop_
  _atom_site_type_symbol
  _atom_site_label
  _atom_site_symmetry_multiplicity
  _atom_site_fract_x
  _atom_site_fract_y
  _atom_site_fract_z
  _atom_site_occupancy
  C   C1        1.0  0.25000  0.60400  0.14200  1.0000
  C   C2        1.0  0.25000  0.89600  0.14200  1.0000
  C   C3        1.0  0.55500  0.25000  0.19600  1.0000
  C   C4        1.0  0.94500  0.25000  0.19600  1.0000
  C   C5        1.0  0.05460  0.75000  0.80400  1.0000
  C   C6        1.0  0.44500  0.75000  0.80400  1.0000
  C   C7        1.0  0.75000  0.10400  0.85800  1.0000
  C   C8        1.0  0.75000  0.39600  0.85800  1.0000
  F   F1        1.0  0.75000  0.61300  0.35900  1.0000
  F   F2        1.0  0.75000  0.88700  0.35900  1.0000
  F   F3        1.0  0.25000  0.11300  0.64100  1.0000
  F   F4        1.0  0.25000  0.38700  0.64100  1.0000
  H   H1        1.0  0.25000  0.50100  0.00947  1.0000
  H   H2        1.0  0.25000  0.99900  0.00947  1.0000
  H   H3        1.0  0.08620  0.25000  0.06710  1.0000
  H   H4        1.0  0.41400  0.25000  0.06710  1.0000
  H   H5        1.0  0.10400  0.60500  0.26200  1.0000
  H   H6        1.0  0.39600  0.60500  0.26200  1.0000
  H   H7        1.0  0.10400  0.89500  0.26200  1.0000
  H   H8        1.0  0.39600  0.89500  0.26200  1.0000
  H   H9        1.0  0.55600  0.14200  0.31700  1.0000
  H   H10       1.0  0.94400  0.14200  0.31700  1.0000
  H   H11       1.0  0.55600  0.35800  0.31700  1.0000
  H   H12       1.0  0.94400  0.35800  0.31700  1.0000
  H   H13       1.0  0.75000  0.75000  0.36100  1.0000
  H   H14       1.0  0.25000  0.25000  0.63900  1.0000
  H   H15       1.0  0.05620  0.64200  0.68300  1.0000
  H   H16       1.0  0.44400  0.64200  0.68300  1.0000
  H   H17       1.0  0.05620  0.85800  0.68300  1.0000
  H   H18       1.0  0.44400  0.85800  0.68300  1.0000
  H   H19       1.0  0.60400  0.10500  0.73800  1.0000
  H   H20       1.0  0.89600  0.10500  0.73800  1.0000
  H   H21       1.0  0.60400  0.39500  0.73800  1.0000
  H   H22       1.0  0.89600  0.39500  0.73800  1.0000
  H   H23       1.0  0.58600  0.75000  0.93300  1.0000
  H   H24       1.0  0.91400  0.75000  0.93300  1.0000
  H   H25       1.0  0.75000  0.00115  0.99100  1.0000
  H   H26       1.0  0.75000  0.49900  0.99100  1.0000
  N   N1        1.0  0.75000  0.25000  0.02620  1.0000
  N   N2        1.0  0.25000  0.75000  0.97400  1.0000
