data_image0
_chemical_formula_structural       Ca2Cr4Cu6O24Sb4
_chemical_formula_sum              "Ca2 Cr4 Cu6 O24 Sb4"
_cell_length_a       7.48546
_cell_length_b       7.48546
_cell_length_c       7.48546
_cell_angle_alpha    90
_cell_angle_beta     90
_cell_angle_gamma    90

_space_group_name_H-M_alt    "P 1"
_space_group_IT_number       1

loop_
  _space_group_symop_operation_xyz
  'x, y, z'

loop_
  _atom_site_type_symbol
  _atom_site_label
  _atom_site_symmetry_multiplicity
  _atom_site_fract_x
  _atom_site_fract_y
  _atom_site_fract_z
  _atom_site_occupancy
  Ca  Ca1       1.0  0.25000  0.25000  0.25000  1.0000
  Ca  Ca2       1.0  0.75000  0.75000  0.75000  1.0000
  Cr  Cr1       1.0  0.50000  0.00000  0.00000  1.0000
  Cr  Cr2       1.0  0.00000  0.50000  0.00000  1.0000
  Cr  Cr3       1.0  0.00000  0.00000  0.50000  1.0000
  Cr  Cr4       1.0  0.50000  0.50000  0.50000  1.0000
  Cu  Cu1       1.0  0.75000  0.25000  0.25000  1.0000
  Cu  Cu2       1.0  0.25000  0.75000  0.25000  1.0000
  Cu  Cu3       1.0  0.75000  0.75000  0.25000  1.0000
  Cu  Cu4       1.0  0.25000  0.25000  0.75000  1.0000
  Cu  Cu5       1.0  0.75000  0.25000  0.75000  1.0000
  Cu  Cu6       1.0  0.25000  0.75000  0.75000  1.0000
  O   O1        1.0  0.74900  0.57600  0.05570  1.0000
  O   O2        1.0  0.75100  0.92400  0.05570  1.0000
  O   O3        1.0  0.94400  0.24900  0.07560  1.0000
  O   O4        1.0  0.55600  0.25100  0.07560  1.0000
  O   O5        1.0  0.42400  0.55600  0.24900  1.0000
  O   O6        1.0  0.07560  0.94400  0.24900  1.0000
  O   O7        1.0  0.07560  0.55600  0.25100  1.0000
  O   O8        1.0  0.42400  0.94400  0.25100  1.0000
  O   O9        1.0  0.55600  0.24900  0.42400  1.0000
  O   O10       1.0  0.94400  0.25100  0.42400  1.0000
  O   O11       1.0  0.75100  0.57600  0.44400  1.0000
  O   O12       1.0  0.74900  0.92400  0.44400  1.0000
  O   O13       1.0  0.25100  0.07560  0.55600  1.0000
  O   O14       1.0  0.24900  0.42400  0.55600  1.0000
  O   O15       1.0  0.05570  0.74900  0.57600  1.0000
  O   O16       1.0  0.44400  0.75100  0.57600  1.0000
  O   O17       1.0  0.57600  0.05570  0.74900  1.0000
  O   O18       1.0  0.92400  0.44400  0.74900  1.0000
  O   O19       1.0  0.92400  0.05570  0.75100  1.0000
  O   O20       1.0  0.57600  0.44400  0.75100  1.0000
  O   O21       1.0  0.44400  0.74900  0.92400  1.0000
  O   O22       1.0  0.05570  0.75100  0.92400  1.0000
  O   O23       1.0  0.24900  0.07560  0.94400  1.0000
  O   O24       1.0  0.25100  0.42400  0.94400  1.0000
  Sb  Sb1       1.0  0.00000  0.00000  0.00000  1.0000
  Sb  Sb2       1.0  0.50000  0.50000  0.00000  1.0000
  Sb  Sb3       1.0  0.50000  0.00000  0.50000  1.0000
  Sb  Sb4       1.0  0.00000  0.50000  0.50000  1.0000
