data_image0
_chemical_formula_structural       B3BiO6
_chemical_formula_sum              "B3 Bi1 O6"
_cell_length_a       3.99335
_cell_length_b       4.25027
_cell_length_c       6.34933
_cell_angle_alpha    103.2
_cell_angle_beta     94.4179
_cell_angle_gamma    62.8351

_space_group_name_H-M_alt    "P 1"
_space_group_IT_number       1

loop_
  _space_group_symop_operation_xyz
  'x, y, z'

loop_
  _atom_site_type_symbol
  _atom_site_label
  _atom_site_symmetry_multiplicity
  _atom_site_fract_x
  _atom_site_fract_y
  _atom_site_fract_z
  _atom_site_occupancy
  B   B1        1.0  0.26700  0.54600  0.35200  1.0000
  B   B2        1.0  0.37300  0.05460  0.55800  1.0000
  B   B3        1.0  0.69300  0.50100  0.69900  1.0000
  Bi  Bi1       1.0  0.94300  0.00000  0.00961  1.0000
  O   O1        1.0  0.12700  0.42100  0.17300  1.0000
  O   O2        1.0  0.26800  0.87200  0.36100  1.0000
  O   O3        1.0  0.46600  0.34400  0.50900  1.0000
  O   O4        1.0  0.71100  0.79500  0.63400  1.0000
  O   O5        1.0  0.06560  0.21900  0.71800  1.0000
  O   O6        1.0  0.50600  0.59500  0.90200  1.0000
