data_image0
_chemical_formula_structural       Ag8C16O16
_chemical_formula_sum              "Ag8 C16 O16"
_cell_length_a       7.03207
_cell_length_b       7.44145
_cell_length_c       10.5037
_cell_angle_alpha    101.825
_cell_angle_beta     109.557
_cell_angle_gamma    90

_space_group_name_H-M_alt    "P 1"
_space_group_IT_number       1

loop_
  _space_group_symop_operation_xyz
  'x, y, z'

loop_
  _atom_site_type_symbol
  _atom_site_label
  _atom_site_symmetry_multiplicity
  _atom_site_fract_x
  _atom_site_fract_y
  _atom_site_fract_z
  _atom_site_occupancy
  Ag  Ag1       1.0  0.08390  0.69700  0.16900  1.0000
  Ag  Ag2       1.0  0.08480  0.19700  0.16900  1.0000
  Ag  Ag3       1.0  0.85800  0.93500  0.30900  1.0000
  Ag  Ag4       1.0  0.45100  0.43500  0.30900  1.0000
  Ag  Ag5       1.0  0.14200  0.06540  0.69100  1.0000
  Ag  Ag6       1.0  0.54900  0.56500  0.69100  1.0000
  Ag  Ag7       1.0  0.91600  0.30300  0.83100  1.0000
  Ag  Ag8       1.0  0.91500  0.80300  0.83100  1.0000
  C   C1        1.0  0.36200  0.47900  0.01030  1.0000
  C   C2        1.0  0.64800  0.97900  0.01030  1.0000
  C   C3        1.0  0.54600  0.08880  0.09740  1.0000
  C   C4        1.0  0.55100  0.58900  0.09740  1.0000
  C   C5        1.0  0.39600  0.98200  0.40100  1.0000
  C   C6        1.0  0.00552  0.48200  0.40100  1.0000
  C   C7        1.0  0.49100  0.85900  0.49300  1.0000
  C   C8        1.0  0.00184  0.35900  0.49300  1.0000
  C   C9        1.0  0.99800  0.64100  0.50700  1.0000
  C   C10       1.0  0.50900  0.14100  0.50700  1.0000
  C   C11       1.0  0.60400  0.01800  0.59900  1.0000
  C   C12       1.0  0.99400  0.51800  0.59900  1.0000
  C   C13       1.0  0.45400  0.91100  0.90300  1.0000
  C   C14       1.0  0.44900  0.41100  0.90300  1.0000
  C   C15       1.0  0.63800  0.52100  0.99000  1.0000
  C   C16       1.0  0.35200  0.02140  0.99000  1.0000
  O   O1        1.0  0.19300  0.45400  0.02520  1.0000
  O   O2        1.0  0.83200  0.95400  0.02520  1.0000
  O   O3        1.0  0.60900  0.19300  0.21600  1.0000
  O   O4        1.0  0.60700  0.69300  0.21600  1.0000
  O   O5        1.0  0.01450  0.46200  0.28100  1.0000
  O   O6        1.0  0.26600  0.96200  0.28100  1.0000
  O   O7        1.0  0.48000  0.68800  0.48500  1.0000
  O   O8        1.0  0.00526  0.18800  0.48500  1.0000
  O   O9        1.0  0.52000  0.31200  0.51500  1.0000
  O   O10       1.0  0.99500  0.81200  0.51500  1.0000
  O   O11       1.0  0.73400  0.03840  0.71900  1.0000
  O   O12       1.0  0.98500  0.53800  0.71900  1.0000
  O   O13       1.0  0.39100  0.80700  0.78400  1.0000
  O   O14       1.0  0.39300  0.30700  0.78400  1.0000
  O   O15       1.0  0.16800  0.04590  0.97500  1.0000
  O   O16       1.0  0.80700  0.54600  0.97500  1.0000
