data_image0
_chemical_formula_structural       Al6B8O24Pr2
_chemical_formula_sum              "Al6 B8 O24 Pr2"
_cell_length_a       5.93166
_cell_length_b       5.93166
_cell_length_c       11.0998
_cell_angle_alpha    97.9917
_cell_angle_beta     97.9917
_cell_angle_gamma    104.494

_space_group_name_H-M_alt    "P 1"
_space_group_IT_number       1

loop_
  _space_group_symop_operation_xyz
  'x, y, z'

loop_
  _atom_site_type_symbol
  _atom_site_label
  _atom_site_symmetry_multiplicity
  _atom_site_fract_x
  _atom_site_fract_y
  _atom_site_fract_z
  _atom_site_occupancy
  Al  Al1       1.0  0.30700  0.80500  0.02870  1.0000
  Al  Al2       1.0  0.41000  0.59000  0.25000  1.0000
  Al  Al3       1.0  0.19500  0.69300  0.47100  1.0000
  Al  Al4       1.0  0.80500  0.30700  0.52900  1.0000
  Al  Al5       1.0  0.59000  0.41000  0.75000  1.0000
  Al  Al6       1.0  0.69300  0.19500  0.97100  1.0000
  B   B1        1.0  0.22300  0.28100  0.00568  1.0000
  B   B2        1.0  0.87700  0.50800  0.22200  1.0000
  B   B3        1.0  0.49200  0.12300  0.27800  1.0000
  B   B4        1.0  0.71900  0.77700  0.49400  1.0000
  B   B5        1.0  0.28100  0.22300  0.50600  1.0000
  B   B6        1.0  0.50800  0.87700  0.72200  1.0000
  B   B7        1.0  0.12300  0.49200  0.77800  1.0000
  B   B8        1.0  0.77700  0.71900  0.99400  1.0000
  O   O1        1.0  0.63200  0.87000  0.00433  1.0000
  O   O2        1.0  0.00392  0.80500  0.06090  1.0000
  O   O3        1.0  0.30400  0.50800  0.07440  1.0000
  O   O4        1.0  0.81600  0.30500  0.13700  1.0000
  O   O5        1.0  0.42300  0.89800  0.20600  1.0000
  O   O6        1.0  0.72800  0.64500  0.24300  1.0000
  O   O7        1.0  0.35500  0.27200  0.25700  1.0000
  O   O8        1.0  0.10200  0.57700  0.29400  1.0000
  O   O9        1.0  0.69500  0.18400  0.36300  1.0000
  O   O10       1.0  0.49200  0.69600  0.42600  1.0000
  O   O11       1.0  0.19500  0.99600  0.43900  1.0000
  O   O12       1.0  0.13000  0.36800  0.49600  1.0000
  O   O13       1.0  0.87000  0.63200  0.50400  1.0000
  O   O14       1.0  0.80500  0.00392  0.56100  1.0000
  O   O15       1.0  0.50800  0.30400  0.57400  1.0000
  O   O16       1.0  0.30500  0.81600  0.63700  1.0000
  O   O17       1.0  0.89800  0.42300  0.70600  1.0000
  O   O18       1.0  0.64500  0.72800  0.74300  1.0000
  O   O19       1.0  0.27200  0.35500  0.75700  1.0000
  O   O20       1.0  0.57700  0.10200  0.79400  1.0000
  O   O21       1.0  0.18400  0.69500  0.86300  1.0000
  O   O22       1.0  0.69600  0.49200  0.92600  1.0000
  O   O23       1.0  0.99600  0.19500  0.93900  1.0000
  O   O24       1.0  0.36800  0.13000  0.99600  1.0000
  Pr  Pr1       1.0  0.96200  0.03780  0.25000  1.0000
  Pr  Pr2       1.0  0.03780  0.96200  0.75000  1.0000
