data_image0
_chemical_formula_structural       Fe4Li6O24P6
_chemical_formula_sum              "Fe4 Li6 O24 P6"
_cell_length_a       8.31127
_cell_length_b       8.31127
_cell_length_c       8.83158
_cell_angle_alpha    90
_cell_angle_beta     61.9305
_cell_angle_gamma    120

_space_group_name_H-M_alt    "P 1"
_space_group_IT_number       1

loop_
  _space_group_symop_operation_xyz
  'x, y, z'

loop_
  _atom_site_type_symbol
  _atom_site_label
  _atom_site_symmetry_multiplicity
  _atom_site_fract_x
  _atom_site_fract_y
  _atom_site_fract_z
  _atom_site_occupancy
  Fe  Fe1       1.0  0.30000  0.65000  0.05050  1.0000
  Fe  Fe2       1.0  0.71000  0.85500  0.43500  1.0000
  Fe  Fe3       1.0  0.29000  0.14500  0.56500  1.0000
  Fe  Fe4       1.0  0.70000  0.35000  0.94900  1.0000
  Li  Li1       1.0  0.93300  0.26400  0.14100  1.0000
  Li  Li2       1.0  0.59500  0.66900  0.14100  1.0000
  Li  Li3       1.0  0.19000  0.92600  0.14100  1.0000
  Li  Li4       1.0  0.81000  0.07420  0.85900  1.0000
  Li  Li5       1.0  0.40500  0.33100  0.85900  1.0000
  Li  Li6       1.0  0.06700  0.73600  0.85900  1.0000
  O   O1        1.0  0.69600  0.15700  0.09390  1.0000
  O   O2        1.0  0.36700  0.21000  0.09390  1.0000
  O   O3        1.0  0.74900  0.53900  0.09390  1.0000
  O   O4        1.0  0.30000  0.46900  0.19800  1.0000
  O   O5        1.0  0.97100  0.50100  0.19800  1.0000
  O   O6        1.0  0.33300  0.83100  0.19800  1.0000
  O   O7        1.0  0.98900  0.12600  0.26100  1.0000
  O   O8        1.0  0.87600  0.75000  0.26100  1.0000
  O   O9        1.0  0.61300  0.86300  0.26100  1.0000
  O   O10       1.0  0.18500  0.19200  0.42600  1.0000
  O   O11       1.0  0.58000  0.38800  0.42600  1.0000
  O   O12       1.0  0.38200  0.99400  0.42600  1.0000
  O   O13       1.0  0.61800  0.00617  0.57400  1.0000
  O   O14       1.0  0.42000  0.61200  0.57400  1.0000
  O   O15       1.0  0.81400  0.80800  0.57400  1.0000
  O   O16       1.0  0.38700  0.13700  0.73900  1.0000
  O   O17       1.0  0.12400  0.25000  0.73900  1.0000
  O   O18       1.0  0.01140  0.87400  0.73900  1.0000
  O   O19       1.0  0.66700  0.16900  0.80200  1.0000
  O   O20       1.0  0.02930  0.49900  0.80200  1.0000
  O   O21       1.0  0.70000  0.53100  0.80200  1.0000
  O   O22       1.0  0.25100  0.46100  0.90600  1.0000
  O   O23       1.0  0.63300  0.79000  0.90600  1.0000
  O   O24       1.0  0.30400  0.84300  0.90600  1.0000
  P   P1        1.0  0.20800  0.25000  0.25200  1.0000
  P   P2        1.0  0.79000  0.54000  0.25200  1.0000
  P   P3        1.0  0.49800  0.95800  0.25200  1.0000
  P   P4        1.0  0.50200  0.04190  0.74800  1.0000
  P   P5        1.0  0.21000  0.46000  0.74800  1.0000
  P   P6        1.0  0.79200  0.75000  0.74800  1.0000
