data_image0
_chemical_formula_structural       Na2O24Sb6Sr8
_chemical_formula_sum              "Na2 O24 Sb6 Sr8"
_cell_length_a       8.12079
_cell_length_b       8.10675
_cell_length_c       8.13022
_cell_angle_alpha    90
_cell_angle_beta     90.3376
_cell_angle_gamma    90

_space_group_name_H-M_alt    "P 1"
_space_group_IT_number       1

loop_
  _space_group_symop_operation_xyz
  'x, y, z'

loop_
  _atom_site_type_symbol
  _atom_site_label
  _atom_site_symmetry_multiplicity
  _atom_site_fract_x
  _atom_site_fract_y
  _atom_site_fract_z
  _atom_site_occupancy
  Na  Na1       1.0  0.00000  0.00000  0.00000  1.0000
  Na  Na2       1.0  0.50000  0.50000  0.50000  1.0000
  O   O1        1.0  0.54700  0.75000  0.02960  1.0000
  O   O2        1.0  0.27100  0.96200  0.03540  1.0000
  O   O3        1.0  0.25000  0.53900  0.03850  1.0000
  O   O4        1.0  0.02620  0.27000  0.04130  1.0000
  O   O5        1.0  0.53400  0.46400  0.23000  1.0000
  O   O6        1.0  0.96300  0.53900  0.25000  1.0000
  O   O7        1.0  0.53700  0.03910  0.25000  1.0000
  O   O8        1.0  0.96600  0.96400  0.27000  1.0000
  O   O9        1.0  0.47400  0.77000  0.45900  1.0000
  O   O10       1.0  0.25000  0.03880  0.46100  1.0000
  O   O11       1.0  0.22900  0.46200  0.46500  1.0000
  O   O12       1.0  0.95300  0.25000  0.47000  1.0000
  O   O13       1.0  0.04710  0.75000  0.53000  1.0000
  O   O14       1.0  0.77100  0.53800  0.53500  1.0000
  O   O15       1.0  0.75000  0.96100  0.53900  1.0000
  O   O16       1.0  0.52600  0.23000  0.54100  1.0000
  O   O17       1.0  0.03410  0.03560  0.73000  1.0000
  O   O18       1.0  0.46300  0.96100  0.75000  1.0000
  O   O19       1.0  0.03730  0.46100  0.75000  1.0000
  O   O20       1.0  0.46600  0.53600  0.77000  1.0000
  O   O21       1.0  0.97400  0.73000  0.95900  1.0000
  O   O22       1.0  0.75000  0.46100  0.96100  1.0000
  O   O23       1.0  0.72900  0.03790  0.96500  1.0000
  O   O24       1.0  0.45300  0.25000  0.97000  1.0000
  Sb  Sb1       1.0  0.50000  0.00000  0.00000  1.0000
  Sb  Sb2       1.0  0.00000  0.50000  0.00000  1.0000
  Sb  Sb3       1.0  0.50000  0.50000  0.00000  1.0000
  Sb  Sb4       1.0  0.50000  0.00000  0.50000  1.0000
  Sb  Sb5       1.0  0.00000  0.00000  0.50000  1.0000
  Sb  Sb6       1.0  0.00000  0.50000  0.50000  1.0000
  Sr  Sr1       1.0  0.76500  0.24500  0.22400  1.0000
  Sr  Sr2       1.0  0.26600  0.25400  0.23700  1.0000
  Sr  Sr3       1.0  0.23400  0.75400  0.26300  1.0000
  Sr  Sr4       1.0  0.73500  0.74500  0.27600  1.0000
  Sr  Sr5       1.0  0.26500  0.25500  0.72400  1.0000
  Sr  Sr6       1.0  0.76600  0.24600  0.73700  1.0000
  Sr  Sr7       1.0  0.73400  0.74600  0.76300  1.0000
  Sr  Sr8       1.0  0.23500  0.75500  0.77600  1.0000
