data_image0
_chemical_formula_structural       Na12Te36
_chemical_formula_sum              "Na12 Te36"
_cell_length_a       8.99719
_cell_length_b       8.99422
_cell_length_c       21.8058
_cell_angle_alpha    90.0037
_cell_angle_beta     90
_cell_angle_gamma    120.011

_space_group_name_H-M_alt    "P 1"
_space_group_IT_number       1

loop_
  _space_group_symop_operation_xyz
  'x, y, z'

loop_
  _atom_site_type_symbol
  _atom_site_label
  _atom_site_symmetry_multiplicity
  _atom_site_fract_x
  _atom_site_fract_y
  _atom_site_fract_z
  _atom_site_occupancy
  Na  Na1       1.0  0.33300  0.66700  0.45900  1.0000
  Na  Na2       1.0  0.66700  0.33300  0.04120  1.0000
  Na  Na3       1.0  0.66700  0.33300  0.54100  1.0000
  Na  Na4       1.0  0.33300  0.66700  0.95900  1.0000
  Na  Na5       1.0  0.00000  0.00000  0.62500  1.0000
  Na  Na6       1.0  0.00002  0.00003  0.87500  1.0000
  Na  Na7       1.0  0.00001  0.00003  0.37500  1.0000
  Na  Na8       1.0  0.00000  0.00000  0.12500  1.0000
  Na  Na9       1.0  0.33300  0.66700  0.70800  1.0000
  Na  Na10      1.0  0.66700  0.33300  0.79200  1.0000
  Na  Na11      1.0  0.66700  0.33300  0.29200  1.0000
  Na  Na12      1.0  0.33300  0.66700  0.20800  1.0000
  Te  Te1       1.0  0.47900  0.99400  0.12200  1.0000
  Te  Te2       1.0  0.00638  0.48500  0.12300  1.0000
  Te  Te3       1.0  0.51500  0.52100  0.12300  1.0000
  Te  Te4       1.0  0.48500  0.00599  0.37800  1.0000
  Te  Te5       1.0  0.52100  0.51500  0.37700  1.0000
  Te  Te6       1.0  0.99400  0.47900  0.37700  1.0000
  Te  Te7       1.0  0.52100  0.00599  0.87800  1.0000
  Te  Te8       1.0  0.99400  0.51500  0.87700  1.0000
  Te  Te9       1.0  0.48500  0.47900  0.87700  1.0000
  Te  Te10      1.0  0.51500  0.99400  0.62200  1.0000
  Te  Te11      1.0  0.47900  0.48500  0.62300  1.0000
  Te  Te12      1.0  0.00643  0.52100  0.62300  1.0000
  Te  Te13      1.0  0.80200  0.66400  0.20700  1.0000
  Te  Te14      1.0  0.33600  0.13800  0.20700  1.0000
  Te  Te15      1.0  0.86200  0.19700  0.20700  1.0000
  Te  Te16      1.0  0.13900  0.33600  0.29300  1.0000
  Te  Te17      1.0  0.19700  0.86200  0.29300  1.0000
  Te  Te18      1.0  0.66500  0.80300  0.29300  1.0000
  Te  Te19      1.0  0.19800  0.33600  0.79300  1.0000
  Te  Te20      1.0  0.66400  0.86200  0.79300  1.0000
  Te  Te21      1.0  0.13800  0.80300  0.79300  1.0000
  Te  Te22      1.0  0.86100  0.66400  0.70700  1.0000
  Te  Te23      1.0  0.80300  0.13800  0.70700  1.0000
  Te  Te24      1.0  0.33500  0.19700  0.70700  1.0000
  Te  Te25      1.0  0.67000  0.84000  0.54000  1.0000
  Te  Te26      1.0  0.16000  0.83000  0.54000  1.0000
  Te  Te27      1.0  0.17000  0.33000  0.54100  1.0000
  Te  Te28      1.0  0.83000  0.16000  0.96000  1.0000
  Te  Te29      1.0  0.33000  0.17000  0.96000  1.0000
  Te  Te30      1.0  0.84000  0.67000  0.95900  1.0000
  Te  Te31      1.0  0.33000  0.16000  0.46000  1.0000
  Te  Te32      1.0  0.84000  0.17000  0.46000  1.0000
  Te  Te33      1.0  0.83000  0.67000  0.45900  1.0000
  Te  Te34      1.0  0.17000  0.84000  0.04050  1.0000
  Te  Te35      1.0  0.67000  0.83000  0.04040  1.0000
  Te  Te36      1.0  0.16000  0.33000  0.04050  1.0000
