data_image0
_chemical_formula_structural       Ba2Mo4O28P6
_chemical_formula_sum              "Ba2 Mo4 O28 P6"
_cell_length_a       8.06004
_cell_length_b       8.06004
_cell_length_c       8.61456
_cell_angle_alpha    97.3232
_cell_angle_beta     97.3232
_cell_angle_gamma    73.1033

_space_group_name_H-M_alt    "P 1"
_space_group_IT_number       1

loop_
  _space_group_symop_operation_xyz
  'x, y, z'

loop_
  _atom_site_type_symbol
  _atom_site_label
  _atom_site_symmetry_multiplicity
  _atom_site_fract_x
  _atom_site_fract_y
  _atom_site_fract_z
  _atom_site_occupancy
  Ba  Ba1       1.0  0.95100  0.04640  0.49900  1.0000
  Ba  Ba2       1.0  0.04640  0.95100  0.99900  1.0000
  Mo  Mo1       1.0  0.49400  0.19500  0.17000  1.0000
  Mo  Mo2       1.0  0.48200  0.81900  0.35000  1.0000
  Mo  Mo3       1.0  0.19500  0.49400  0.67000  1.0000
  Mo  Mo4       1.0  0.81900  0.48200  0.85000  1.0000
  O   O1        1.0  0.91500  0.63300  0.02120  1.0000
  O   O2        1.0  0.49800  0.40300  0.07030  1.0000
  O   O3        1.0  0.68900  0.06740  0.10900  1.0000
  O   O4        1.0  0.37500  0.72600  0.13800  1.0000
  O   O5        1.0  0.69800  0.76000  0.22300  1.0000
  O   O6        1.0  0.25200  0.37300  0.23800  1.0000
  O   O7        1.0  0.04370  0.17900  0.24500  1.0000
  O   O8        1.0  0.00283  0.79800  0.26300  1.0000
  O   O9        1.0  0.42800  0.03680  0.27300  1.0000
  O   O10       1.0  0.93700  0.50500  0.28100  1.0000
  O   O11       1.0  0.60400  0.27300  0.38400  1.0000
  O   O12       1.0  0.60600  0.58300  0.42100  1.0000
  O   O13       1.0  0.30200  0.85100  0.44900  1.0000
  O   O14       1.0  0.13100  0.33700  0.48800  1.0000
  O   O15       1.0  0.63300  0.91500  0.52100  1.0000
  O   O16       1.0  0.40300  0.49800  0.57000  1.0000
  O   O17       1.0  0.06740  0.68900  0.60900  1.0000
  O   O18       1.0  0.72600  0.37500  0.63800  1.0000
  O   O19       1.0  0.76000  0.69800  0.72300  1.0000
  O   O20       1.0  0.37300  0.25200  0.73800  1.0000
  O   O21       1.0  0.17900  0.04370  0.74500  1.0000
  O   O22       1.0  0.79800  0.00283  0.76300  1.0000
  O   O23       1.0  0.03680  0.42800  0.77300  1.0000
  O   O24       1.0  0.50500  0.93700  0.78100  1.0000
  O   O25       1.0  0.27300  0.60400  0.88400  1.0000
  O   O26       1.0  0.58300  0.60600  0.92100  1.0000
  O   O27       1.0  0.85100  0.30200  0.94900  1.0000
  O   O28       1.0  0.33700  0.13100  0.98800  1.0000
  P   P1        1.0  0.43600  0.58100  0.00459  1.0000
  P   P2        1.0  0.88900  0.68200  0.19900  1.0000
  P   P3        1.0  0.10100  0.33900  0.30600  1.0000
  P   P4        1.0  0.58100  0.43600  0.50500  1.0000
  P   P5        1.0  0.68200  0.88900  0.69900  1.0000
  P   P6        1.0  0.33900  0.10100  0.80600  1.0000
