data_image0
_chemical_formula_structural       Al2CaZn2
_chemical_formula_sum              "Al2 Ca1 Zn2"
_cell_length_a       4.09936
_cell_length_b       4.09936
_cell_length_c       6.43386
_cell_angle_alpha    108.577
_cell_angle_beta     108.577
_cell_angle_gamma    90

_space_group_name_H-M_alt    "P 1"
_space_group_IT_number       1

loop_
  _space_group_symop_operation_xyz
  'x, y, z'

loop_
  _atom_site_type_symbol
  _atom_site_label
  _atom_site_symmetry_multiplicity
  _atom_site_fract_x
  _atom_site_fract_y
  _atom_site_fract_z
  _atom_site_occupancy
  Al  Al1       1.0  0.75000  0.25000  0.50000  1.0000
  Al  Al2       1.0  0.25000  0.75000  0.50000  1.0000
  Ca  Ca1       1.0  0.00000  0.00000  0.00000  1.0000
  Zn  Zn1       1.0  0.60800  0.60800  0.21600  1.0000
  Zn  Zn2       1.0  0.39200  0.39200  0.78400  1.0000
