data_image0
_chemical_formula_structural       Br4H16N4O16
_chemical_formula_sum              "Br4 H16 N4 O16"
_cell_length_a       9.00278
_cell_length_b       5.77041
_cell_length_c       7.34131
_cell_angle_alpha    90
_cell_angle_beta     90
_cell_angle_gamma    90

_space_group_name_H-M_alt    "P 1"
_space_group_IT_number       1

loop_
  _space_group_symop_operation_xyz
  'x, y, z'

loop_
  _atom_site_type_symbol
  _atom_site_label
  _atom_site_symmetry_multiplicity
  _atom_site_fract_x
  _atom_site_fract_y
  _atom_site_fract_z
  _atom_site_occupancy
  Br  Br1       1.0  0.07580  0.25000  0.19000  1.0000
  Br  Br2       1.0  0.57600  0.25000  0.31000  1.0000
  Br  Br3       1.0  0.42400  0.75000  0.69000  1.0000
  Br  Br4       1.0  0.92400  0.75000  0.81000  1.0000
  H   H1        1.0  0.34700  0.60500  0.08550  1.0000
  H   H2        1.0  0.34700  0.89500  0.08550  1.0000
  H   H3        1.0  0.20700  0.75000  0.18900  1.0000
  H   H4        1.0  0.87500  0.75000  0.21800  1.0000
  H   H5        1.0  0.37500  0.75000  0.28200  1.0000
  H   H6        1.0  0.70700  0.75000  0.31100  1.0000
  H   H7        1.0  0.84700  0.60500  0.41400  1.0000
  H   H8        1.0  0.84700  0.89500  0.41400  1.0000
  H   H9        1.0  0.15300  0.10500  0.58600  1.0000
  H   H10       1.0  0.15300  0.39500  0.58600  1.0000
  H   H11       1.0  0.29300  0.25000  0.68900  1.0000
  H   H12       1.0  0.62500  0.25000  0.71800  1.0000
  H   H13       1.0  0.12500  0.25000  0.78200  1.0000
  H   H14       1.0  0.79300  0.25000  0.81100  1.0000
  H   H15       1.0  0.65300  0.10500  0.91400  1.0000
  H   H16       1.0  0.65300  0.39500  0.91400  1.0000
  N   N1        1.0  0.31900  0.75000  0.16000  1.0000
  N   N2        1.0  0.81900  0.75000  0.34000  1.0000
  N   N3        1.0  0.18100  0.25000  0.66000  1.0000
  N   N4        1.0  0.68100  0.25000  0.84000  1.0000
  O   O1        1.0  0.22000  0.25000  0.05250  1.0000
  O   O2        1.0  0.92100  0.25000  0.07180  1.0000
  O   O3        1.0  0.58200  0.01800  0.17800  1.0000
  O   O4        1.0  0.58200  0.48200  0.17800  1.0000
  O   O5        1.0  0.08190  0.01800  0.32200  1.0000
  O   O6        1.0  0.08190  0.48200  0.32200  1.0000
  O   O7        1.0  0.42100  0.25000  0.42800  1.0000
  O   O8        1.0  0.72000  0.25000  0.44800  1.0000
  O   O9        1.0  0.28000  0.75000  0.55200  1.0000
  O   O10       1.0  0.57900  0.75000  0.57200  1.0000
  O   O11       1.0  0.91800  0.51800  0.67800  1.0000
  O   O12       1.0  0.91800  0.98200  0.67800  1.0000
  O   O13       1.0  0.41800  0.51800  0.82200  1.0000
  O   O14       1.0  0.41800  0.98200  0.82200  1.0000
  O   O15       1.0  0.07870  0.75000  0.92800  1.0000
  O   O16       1.0  0.78000  0.75000  0.94800  1.0000
