data_image0
_chemical_formula_structural       Ag20O16Si4
_chemical_formula_sum              "Ag20 O16 Si4"
_cell_length_a       9.94642
_cell_length_b       9.06784
_cell_length_c       6.33672
_cell_angle_alpha    90
_cell_angle_beta     90
_cell_angle_gamma    90

_space_group_name_H-M_alt    "P 1"
_space_group_IT_number       1

loop_
  _space_group_symop_operation_xyz
  'x, y, z'

loop_
  _atom_site_type_symbol
  _atom_site_label
  _atom_site_symmetry_multiplicity
  _atom_site_fract_x
  _atom_site_fract_y
  _atom_site_fract_z
  _atom_site_occupancy
  Ag  Ag1       1.0  0.09360  0.29500  0.00000  1.0000
  Ag  Ag2       1.0  0.90600  0.70500  0.00000  1.0000
  Ag  Ag3       1.0  0.87700  0.43400  0.21900  1.0000
  Ag  Ag4       1.0  0.12300  0.56600  0.21900  1.0000
  Ag  Ag5       1.0  0.88100  0.10900  0.23600  1.0000
  Ag  Ag6       1.0  0.11900  0.89100  0.23600  1.0000
  Ag  Ag7       1.0  0.38100  0.39100  0.26400  1.0000
  Ag  Ag8       1.0  0.61900  0.60900  0.26400  1.0000
  Ag  Ag9       1.0  0.37700  0.06580  0.28100  1.0000
  Ag  Ag10      1.0  0.62300  0.93400  0.28100  1.0000
  Ag  Ag11      1.0  0.59400  0.20500  0.50000  1.0000
  Ag  Ag12      1.0  0.40600  0.79500  0.50000  1.0000
  Ag  Ag13      1.0  0.37700  0.06580  0.71900  1.0000
  Ag  Ag14      1.0  0.62300  0.93400  0.71900  1.0000
  Ag  Ag15      1.0  0.38100  0.39100  0.73600  1.0000
  Ag  Ag16      1.0  0.61900  0.60900  0.73600  1.0000
  Ag  Ag17      1.0  0.88100  0.10900  0.76400  1.0000
  Ag  Ag18      1.0  0.11900  0.89100  0.76400  1.0000
  Ag  Ag19      1.0  0.87700  0.43400  0.78100  1.0000
  Ag  Ag20      1.0  0.12300  0.56600  0.78100  1.0000
  O   O1        1.0  0.70000  0.10100  0.00000  1.0000
  O   O2        1.0  0.45200  0.23000  0.00000  1.0000
  O   O3        1.0  0.54800  0.77000  0.00000  1.0000
  O   O4        1.0  0.30000  0.89900  0.00000  1.0000
  O   O5        1.0  0.65500  0.35400  0.21700  1.0000
  O   O6        1.0  0.34500  0.64600  0.21700  1.0000
  O   O7        1.0  0.15500  0.14600  0.28300  1.0000
  O   O8        1.0  0.84500  0.85400  0.28300  1.0000
  O   O9        1.0  0.95200  0.27000  0.50000  1.0000
  O   O10       1.0  0.20000  0.39900  0.50000  1.0000
  O   O11       1.0  0.80000  0.60100  0.50000  1.0000
  O   O12       1.0  0.04820  0.73000  0.50000  1.0000
  O   O13       1.0  0.15500  0.14600  0.71700  1.0000
  O   O14       1.0  0.84500  0.85400  0.71700  1.0000
  O   O15       1.0  0.65500  0.35400  0.78300  1.0000
  O   O16       1.0  0.34500  0.64600  0.78300  1.0000
  Si  Si1       1.0  0.61700  0.26000  0.00000  1.0000
  Si  Si2       1.0  0.38300  0.74000  0.00000  1.0000
  Si  Si3       1.0  0.11700  0.24000  0.50000  1.0000
  Si  Si4       1.0  0.88300  0.76000  0.50000  1.0000
