data_image0
_chemical_formula_structural       Al2Ge2La
_chemical_formula_sum              "Al2 Ge2 La1"
_cell_length_a       4.31665
_cell_length_b       4.31688
_cell_length_c       7.03812
_cell_angle_alpha    90
_cell_angle_beta     89.9987
_cell_angle_gamma    120.002

_space_group_name_H-M_alt    "P 1"
_space_group_IT_number       1

loop_
  _space_group_symop_operation_xyz
  'x, y, z'

loop_
  _atom_site_type_symbol
  _atom_site_label
  _atom_site_symmetry_multiplicity
  _atom_site_fract_x
  _atom_site_fract_y
  _atom_site_fract_z
  _atom_site_occupancy
  Al  Al1       1.0  0.66700  0.33300  0.36100  1.0000
  Al  Al2       1.0  0.33300  0.66700  0.63900  1.0000
  Ge  Ge1       1.0  0.33300  0.66700  0.27100  1.0000
  Ge  Ge2       1.0  0.66700  0.33300  0.72900  1.0000
  La  La1       1.0  0.00000  0.00000  0.00000  1.0000
