data_image0
_chemical_formula_structural       Br4H22O12Sc2
_chemical_formula_sum              "Br4 H22 O12 Sc2"
_cell_length_a       7.15874
_cell_length_b       8.19451
_cell_length_c       8.46612
_cell_angle_alpha    94.0071
_cell_angle_beta     114.576
_cell_angle_gamma    101.73

_space_group_name_H-M_alt    "P 1"
_space_group_IT_number       1

loop_
  _space_group_symop_operation_xyz
  'x, y, z'

loop_
  _atom_site_type_symbol
  _atom_site_label
  _atom_site_symmetry_multiplicity
  _atom_site_fract_x
  _atom_site_fract_y
  _atom_site_fract_z
  _atom_site_occupancy
  Br  Br1       1.0  0.87400  0.31700  0.08550  1.0000
  Br  Br2       1.0  0.46400  0.24600  0.30200  1.0000
  Br  Br3       1.0  0.53600  0.75400  0.69800  1.0000
  Br  Br4       1.0  0.12600  0.68300  0.91500  1.0000
  H   H1        1.0  0.34300  0.31700  0.03730  1.0000
  H   H2        1.0  0.74400  0.53900  0.06290  1.0000
  H   H3        1.0  0.44800  0.83700  0.09360  1.0000
  H   H4        1.0  0.07760  0.84700  0.09880  1.0000
  H   H5        1.0  0.56600  0.02280  0.20800  1.0000
  H   H6        1.0  0.16200  0.03330  0.21500  1.0000
  H   H7        1.0  0.04430  0.54900  0.29600  1.0000
  H   H8        1.0  0.94000  0.18100  0.32000  1.0000
  H   H9        1.0  0.59100  0.53600  0.33800  1.0000
  H   H10       1.0  0.20900  0.67600  0.47700  1.0000
  H   H11       1.0  0.62800  0.68300  0.48900  1.0000
  H   H12       1.0  0.37200  0.31700  0.51100  1.0000
  H   H13       1.0  0.79100  0.32400  0.52300  1.0000
  H   H14       1.0  0.40900  0.46400  0.66200  1.0000
  H   H15       1.0  0.05960  0.81900  0.68000  1.0000
  H   H16       1.0  0.95600  0.45100  0.70400  1.0000
  H   H17       1.0  0.83800  0.96700  0.78500  1.0000
  H   H18       1.0  0.43400  0.97700  0.79200  1.0000
  H   H19       1.0  0.92200  0.15300  0.90100  1.0000
  H   H20       1.0  0.55200  0.16300  0.90600  1.0000
  H   H21       1.0  0.25600  0.46100  0.93700  1.0000
  H   H22       1.0  0.65700  0.68300  0.96300  1.0000
  O   O1        1.0  0.70600  0.64700  0.07890  1.0000
  O   O2        1.0  0.58900  0.91600  0.17000  1.0000
  O   O3        1.0  0.05170  0.92600  0.17800  1.0000
  O   O4        1.0  0.06640  0.65100  0.37700  1.0000
  O   O5        1.0  0.65200  0.65800  0.38400  1.0000
  O   O6        1.0  0.96400  0.10300  0.40500  1.0000
  O   O7        1.0  0.03550  0.89700  0.59500  1.0000
  O   O8        1.0  0.34800  0.34200  0.61600  1.0000
  O   O9        1.0  0.93400  0.34900  0.62300  1.0000
  O   O10       1.0  0.94800  0.07430  0.82200  1.0000
  O   O11       1.0  0.41100  0.08450  0.83000  1.0000
  O   O12       1.0  0.29400  0.35300  0.92100  1.0000
  Sc  Sc1       1.0  0.87700  0.84000  0.32500  1.0000
  Sc  Sc2       1.0  0.12300  0.16000  0.67500  1.0000
