data_image0
_chemical_formula_structural       Cs4Ge2O26P8
_chemical_formula_sum              "Cs4 Ge2 O26 P8"
_cell_length_a       4.96949
_cell_length_b       7.78899
_cell_length_c       15.5901
_cell_angle_alpha    84.0965
_cell_angle_beta     84.2452
_cell_angle_gamma    81.1406

_space_group_name_H-M_alt    "P 1"
_space_group_IT_number       1

loop_
  _space_group_symop_operation_xyz
  'x, y, z'

loop_
  _atom_site_type_symbol
  _atom_site_label
  _atom_site_symmetry_multiplicity
  _atom_site_fract_x
  _atom_site_fract_y
  _atom_site_fract_z
  _atom_site_occupancy
  Cs  Cs1       1.0  0.26700  0.29300  0.03100  1.0000
  Cs  Cs2       1.0  0.66400  0.74500  0.48800  1.0000
  Cs  Cs3       1.0  0.33600  0.25500  0.51200  1.0000
  Cs  Cs4       1.0  0.73300  0.70700  0.96900  1.0000
  Ge  Ge1       1.0  0.55400  0.93800  0.24100  1.0000
  Ge  Ge2       1.0  0.44600  0.06250  0.75900  1.0000
  O   O1        1.0  0.21100  0.70300  0.06640  1.0000
  O   O2        1.0  0.73800  0.45200  0.13900  1.0000
  O   O3        1.0  0.80700  0.85600  0.15000  1.0000
  O   O4        1.0  0.27400  0.92700  0.16900  1.0000
  O   O5        1.0  0.56400  0.16600  0.18900  1.0000
  O   O6        1.0  0.13600  0.63200  0.23000  1.0000
  O   O7        1.0  0.96000  0.24600  0.25900  1.0000
  O   O8        1.0  0.48600  0.39700  0.29200  1.0000
  O   O9        1.0  0.55200  0.70800  0.29200  1.0000
  O   O10       1.0  0.83700  0.94600  0.31200  1.0000
  O   O11       1.0  0.30100  0.02280  0.33300  1.0000
  O   O12       1.0  0.18100  0.57900  0.39400  1.0000
  O   O13       1.0  0.88400  0.15600  0.42200  1.0000
  O   O14       1.0  0.11600  0.84400  0.57800  1.0000
  O   O15       1.0  0.81900  0.42100  0.60600  1.0000
  O   O16       1.0  0.69900  0.97700  0.66700  1.0000
  O   O17       1.0  0.16300  0.05440  0.68800  1.0000
  O   O18       1.0  0.44800  0.29200  0.70800  1.0000
  O   O19       1.0  0.51400  0.60300  0.70800  1.0000
  O   O20       1.0  0.04040  0.75400  0.74100  1.0000
  O   O21       1.0  0.86400  0.36800  0.77000  1.0000
  O   O22       1.0  0.43600  0.83400  0.81100  1.0000
  O   O23       1.0  0.72600  0.07250  0.83100  1.0000
  O   O24       1.0  0.19300  0.14400  0.85000  1.0000
  O   O25       1.0  0.26200  0.54800  0.86100  1.0000
  O   O26       1.0  0.78900  0.29700  0.93400  1.0000
  P   P1        1.0  0.11500  0.78200  0.14900  1.0000
  P   P2        1.0  0.68800  0.32200  0.21300  1.0000
  P   P3        1.0  0.32900  0.58900  0.30700  1.0000
  P   P4        1.0  0.98900  0.08920  0.33800  1.0000
  P   P5        1.0  0.01070  0.91100  0.66200  1.0000
  P   P6        1.0  0.67100  0.41100  0.69300  1.0000
  P   P7        1.0  0.31200  0.67800  0.78700  1.0000
  P   P8        1.0  0.88500  0.21800  0.85100  1.0000
