data_image0
_chemical_formula_structural       C4Cl4H24N4O4
_chemical_formula_sum              "C4 Cl4 H24 N4 O4"
_cell_length_a       7.60189
_cell_length_b       8.57641
_cell_length_c       5.80599
_cell_angle_alpha    90
_cell_angle_beta     90
_cell_angle_gamma    90

_space_group_name_H-M_alt    "P 1"
_space_group_IT_number       1

loop_
  _space_group_symop_operation_xyz
  'x, y, z'

loop_
  _atom_site_type_symbol
  _atom_site_label
  _atom_site_symmetry_multiplicity
  _atom_site_fract_x
  _atom_site_fract_y
  _atom_site_fract_z
  _atom_site_occupancy
  C   C1        1.0  0.82800  0.38300  0.25000  1.0000
  C   C2        1.0  0.17200  0.88300  0.25000  1.0000
  C   C3        1.0  0.82800  0.11700  0.75000  1.0000
  C   C4        1.0  0.17200  0.61700  0.75000  1.0000
  Cl  Cl1       1.0  0.36300  0.42300  0.25000  1.0000
  Cl  Cl2       1.0  0.63700  0.92300  0.25000  1.0000
  Cl  Cl3       1.0  0.36300  0.07730  0.75000  1.0000
  Cl  Cl4       1.0  0.63700  0.57700  0.75000  1.0000
  H   H1        1.0  0.90900  0.37200  0.09420  1.0000
  H   H2        1.0  0.09120  0.87200  0.09420  1.0000
  H   H3        1.0  0.33000  0.05140  0.09890  1.0000
  H   H4        1.0  0.67000  0.55100  0.09890  1.0000
  H   H5        1.0  0.19000  0.25400  0.25000  1.0000
  H   H6        1.0  0.72200  0.29600  0.25000  1.0000
  H   H7        1.0  0.81000  0.75400  0.25000  1.0000
  H   H8        1.0  0.27800  0.79600  0.25000  1.0000
  H   H9        1.0  0.33000  0.05140  0.40100  1.0000
  H   H10       1.0  0.67000  0.55100  0.40100  1.0000
  H   H11       1.0  0.90900  0.37200  0.40600  1.0000
  H   H12       1.0  0.09120  0.87200  0.40600  1.0000
  H   H13       1.0  0.90900  0.12800  0.59400  1.0000
  H   H14       1.0  0.09120  0.62800  0.59400  1.0000
  H   H15       1.0  0.33000  0.44900  0.59900  1.0000
  H   H16       1.0  0.67000  0.94900  0.59900  1.0000
  H   H17       1.0  0.72200  0.20400  0.75000  1.0000
  H   H18       1.0  0.19000  0.24600  0.75000  1.0000
  H   H19       1.0  0.27800  0.70400  0.75000  1.0000
  H   H20       1.0  0.81000  0.74600  0.75000  1.0000
  H   H21       1.0  0.33000  0.44900  0.90100  1.0000
  H   H22       1.0  0.67000  0.94900  0.90100  1.0000
  H   H23       1.0  0.90900  0.12800  0.90600  1.0000
  H   H24       1.0  0.09120  0.62800  0.90600  1.0000
  N   N1        1.0  0.25400  0.03680  0.25000  1.0000
  N   N2        1.0  0.74600  0.53700  0.25000  1.0000
  N   N3        1.0  0.25400  0.46300  0.75000  1.0000
  N   N4        1.0  0.74600  0.96300  0.75000  1.0000
  O   O1        1.0  0.12000  0.15200  0.25000  1.0000
  O   O2        1.0  0.88000  0.65200  0.25000  1.0000
  O   O3        1.0  0.12000  0.34800  0.75000  1.0000
  O   O4        1.0  0.88000  0.84800  0.75000  1.0000
