data_image0
_chemical_formula_structural       O28P8Pt4
_chemical_formula_sum              "O28 P8 Pt4"
_cell_length_a       7.04861
_cell_length_b       7.85213
_cell_length_c       9.27785
_cell_angle_alpha    90
_cell_angle_beta     111.162
_cell_angle_gamma    90

_space_group_name_H-M_alt    "P 1"
_space_group_IT_number       1

loop_
  _space_group_symop_operation_xyz
  'x, y, z'

loop_
  _atom_site_type_symbol
  _atom_site_label
  _atom_site_symmetry_multiplicity
  _atom_site_fract_x
  _atom_site_fract_y
  _atom_site_fract_z
  _atom_site_occupancy
  O   O1        1.0  0.27600  0.47200  0.08320  1.0000
  O   O2        1.0  0.81800  0.09880  0.10300  1.0000
  O   O3        1.0  0.24500  0.14300  0.11400  1.0000
  O   O4        1.0  0.56600  0.71900  0.11600  1.0000
  O   O5        1.0  0.09940  0.80900  0.15300  1.0000
  O   O6        1.0  0.02600  0.37200  0.18000  1.0000
  O   O7        1.0  0.67000  0.36300  0.18100  1.0000
  O   O8        1.0  0.83000  0.86300  0.31900  1.0000
  O   O9        1.0  0.47400  0.87200  0.32000  1.0000
  O   O10       1.0  0.40100  0.30900  0.34700  1.0000
  O   O11       1.0  0.93400  0.21900  0.38400  1.0000
  O   O12       1.0  0.25500  0.64300  0.38600  1.0000
  O   O13       1.0  0.68200  0.59900  0.39700  1.0000
  O   O14       1.0  0.22400  0.97200  0.41700  1.0000
  O   O15       1.0  0.77600  0.02840  0.58300  1.0000
  O   O16       1.0  0.31800  0.40100  0.60300  1.0000
  O   O17       1.0  0.74500  0.35700  0.61400  1.0000
  O   O18       1.0  0.06610  0.78100  0.61600  1.0000
  O   O19       1.0  0.59900  0.69100  0.65300  1.0000
  O   O20       1.0  0.52600  0.12800  0.68000  1.0000
  O   O21       1.0  0.17000  0.13700  0.68100  1.0000
  O   O22       1.0  0.33000  0.63700  0.81900  1.0000
  O   O23       1.0  0.97400  0.62800  0.82000  1.0000
  O   O24       1.0  0.90100  0.19100  0.84700  1.0000
  O   O25       1.0  0.43400  0.28100  0.88400  1.0000
  O   O26       1.0  0.75500  0.85700  0.88600  1.0000
  O   O27       1.0  0.18200  0.90100  0.89700  1.0000
  O   O28       1.0  0.72400  0.52800  0.91700  1.0000
  P   P1        1.0  0.24700  0.32300  0.18100  1.0000
  P   P2        1.0  0.85900  0.25400  0.21000  1.0000
  P   P3        1.0  0.64100  0.75400  0.29000  1.0000
  P   P4        1.0  0.25300  0.82300  0.31900  1.0000
  P   P5        1.0  0.74700  0.17700  0.68100  1.0000
  P   P6        1.0  0.35900  0.24600  0.71000  1.0000
  P   P7        1.0  0.14100  0.74600  0.79000  1.0000
  P   P8        1.0  0.75300  0.67700  0.81900  1.0000
  Pt  Pt1       1.0  0.00000  0.00000  0.00000  1.0000
  Pt  Pt2       1.0  0.50000  0.50000  0.00000  1.0000
  Pt  Pt3       1.0  0.50000  0.50000  0.50000  1.0000
  Pt  Pt4       1.0  0.00000  0.00000  0.50000  1.0000
