data_image0
_chemical_formula_structural       Be4H12O20P4
_chemical_formula_sum              "Be4 H12 O20 P4"
_cell_length_a       8.05742
_cell_length_b       8.51332
_cell_length_c       4.90168
_cell_angle_alpha    90.0005
_cell_angle_beta     89.9891
_cell_angle_gamma    89.9996

_space_group_name_H-M_alt    "P 1"
_space_group_IT_number       1

loop_
  _space_group_symop_operation_xyz
  'x, y, z'

loop_
  _atom_site_type_symbol
  _atom_site_label
  _atom_site_symmetry_multiplicity
  _atom_site_fract_x
  _atom_site_fract_y
  _atom_site_fract_z
  _atom_site_occupancy
  Be  Be1       1.0  0.82200  0.10300  0.05400  1.0000
  Be  Be2       1.0  0.32200  0.39700  0.05400  1.0000
  Be  Be3       1.0  0.17800  0.89700  0.55400  1.0000
  Be  Be4       1.0  0.67800  0.60300  0.55400  1.0000
  H   H1        1.0  0.05390  0.70400  0.22500  1.0000
  H   H2        1.0  0.55400  0.79600  0.22500  1.0000
  H   H3        1.0  0.38600  0.12100  0.43800  1.0000
  H   H4        1.0  0.88600  0.37900  0.43800  1.0000
  H   H5        1.0  0.09430  0.34900  0.48200  1.0000
  H   H6        1.0  0.59400  0.15100  0.48200  1.0000
  H   H7        1.0  0.44600  0.20400  0.72500  1.0000
  H   H8        1.0  0.94600  0.29600  0.72500  1.0000
  H   H9        1.0  0.11400  0.62000  0.93800  1.0000
  H   H10       1.0  0.61400  0.88000  0.93800  1.0000
  H   H11       1.0  0.40600  0.84900  0.98200  1.0000
  H   H12       1.0  0.90600  0.65100  0.98200  1.0000
  O   O1        1.0  0.52100  0.80500  0.02790  1.0000
  O   O2        1.0  0.02140  0.69500  0.02790  1.0000
  O   O3        1.0  0.51500  0.41600  0.03930  1.0000
  O   O4        1.0  0.01540  0.08410  0.03930  1.0000
  O   O5        1.0  0.26500  0.02150  0.33500  1.0000
  O   O6        1.0  0.76500  0.47800  0.33500  1.0000
  O   O7        1.0  0.74000  0.06660  0.35000  1.0000
  O   O8        1.0  0.24000  0.43300  0.35000  1.0000
  O   O9        1.0  0.21100  0.71900  0.45600  1.0000
  O   O10       1.0  0.71100  0.78100  0.45600  1.0000
  O   O11       1.0  0.97900  0.30500  0.52800  1.0000
  O   O12       1.0  0.47900  0.19500  0.52800  1.0000
  O   O13       1.0  0.48400  0.58400  0.53900  1.0000
  O   O14       1.0  0.98400  0.91600  0.53900  1.0000
  O   O15       1.0  0.73500  0.97900  0.83500  1.0000
  O   O16       1.0  0.23500  0.52100  0.83500  1.0000
  O   O17       1.0  0.26000  0.93300  0.85000  1.0000
  O   O18       1.0  0.76000  0.56700  0.85000  1.0000
  O   O19       1.0  0.28900  0.21900  0.95600  1.0000
  O   O20       1.0  0.78900  0.28100  0.95600  1.0000
  P   P1        1.0  0.70000  0.43300  0.04460  1.0000
  P   P2        1.0  0.20000  0.06670  0.04470  1.0000
  P   P3        1.0  0.80000  0.93300  0.54500  1.0000
  P   P4        1.0  0.30000  0.56700  0.54500  1.0000
