data_image0
_chemical_formula_structural       C8Fe2H14O16
_chemical_formula_sum              "C8 Fe2 H14 O16"
_cell_length_a       7.18364
_cell_length_b       7.17713
_cell_length_c       8.13864
_cell_angle_alpha    106.859
_cell_angle_beta     96.4558
_cell_angle_gamma    111.42

_space_group_name_H-M_alt    "P 1"
_space_group_IT_number       1

loop_
  _space_group_symop_operation_xyz
  'x, y, z'

loop_
  _atom_site_type_symbol
  _atom_site_label
  _atom_site_symmetry_multiplicity
  _atom_site_fract_x
  _atom_site_fract_y
  _atom_site_fract_z
  _atom_site_occupancy
  C   C1        1.0  0.35300  0.62200  0.02090  1.0000
  C   C2        1.0  0.83000  0.57600  0.08640  1.0000
  C   C3        1.0  0.57400  0.37200  0.14000  1.0000
  C   C4        1.0  0.75800  0.56700  0.24600  1.0000
  C   C5        1.0  0.24200  0.43300  0.75400  1.0000
  C   C6        1.0  0.42600  0.62800  0.86000  1.0000
  C   C7        1.0  0.17000  0.42400  0.91400  1.0000
  C   C8        1.0  0.64700  0.37800  0.97900  1.0000
  Fe  Fe1       1.0  0.30300  0.29800  0.39000  1.0000
  Fe  Fe2       1.0  0.69700  0.70200  0.61000  1.0000
  H   H1        1.0  0.02050  0.25400  0.12300  1.0000
  H   H2        1.0  0.13700  0.88200  0.24200  1.0000
  H   H3        1.0  0.60700  0.98000  0.28000  1.0000
  H   H4        1.0  0.90400  0.18900  0.28300  1.0000
  H   H5        1.0  0.40600  0.66000  0.35100  1.0000
  H   H6        1.0  0.67000  0.22200  0.41800  1.0000
  H   H7        1.0  0.22400  0.94300  0.45800  1.0000
  H   H8        1.0  0.77600  0.05690  0.54200  1.0000
  H   H9        1.0  0.33000  0.77800  0.58200  1.0000
  H   H10       1.0  0.59400  0.34000  0.64900  1.0000
  H   H11       1.0  0.09610  0.81100  0.71700  1.0000
  H   H12       1.0  0.39300  0.02000  0.72000  1.0000
  H   H13       1.0  0.86300  0.11800  0.75800  1.0000
  H   H14       1.0  0.97900  0.74600  0.87700  1.0000
  O   O1        1.0  0.98300  0.71200  0.06090  1.0000
  O   O2        1.0  0.40800  0.25300  0.16400  1.0000
  O   O3        1.0  0.42600  0.73500  0.18200  1.0000
  O   O4        1.0  0.03760  0.23800  0.24100  1.0000
  O   O5        1.0  0.24000  0.99300  0.35500  1.0000
  O   O6        1.0  0.72600  0.11500  0.36200  1.0000
  O   O7        1.0  0.83100  0.69300  0.40500  1.0000
  O   O8        1.0  0.41300  0.61700  0.45800  1.0000
  O   O9        1.0  0.58700  0.38300  0.54200  1.0000
  O   O10       1.0  0.16900  0.30700  0.59500  1.0000
  O   O11       1.0  0.27400  0.88500  0.63800  1.0000
  O   O12       1.0  0.76000  0.00663  0.64500  1.0000
  O   O13       1.0  0.96200  0.76200  0.75900  1.0000
  O   O14       1.0  0.57400  0.26500  0.81800  1.0000
  O   O15       1.0  0.59200  0.74700  0.83600  1.0000
  O   O16       1.0  0.01740  0.28800  0.93900  1.0000
