data_image0
_chemical_formula_structural       H4I8K4O24
_chemical_formula_sum              "H4 I8 K4 O24"
_cell_length_a       10.3223
_cell_length_b       8.43715
_cell_length_c       7.35993
_cell_angle_alpha    90
_cell_angle_beta     90
_cell_angle_gamma    112.46

_space_group_name_H-M_alt    "P 1"
_space_group_IT_number       1

loop_
  _space_group_symop_operation_xyz
  'x, y, z'

loop_
  _atom_site_type_symbol
  _atom_site_label
  _atom_site_symmetry_multiplicity
  _atom_site_fract_x
  _atom_site_fract_y
  _atom_site_fract_z
  _atom_site_occupancy
  H   H1        1.0  0.50000  0.50000  0.00000  1.0000
  H   H2        1.0  0.00000  0.50000  0.00000  1.0000
  H   H3        1.0  0.00000  0.00000  0.50000  1.0000
  H   H4        1.0  0.50000  0.00000  0.50000  1.0000
  I   I1        1.0  0.49400  0.79800  0.07240  1.0000
  I   I2        1.0  0.12800  0.06860  0.19200  1.0000
  I   I3        1.0  0.12800  0.56900  0.30800  1.0000
  I   I4        1.0  0.49400  0.29800  0.42800  1.0000
  I   I5        1.0  0.50600  0.70200  0.57200  1.0000
  I   I6        1.0  0.87200  0.43100  0.69200  1.0000
  I   I7        1.0  0.87200  0.93100  0.80800  1.0000
  I   I8        1.0  0.50600  0.20200  0.92800  1.0000
  K   K1        1.0  0.80100  0.15900  0.24700  1.0000
  K   K2        1.0  0.80100  0.65900  0.25300  1.0000
  K   K3        1.0  0.19900  0.34100  0.74700  1.0000
  K   K4        1.0  0.19900  0.84100  0.75300  1.0000
  O   O1        1.0  0.57400  0.42200  0.03050  1.0000
  O   O2        1.0  0.68300  0.85300  0.04430  1.0000
  O   O3        1.0  0.05510  0.18700  0.04510  1.0000
  O   O4        1.0  0.53800  0.11000  0.14400  1.0000
  O   O5        1.0  0.23600  0.74100  0.15600  1.0000
  O   O6        1.0  0.96900  0.48600  0.15800  1.0000
  O   O7        1.0  0.96900  0.98600  0.34200  1.0000
  O   O8        1.0  0.23600  0.24100  0.34400  1.0000
  O   O9        1.0  0.53800  0.61000  0.35600  1.0000
  O   O10       1.0  0.05510  0.68700  0.45500  1.0000
  O   O11       1.0  0.68300  0.35300  0.45600  1.0000
  O   O12       1.0  0.57400  0.92200  0.46900  1.0000
  O   O13       1.0  0.42600  0.07780  0.53100  1.0000
  O   O14       1.0  0.31700  0.64700  0.54400  1.0000
  O   O15       1.0  0.94500  0.31300  0.54500  1.0000
  O   O16       1.0  0.46200  0.39000  0.64400  1.0000
  O   O17       1.0  0.76400  0.75900  0.65600  1.0000
  O   O18       1.0  0.03100  0.01380  0.65800  1.0000
  O   O19       1.0  0.03100  0.51400  0.84200  1.0000
  O   O20       1.0  0.76400  0.25900  0.84400  1.0000
  O   O21       1.0  0.46200  0.89000  0.85600  1.0000
  O   O22       1.0  0.94500  0.81300  0.95500  1.0000
  O   O23       1.0  0.31700  0.14700  0.95600  1.0000
  O   O24       1.0  0.42600  0.57800  0.96900  1.0000
