data_image0
_chemical_formula_structural       O25Sc10V5
_chemical_formula_sum              "O25 Sc10 V5"
_cell_length_a       9.13353
_cell_length_b       7.7772
_cell_length_c       7.7772
_cell_angle_alpha    90
_cell_angle_beta     115.198
_cell_angle_gamma    115.198

_space_group_name_H-M_alt    "P 1"
_space_group_IT_number       1

loop_
  _space_group_symop_operation_xyz
  'x, y, z'

loop_
  _atom_site_type_symbol
  _atom_site_label
  _atom_site_symmetry_multiplicity
  _atom_site_fract_x
  _atom_site_fract_y
  _atom_site_fract_z
  _atom_site_occupancy
  O   O1        1.0  0.00000  0.00000  0.00000  1.0000
  O   O2        1.0  0.36000  0.75600  0.01510  1.0000
  O   O3        1.0  0.65300  0.13800  0.06270  1.0000
  O   O4        1.0  0.05740  0.72000  0.11100  1.0000
  O   O5        1.0  0.34600  0.17300  0.17300  1.0000
  O   O6        1.0  0.64000  0.65500  0.24400  1.0000
  O   O7        1.0  0.00449  0.40900  0.24900  1.0000
  O   O8        1.0  0.94300  0.05340  0.28000  1.0000
  O   O9        1.0  0.36000  0.60300  0.34500  1.0000
  O   O10       1.0  0.72300  0.36100  0.36100  1.0000
  O   O11       1.0  0.64000  0.98500  0.39700  1.0000
  O   O12       1.0  0.99600  0.75100  0.40500  1.0000
  O   O13       1.0  0.34700  0.93700  0.48500  1.0000
  O   O14       1.0  0.31600  0.26800  0.49700  1.0000
  O   O15       1.0  0.65300  0.51500  0.59100  1.0000
  O   O16       1.0  0.99600  0.24400  0.59100  1.0000
  O   O17       1.0  0.27700  0.63900  0.63900  1.0000
  O   O18       1.0  0.94300  0.88900  0.66300  1.0000
  O   O19       1.0  0.68400  0.18100  0.73200  1.0000
  O   O20       1.0  0.00449  0.59500  0.75600  1.0000
  O   O21       1.0  0.31600  0.04820  0.81900  1.0000
  O   O22       1.0  0.65400  0.82700  0.82700  1.0000
  O   O23       1.0  0.34700  0.40900  0.86200  1.0000
  O   O24       1.0  0.05740  0.33700  0.94700  1.0000
  O   O25       1.0  0.68400  0.50300  0.95200  1.0000
  Sc  Sc1       1.0  0.51800  0.30500  0.05470  1.0000
  Sc  Sc2       1.0  0.84800  0.79300  0.10200  1.0000
  Sc  Sc3       1.0  0.15200  0.25400  0.20700  1.0000
  Sc  Sc4       1.0  0.51800  0.21200  0.46300  1.0000
  Sc  Sc5       1.0  0.12300  0.06130  0.56100  1.0000
  Sc  Sc6       1.0  0.48200  0.53700  0.69500  1.0000
  Sc  Sc7       1.0  0.84800  0.05490  0.74600  1.0000
  Sc  Sc8       1.0  0.48200  0.94500  0.78800  1.0000
  Sc  Sc9       1.0  0.87700  0.43900  0.93900  1.0000
  Sc  Sc10      1.0  0.15200  0.89800  0.94500  1.0000
  V   V1        1.0  0.50000  0.75000  0.25000  1.0000
  V   V2        1.0  0.83200  0.20800  0.31700  1.0000
  V   V3        1.0  0.16800  0.68300  0.37600  1.0000
  V   V4        1.0  0.83200  0.62400  0.51500  1.0000
  V   V5        1.0  0.16800  0.48500  0.79200  1.0000
