data_image0
_chemical_formula_structural       As8H4K4O24
_chemical_formula_sum              "As8 H4 K4 O24"
_cell_length_a       5.93434
_cell_length_b       9.75102
_cell_length_c       9.02442
_cell_angle_alpha    90
_cell_angle_beta     94.2671
_cell_angle_gamma    90

_space_group_name_H-M_alt    "P 1"
_space_group_IT_number       1

loop_
  _space_group_symop_operation_xyz
  'x, y, z'

loop_
  _atom_site_type_symbol
  _atom_site_label
  _atom_site_symmetry_multiplicity
  _atom_site_fract_x
  _atom_site_fract_y
  _atom_site_fract_z
  _atom_site_occupancy
  As  As1       1.0  0.11600  0.10000  0.08400  1.0000
  As  As2       1.0  0.16400  0.39100  0.23900  1.0000
  As  As3       1.0  0.83600  0.89100  0.26100  1.0000
  As  As4       1.0  0.88400  0.60000  0.41600  1.0000
  As  As5       1.0  0.11600  0.40000  0.58400  1.0000
  As  As6       1.0  0.16400  0.10900  0.73900  1.0000
  As  As7       1.0  0.83600  0.60900  0.76100  1.0000
  As  As8       1.0  0.88400  0.90000  0.91600  1.0000
  H   H1        1.0  0.45500  0.04730  0.22100  1.0000
  H   H2        1.0  0.54500  0.54700  0.27900  1.0000
  H   H3        1.0  0.45500  0.45300  0.72100  1.0000
  H   H4        1.0  0.54500  0.95300  0.77900  1.0000
  K   K1        1.0  0.38400  0.69300  0.03780  1.0000
  K   K2        1.0  0.61600  0.19300  0.46200  1.0000
  K   K3        1.0  0.38400  0.80700  0.53800  1.0000
  K   K4        1.0  0.61600  0.30700  0.96200  1.0000
  O   O1        1.0  0.17200  0.93000  0.00682  1.0000
  O   O2        1.0  0.79100  0.81200  0.08890  1.0000
  O   O3        1.0  0.00327  0.27200  0.13300  1.0000
  O   O4        1.0  0.39100  0.13300  0.17000  1.0000
  O   O5        1.0  0.40500  0.44100  0.17000  1.0000
  O   O6        1.0  0.97000  0.52600  0.23400  1.0000
  O   O7        1.0  0.02960  0.02550  0.26600  1.0000
  O   O8        1.0  0.59500  0.94100  0.33000  1.0000
  O   O9        1.0  0.60900  0.63300  0.33000  1.0000
  O   O10       1.0  0.99700  0.77200  0.36700  1.0000
  O   O11       1.0  0.20900  0.31200  0.41100  1.0000
  O   O12       1.0  0.82800  0.43000  0.49300  1.0000
  O   O13       1.0  0.17200  0.57000  0.50700  1.0000
  O   O14       1.0  0.79100  0.68800  0.58900  1.0000
  O   O15       1.0  0.00327  0.22800  0.63300  1.0000
  O   O16       1.0  0.39100  0.36700  0.67000  1.0000
  O   O17       1.0  0.40500  0.05880  0.67000  1.0000
  O   O18       1.0  0.97000  0.97400  0.73400  1.0000
  O   O19       1.0  0.02960  0.47400  0.76600  1.0000
  O   O20       1.0  0.59500  0.55900  0.83000  1.0000
  O   O21       1.0  0.60900  0.86700  0.83000  1.0000
  O   O22       1.0  0.99700  0.72800  0.86700  1.0000
  O   O23       1.0  0.20900  0.18800  0.91100  1.0000
  O   O24       1.0  0.82800  0.07000  0.99300  1.0000
