data_image0
_chemical_formula_structural       Cu4F28Hf4K4
_chemical_formula_sum              "Cu4 F28 Hf4 K4"
_cell_length_a       7.43297
_cell_length_b       7.43297
_cell_length_c       9.87045
_cell_angle_alpha    90
_cell_angle_beta     90
_cell_angle_gamma    115.121

_space_group_name_H-M_alt    "P 1"
_space_group_IT_number       1

loop_
  _space_group_symop_operation_xyz
  'x, y, z'

loop_
  _atom_site_type_symbol
  _atom_site_label
  _atom_site_symmetry_multiplicity
  _atom_site_fract_x
  _atom_site_fract_y
  _atom_site_fract_z
  _atom_site_occupancy
  Cu  Cu1       1.0  0.63400  0.36600  0.07210  1.0000
  Cu  Cu2       1.0  0.63400  0.36600  0.42800  1.0000
  Cu  Cu3       1.0  0.36600  0.63400  0.57200  1.0000
  Cu  Cu4       1.0  0.36600  0.63400  0.92800  1.0000
  F   F1        1.0  0.50000  0.50000  0.00000  1.0000
  F   F2        1.0  0.36600  0.11300  0.01170  1.0000
  F   F3        1.0  0.88700  0.63400  0.01170  1.0000
  F   F4        1.0  0.97500  0.02540  0.11500  1.0000
  F   F5        1.0  0.29300  0.70700  0.11600  1.0000
  F   F6        1.0  0.78200  0.21800  0.11900  1.0000
  F   F7        1.0  0.28200  0.01360  0.25000  1.0000
  F   F8        1.0  0.57300  0.42700  0.25000  1.0000
  F   F9        1.0  0.98600  0.71800  0.25000  1.0000
  F   F10       1.0  0.78200  0.21800  0.38100  1.0000
  F   F11       1.0  0.29300  0.70700  0.38400  1.0000
  F   F12       1.0  0.97500  0.02540  0.38500  1.0000
  F   F13       1.0  0.36600  0.11300  0.48800  1.0000
  F   F14       1.0  0.88700  0.63400  0.48800  1.0000
  F   F15       1.0  0.50000  0.50000  0.50000  1.0000
  F   F16       1.0  0.11300  0.36600  0.51200  1.0000
  F   F17       1.0  0.63400  0.88700  0.51200  1.0000
  F   F18       1.0  0.02540  0.97500  0.61500  1.0000
  F   F19       1.0  0.70700  0.29300  0.61600  1.0000
  F   F20       1.0  0.21800  0.78200  0.61900  1.0000
  F   F21       1.0  0.01360  0.28200  0.75000  1.0000
  F   F22       1.0  0.42700  0.57300  0.75000  1.0000
  F   F23       1.0  0.71800  0.98600  0.75000  1.0000
  F   F24       1.0  0.21800  0.78200  0.88100  1.0000
  F   F25       1.0  0.70700  0.29300  0.88400  1.0000
  F   F26       1.0  0.02540  0.97500  0.88500  1.0000
  F   F27       1.0  0.11300  0.36600  0.98800  1.0000
  F   F28       1.0  0.63400  0.88700  0.98800  1.0000
  Hf  Hf1       1.0  0.13400  0.86600  0.06850  1.0000
  Hf  Hf2       1.0  0.13400  0.86600  0.43100  1.0000
  Hf  Hf3       1.0  0.86600  0.13400  0.56900  1.0000
  Hf  Hf4       1.0  0.86600  0.13400  0.93100  1.0000
  K   K1        1.0  0.16500  0.36400  0.25000  1.0000
  K   K2        1.0  0.63600  0.83500  0.25000  1.0000
  K   K3        1.0  0.36400  0.16500  0.75000  1.0000
  K   K4        1.0  0.83500  0.63600  0.75000  1.0000
