data_image0
_chemical_formula_structural       Fe2Ge4Li2O12
_chemical_formula_sum              "Fe2 Ge4 Li2 O12"
_cell_length_a       5.15422
_cell_length_b       6.4743
_cell_length_c       6.4743
_cell_angle_alpha    95.1392
_cell_angle_beta     98.258
_cell_angle_gamma    81.742

_space_group_name_H-M_alt    "P 1"
_space_group_IT_number       1

loop_
  _space_group_symop_operation_xyz
  'x, y, z'

loop_
  _atom_site_type_symbol
  _atom_site_label
  _atom_site_symmetry_multiplicity
  _atom_site_fract_x
  _atom_site_fract_y
  _atom_site_fract_z
  _atom_site_occupancy
  Fe  Fe1       1.0  0.25000  0.09850  0.09850  1.0000
  Fe  Fe2       1.0  0.75000  0.90200  0.90200  1.0000
  Ge  Ge1       1.0  0.21400  0.60600  0.20700  1.0000
  Ge  Ge2       1.0  0.71400  0.79300  0.39400  1.0000
  Ge  Ge3       1.0  0.28600  0.20700  0.60600  1.0000
  Ge  Ge4       1.0  0.78600  0.39400  0.79300  1.0000
  Li  Li1       1.0  0.75000  0.27300  0.27300  1.0000
  Li  Li2       1.0  0.25000  0.72700  0.72700  1.0000
  O   O1        1.0  0.12500  0.80400  0.02890  1.0000
  O   O2        1.0  0.37700  0.36800  0.12200  1.0000
  O   O3        1.0  0.62500  0.97100  0.19600  1.0000
  O   O4        1.0  0.91300  0.56700  0.29400  1.0000
  O   O5        1.0  0.12300  0.12200  0.36800  1.0000
  O   O6        1.0  0.41300  0.70600  0.43300  1.0000
  O   O7        1.0  0.58700  0.29400  0.56700  1.0000
  O   O8        1.0  0.87700  0.87800  0.63200  1.0000
  O   O9        1.0  0.08750  0.43300  0.70600  1.0000
  O   O10       1.0  0.37500  0.02890  0.80400  1.0000
  O   O11       1.0  0.62300  0.63200  0.87800  1.0000
  O   O12       1.0  0.87500  0.19600  0.97100  1.0000
