data_image0
_chemical_formula_structural       C8N16S16
_chemical_formula_sum              "C8 N16 S16"
_cell_length_a       6.61833
_cell_length_b       11.6911
_cell_length_c       8.2175
_cell_angle_alpha    90
_cell_angle_beta     106.336
_cell_angle_gamma    90

_space_group_name_H-M_alt    "P 1"
_space_group_IT_number       1

loop_
  _space_group_symop_operation_xyz
  'x, y, z'

loop_
  _atom_site_type_symbol
  _atom_site_label
  _atom_site_symmetry_multiplicity
  _atom_site_fract_x
  _atom_site_fract_y
  _atom_site_fract_z
  _atom_site_occupancy
  C   C1        1.0  0.28300  0.05310  0.05840  1.0000
  C   C2        1.0  0.77600  0.03080  0.07930  1.0000
  C   C3        1.0  0.72400  0.53100  0.42100  1.0000
  C   C4        1.0  0.21700  0.55300  0.44200  1.0000
  C   C5        1.0  0.78300  0.44700  0.55800  1.0000
  C   C6        1.0  0.27600  0.46900  0.57900  1.0000
  C   C7        1.0  0.22400  0.96900  0.92100  1.0000
  C   C8        1.0  0.71700  0.94700  0.94200  1.0000
  N   N1        1.0  0.76900  0.14000  0.02920  1.0000
  N   N2        1.0  0.28800  0.16400  0.03940  1.0000
  N   N3        1.0  0.07970  0.62700  0.14000  1.0000
  N   N4        1.0  0.82400  0.99800  0.24100  1.0000
  N   N5        1.0  0.67600  0.49800  0.25900  1.0000
  N   N6        1.0  0.42000  0.12700  0.36000  1.0000
  N   N7        1.0  0.21200  0.66400  0.46100  1.0000
  N   N8        1.0  0.73100  0.64000  0.47100  1.0000
  N   N9        1.0  0.26900  0.36000  0.52900  1.0000
  N   N10       1.0  0.78800  0.33600  0.53900  1.0000
  N   N11       1.0  0.58000  0.87300  0.64000  1.0000
  N   N12       1.0  0.32400  0.50200  0.74100  1.0000
  N   N13       1.0  0.17600  0.00186  0.75900  1.0000
  N   N14       1.0  0.92000  0.37300  0.86000  1.0000
  N   N15       1.0  0.71200  0.83600  0.96100  1.0000
  N   N16       1.0  0.23100  0.86000  0.97100  1.0000
  S   S1        1.0  0.62500  0.60500  0.12400  1.0000
  S   S2        1.0  0.80300  0.23500  0.18000  1.0000
  S   S3        1.0  0.37800  0.23100  0.22300  1.0000
  S   S4        1.0  0.13100  0.50100  0.23400  1.0000
  S   S5        1.0  0.36900  0.00071  0.26600  1.0000
  S   S6        1.0  0.12200  0.73100  0.27700  1.0000
  S   S7        1.0  0.69700  0.73500  0.32000  1.0000
  S   S8        1.0  0.87500  0.10500  0.37600  1.0000
  S   S9        1.0  0.12500  0.89500  0.62400  1.0000
  S   S10       1.0  0.30300  0.26500  0.68000  1.0000
  S   S11       1.0  0.87800  0.26900  0.72300  1.0000
  S   S12       1.0  0.63100  0.99900  0.73400  1.0000
  S   S13       1.0  0.86900  0.49900  0.76600  1.0000
  S   S14       1.0  0.62200  0.76900  0.77700  1.0000
  S   S15       1.0  0.19700  0.76500  0.82000  1.0000
  S   S16       1.0  0.37500  0.39500  0.87600  1.0000
