data_image0
_chemical_formula_structural       C6CrH14Na3O16
_chemical_formula_sum              "C6 Cr1 H14 Na3 O16"
_cell_length_a       6.28694
_cell_length_b       7.48571
_cell_length_c       8.36149
_cell_angle_alpha    102.239
_cell_angle_beta     96.7697
_cell_angle_gamma    79.5207

_space_group_name_H-M_alt    "P 1"
_space_group_IT_number       1

loop_
  _space_group_symop_operation_xyz
  'x, y, z'

loop_
  _atom_site_type_symbol
  _atom_site_label
  _atom_site_symmetry_multiplicity
  _atom_site_fract_x
  _atom_site_fract_y
  _atom_site_fract_z
  _atom_site_occupancy
  C   C1        1.0  0.28400  0.27200  0.08650  1.0000
  C   C2        1.0  0.37200  0.86600  0.21300  1.0000
  C   C3        1.0  0.81200  0.10900  0.33300  1.0000
  C   C4        1.0  0.18800  0.89100  0.66700  1.0000
  C   C5        1.0  0.62800  0.13400  0.78700  1.0000
  C   C6        1.0  0.71600  0.72800  0.91400  1.0000
  Cr  Cr1       1.0  0.00000  0.00000  0.00000  1.0000
  H   H1        1.0  0.40900  0.15000  0.05310  1.0000
  H   H2        1.0  0.12300  0.57100  0.21400  1.0000
  H   H3        1.0  0.95200  0.75600  0.25300  1.0000
  H   H4        1.0  0.30400  0.98600  0.30500  1.0000
  H   H5        1.0  0.45900  0.32600  0.40900  1.0000
  H   H6        1.0  0.78700  0.04990  0.43900  1.0000
  H   H7        1.0  0.61500  0.73300  0.44100  1.0000
  H   H8        1.0  0.38500  0.26700  0.55900  1.0000
  H   H9        1.0  0.21300  0.95000  0.56100  1.0000
  H   H10       1.0  0.54100  0.67400  0.59100  1.0000
  H   H11       1.0  0.69600  0.01400  0.69500  1.0000
  H   H12       1.0  0.04830  0.24400  0.74700  1.0000
  H   H13       1.0  0.87700  0.42900  0.78600  1.0000
  H   H14       1.0  0.59100  0.85000  0.94700  1.0000
  Na  Na1       1.0  0.71800  0.45200  0.13100  1.0000
  Na  Na2       1.0  0.00000  0.50000  0.50000  1.0000
  Na  Na3       1.0  0.28200  0.54800  0.86900  1.0000
  O   O1        1.0  0.28000  0.85000  0.06460  1.0000
  O   O2        1.0  0.08910  0.24500  0.08920  1.0000
  O   O3        1.0  0.33800  0.43000  0.11900  1.0000
  O   O4        1.0  0.89900  0.98600  0.21600  1.0000
  O   O5        1.0  0.53600  0.75800  0.25100  1.0000
  O   O6        1.0  0.99000  0.62800  0.27200  1.0000
  O   O7        1.0  0.75500  0.27800  0.33500  1.0000
  O   O8        1.0  0.33100  0.29500  0.44800  1.0000
  O   O9        1.0  0.66900  0.70500  0.55200  1.0000
  O   O10       1.0  0.24500  0.72200  0.66500  1.0000
  O   O11       1.0  0.00977  0.37200  0.72800  1.0000
  O   O12       1.0  0.46400  0.24200  0.74900  1.0000
  O   O13       1.0  0.10100  0.01420  0.78400  1.0000
  O   O14       1.0  0.66200  0.57000  0.88100  1.0000
  O   O15       1.0  0.91100  0.75500  0.91100  1.0000
  O   O16       1.0  0.72000  0.15000  0.93500  1.0000
