data_image0
_chemical_formula_structural       Ba4Cd4F28Ga4
_chemical_formula_sum              "Ba4 Cd4 F28 Ga4"
_cell_length_a       5.29226
_cell_length_b       7.33885
_cell_length_c       14.7758
_cell_angle_alpha    91.5646
_cell_angle_beta     90
_cell_angle_gamma    111.135

_space_group_name_H-M_alt    "P 1"
_space_group_IT_number       1

loop_
  _space_group_symop_operation_xyz
  'x, y, z'

loop_
  _atom_site_type_symbol
  _atom_site_label
  _atom_site_symmetry_multiplicity
  _atom_site_fract_x
  _atom_site_fract_y
  _atom_site_fract_z
  _atom_site_occupancy
  Ba  Ba1       1.0  0.22600  0.38700  0.12400  1.0000
  Ba  Ba2       1.0  0.83900  0.61300  0.37600  1.0000
  Ba  Ba3       1.0  0.16100  0.38700  0.62400  1.0000
  Ba  Ba4       1.0  0.77400  0.61300  0.87600  1.0000
  Cd  Cd1       1.0  0.50000  0.00000  0.00000  1.0000
  Cd  Cd2       1.0  0.54700  0.00000  0.25000  1.0000
  Cd  Cd3       1.0  0.50000  0.00000  0.50000  1.0000
  Cd  Cd4       1.0  0.45300  0.00000  0.75000  1.0000
  F   F1        1.0  0.06480  0.82300  0.01680  1.0000
  F   F2        1.0  0.55100  0.72400  0.04950  1.0000
  F   F3        1.0  0.79300  0.48700  0.09070  1.0000
  F   F4        1.0  0.45000  0.12400  0.13000  1.0000
  F   F5        1.0  0.89600  0.01130  0.15300  1.0000
  F   F6        1.0  0.14600  0.74300  0.20000  1.0000
  F   F7        1.0  0.61400  0.67300  0.22400  1.0000
  F   F8        1.0  0.94100  0.32700  0.27600  1.0000
  F   F9        1.0  0.40400  0.25700  0.30000  1.0000
  F   F10       1.0  0.88500  0.98900  0.34700  1.0000
  F   F11       1.0  0.32600  0.87600  0.37000  1.0000
  F   F12       1.0  0.30600  0.51300  0.40900  1.0000
  F   F13       1.0  0.82700  0.27600  0.45000  1.0000
  F   F14       1.0  0.24200  0.17700  0.48300  1.0000
  F   F15       1.0  0.75800  0.82300  0.51700  1.0000
  F   F16       1.0  0.17300  0.72400  0.55000  1.0000
  F   F17       1.0  0.69400  0.48700  0.59100  1.0000
  F   F18       1.0  0.67400  0.12400  0.63000  1.0000
  F   F19       1.0  0.11500  0.01130  0.65300  1.0000
  F   F20       1.0  0.59600  0.74300  0.70000  1.0000
  F   F21       1.0  0.05910  0.67300  0.72400  1.0000
  F   F22       1.0  0.38600  0.32700  0.77600  1.0000
  F   F23       1.0  0.85400  0.25700  0.80000  1.0000
  F   F24       1.0  0.10400  0.98900  0.84700  1.0000
  F   F25       1.0  0.55000  0.87600  0.87000  1.0000
  F   F26       1.0  0.20700  0.51300  0.90900  1.0000
  F   F27       1.0  0.44900  0.27600  0.95000  1.0000
  F   F28       1.0  0.93500  0.17700  0.98300  1.0000
  Ga  Ga1       1.0  0.86500  0.75100  0.12500  1.0000
  Ga  Ga2       1.0  0.11400  0.24900  0.37500  1.0000
  Ga  Ga3       1.0  0.88600  0.75100  0.62500  1.0000
  Ga  Ga4       1.0  0.13500  0.24900  0.87500  1.0000
