data_image0
_chemical_formula_structural       Cl24In4K12
_chemical_formula_sum              "Cl24 In4 K12"
_cell_length_a       12.7034
_cell_length_b       7.64632
_cell_length_c       12.4568
_cell_angle_alpha    90
_cell_angle_beta     108.949
_cell_angle_gamma    90

_space_group_name_H-M_alt    "P 1"
_space_group_IT_number       1

loop_
  _space_group_symop_operation_xyz
  'x, y, z'

loop_
  _atom_site_type_symbol
  _atom_site_label
  _atom_site_symmetry_multiplicity
  _atom_site_fract_x
  _atom_site_fract_y
  _atom_site_fract_z
  _atom_site_occupancy
  Cl  Cl1       1.0  0.34700  0.79300  0.00389  1.0000
  Cl  Cl2       1.0  0.10200  0.21500  0.09230  1.0000
  Cl  Cl3       1.0  0.65400  0.78800  0.10600  1.0000
  Cl  Cl4       1.0  0.88400  0.48900  0.12800  1.0000
  Cl  Cl5       1.0  0.13700  0.68000  0.15200  1.0000
  Cl  Cl6       1.0  0.50100  0.13700  0.19000  1.0000
  Cl  Cl7       1.0  0.49900  0.63700  0.31000  1.0000
  Cl  Cl8       1.0  0.86300  0.18000  0.34800  1.0000
  Cl  Cl9       1.0  0.11600  0.98900  0.37200  1.0000
  Cl  Cl10      1.0  0.34600  0.28800  0.39400  1.0000
  Cl  Cl11      1.0  0.89800  0.71500  0.40800  1.0000
  Cl  Cl12      1.0  0.65300  0.29300  0.49600  1.0000
  Cl  Cl13      1.0  0.34700  0.70700  0.50400  1.0000
  Cl  Cl14      1.0  0.10200  0.28500  0.59200  1.0000
  Cl  Cl15      1.0  0.65400  0.71200  0.60600  1.0000
  Cl  Cl16      1.0  0.88400  0.01110  0.62800  1.0000
  Cl  Cl17      1.0  0.13700  0.82000  0.65200  1.0000
  Cl  Cl18      1.0  0.50100  0.36300  0.69000  1.0000
  Cl  Cl19      1.0  0.49900  0.86300  0.81000  1.0000
  Cl  Cl20      1.0  0.86300  0.32000  0.84800  1.0000
  Cl  Cl21      1.0  0.11600  0.51100  0.87200  1.0000
  Cl  Cl22      1.0  0.34600  0.21200  0.89400  1.0000
  Cl  Cl23      1.0  0.89800  0.78500  0.90800  1.0000
  Cl  Cl24      1.0  0.65300  0.20700  0.99600  1.0000
  In  In1       1.0  0.50000  0.00000  0.00000  1.0000
  In  In2       1.0  0.00000  0.50000  0.00000  1.0000
  In  In3       1.0  0.00000  0.00000  0.50000  1.0000
  In  In4       1.0  0.50000  0.50000  0.50000  1.0000
  K   K1        1.0  0.32200  0.43100  0.11200  1.0000
  K   K2        1.0  0.89900  0.97700  0.13800  1.0000
  K   K3        1.0  0.68200  0.43900  0.23600  1.0000
  K   K4        1.0  0.31800  0.93900  0.26400  1.0000
  K   K5        1.0  0.10100  0.47700  0.36200  1.0000
  K   K6        1.0  0.67800  0.93100  0.38800  1.0000
  K   K7        1.0  0.32200  0.06930  0.61200  1.0000
  K   K8        1.0  0.89900  0.52300  0.63800  1.0000
  K   K9        1.0  0.68200  0.06100  0.73600  1.0000
  K   K10       1.0  0.31800  0.56100  0.76400  1.0000
  K   K11       1.0  0.10100  0.02270  0.86200  1.0000
  K   K12       1.0  0.67800  0.56900  0.88800  1.0000
