data_image0
_chemical_formula_structural       B12Na4O22Zn2
_chemical_formula_sum              "B12 Na4 O22 Zn2"
_cell_length_a       6.4489
_cell_length_b       6.4489
_cell_length_c       11.2359
_cell_angle_alpha    96.5699
_cell_angle_beta     104.951
_cell_angle_gamma    110.558

_space_group_name_H-M_alt    "P 1"
_space_group_IT_number       1

loop_
  _space_group_symop_operation_xyz
  'x, y, z'

loop_
  _atom_site_type_symbol
  _atom_site_label
  _atom_site_symmetry_multiplicity
  _atom_site_fract_x
  _atom_site_fract_y
  _atom_site_fract_z
  _atom_site_occupancy
  B   B1        1.0  0.91000  0.15500  0.01750  1.0000
  B   B2        1.0  0.88500  0.81000  0.10500  1.0000
  B   B3        1.0  0.14900  0.57100  0.13100  1.0000
  B   B4        1.0  0.58200  0.68200  0.21800  1.0000
  B   B5        1.0  0.34600  0.59500  0.35600  1.0000
  B   B6        1.0  0.59900  0.19400  0.37900  1.0000
  B   B7        1.0  0.36300  0.10800  0.51800  1.0000
  B   B8        1.0  0.79500  0.22000  0.60500  1.0000
  B   B9        1.0  0.05990  0.98100  0.63100  1.0000
  B   B10       1.0  0.03540  0.63600  0.71800  1.0000
  B   B11       1.0  0.26100  0.00989  0.85600  1.0000
  B   B12       1.0  0.68500  0.78100  0.87900  1.0000
  Na  Na1       1.0  0.99700  0.16500  0.33400  1.0000
  Na  Na2       1.0  0.94700  0.62400  0.40200  1.0000
  Na  Na3       1.0  0.66900  0.33700  0.83400  1.0000
  Na  Na4       1.0  0.27800  0.45500  0.90200  1.0000
  O   O1        1.0  0.98600  0.38200  0.02330  1.0000
  O   O2        1.0  0.10000  0.77300  0.11700  1.0000
  O   O3        1.0  0.96400  0.06090  0.11800  1.0000
  O   O4        1.0  0.38700  0.63500  0.11800  1.0000
  O   O5        1.0  0.80300  0.75400  0.21200  1.0000
  O   O6        1.0  0.14600  0.51800  0.25300  1.0000
  O   O7        1.0  0.62400  0.19300  0.26400  1.0000
  O   O8        1.0  0.56600  0.66600  0.33800  1.0000
  O   O9        1.0  0.37900  0.12300  0.39700  1.0000
  O   O10       1.0  0.32100  0.59400  0.47100  1.0000
  O   O11       1.0  0.79900  0.27300  0.48200  1.0000
  O   O12       1.0  0.14200  0.03720  0.52300  1.0000
  O   O13       1.0  0.84400  0.01730  0.61700  1.0000
  O   O14       1.0  0.55700  0.15400  0.61800  1.0000
  O   O15       1.0  0.98200  0.73000  0.61800  1.0000
  O   O16       1.0  0.95800  0.40900  0.71200  1.0000
  O   O17       1.0  0.23600  0.10800  0.75300  1.0000
  O   O18       1.0  0.57100  0.64000  0.76400  1.0000
  O   O19       1.0  0.17300  0.77200  0.83800  1.0000
  O   O20       1.0  0.77400  0.01810  0.89700  1.0000
  O   O21       1.0  0.37700  0.15000  0.97100  1.0000
  O   O22       1.0  0.70900  0.68300  0.98200  1.0000
  Zn  Zn1       1.0  0.36400  0.03700  0.11800  1.0000
  Zn  Zn2       1.0  0.58100  0.75300  0.61800  1.0000
