data_image0
_chemical_formula_structural       C8Ga2H26N4
_chemical_formula_sum              "C8 Ga2 H26 N4"
_cell_length_a       6.08931
_cell_length_b       6.84994
_cell_length_c       8.54542
_cell_angle_alpha    81.2998
_cell_angle_beta     73.9221
_cell_angle_gamma    77.0076

_space_group_name_H-M_alt    "P 1"
_space_group_IT_number       1

loop_
  _space_group_symop_operation_xyz
  'x, y, z'

loop_
  _atom_site_type_symbol
  _atom_site_label
  _atom_site_symmetry_multiplicity
  _atom_site_fract_x
  _atom_site_fract_y
  _atom_site_fract_z
  _atom_site_occupancy
  C   C1        1.0  0.70500  0.65700  0.10600  1.0000
  C   C2        1.0  0.29100  0.76000  0.21500  1.0000
  C   C3        1.0  0.09040  0.25100  0.32900  1.0000
  C   C4        1.0  0.41500  0.26400  0.43100  1.0000
  C   C5        1.0  0.58500  0.73600  0.56900  1.0000
  C   C6        1.0  0.91000  0.74900  0.67100  1.0000
  C   C7        1.0  0.70900  0.24000  0.78500  1.0000
  C   C8        1.0  0.29500  0.34300  0.89400  1.0000
  Ga  Ga1       1.0  0.55600  0.09060  0.12600  1.0000
  Ga  Ga2       1.0  0.44400  0.90900  0.87400  1.0000
  H   H1        1.0  0.86400  0.70400  0.02880  1.0000
  H   H2        1.0  0.68800  0.51700  0.06500  1.0000
  H   H3        1.0  0.81600  0.07750  0.12300  1.0000
  H   H4        1.0  0.27300  0.60900  0.19600  1.0000
  H   H5        1.0  0.13400  0.86900  0.20000  1.0000
  H   H6        1.0  0.03470  0.21600  0.22600  1.0000
  H   H7        1.0  0.72400  0.62300  0.23200  1.0000
  H   H8        1.0  0.30400  0.75600  0.34200  1.0000
  H   H9        1.0  0.00248  0.40700  0.35500  1.0000
  H   H10       1.0  0.60600  0.24300  0.40200  1.0000
  H   H11       1.0  0.01920  0.15100  0.43800  1.0000
  H   H12       1.0  0.64100  0.83900  0.45800  1.0000
  H   H13       1.0  0.34200  0.41900  0.46500  1.0000
  H   H14       1.0  0.65800  0.58100  0.53500  1.0000
  H   H15       1.0  0.35900  0.16100  0.54200  1.0000
  H   H16       1.0  0.98100  0.84900  0.56200  1.0000
  H   H17       1.0  0.39500  0.75700  0.59800  1.0000
  H   H18       1.0  0.99800  0.59300  0.64500  1.0000
  H   H19       1.0  0.69600  0.24400  0.65800  1.0000
  H   H20       1.0  0.27600  0.37700  0.76800  1.0000
  H   H21       1.0  0.96500  0.78400  0.77400  1.0000
  H   H22       1.0  0.86600  0.13100  0.80000  1.0000
  H   H23       1.0  0.72700  0.39100  0.80400  1.0000
  H   H24       1.0  0.18400  0.92200  0.87700  1.0000
  H   H25       1.0  0.31200  0.48300  0.93500  1.0000
  H   H26       1.0  0.13600  0.29600  0.97100  1.0000
  N   N1        1.0  0.50000  0.81700  0.09800  1.0000
  N   N2        1.0  0.34000  0.22700  0.29400  1.0000
  N   N3        1.0  0.66000  0.77300  0.70600  1.0000
  N   N4        1.0  0.50000  0.18300  0.90200  1.0000
