data_image0
_chemical_formula_structural       Ag8Pd24Se8
_chemical_formula_sum              "Ag8 Pd24 Se8"
_cell_length_a       8.70933
_cell_length_b       8.70933
_cell_length_c       8.70933
_cell_angle_alpha    90
_cell_angle_beta     90
_cell_angle_gamma    90

_space_group_name_H-M_alt    "P 1"
_space_group_IT_number       1

loop_
  _space_group_symop_operation_xyz
  'x, y, z'

loop_
  _atom_site_type_symbol
  _atom_site_label
  _atom_site_symmetry_multiplicity
  _atom_site_fract_x
  _atom_site_fract_y
  _atom_site_fract_z
  _atom_site_occupancy
  Ag  Ag1       1.0  0.90600  0.40600  0.09410  1.0000
  Ag  Ag2       1.0  0.59400  0.90600  0.09410  1.0000
  Ag  Ag3       1.0  0.40600  0.40600  0.40600  1.0000
  Ag  Ag4       1.0  0.09410  0.90600  0.40600  1.0000
  Ag  Ag5       1.0  0.90600  0.09410  0.59400  1.0000
  Ag  Ag6       1.0  0.59400  0.59400  0.59400  1.0000
  Ag  Ag7       1.0  0.40600  0.09410  0.90600  1.0000
  Ag  Ag8       1.0  0.09410  0.59400  0.90600  1.0000
  Pd  Pd1       1.0  0.27800  0.36200  0.08630  1.0000
  Pd  Pd2       1.0  0.22200  0.86200  0.08630  1.0000
  Pd  Pd3       1.0  0.58600  0.27800  0.13800  1.0000
  Pd  Pd4       1.0  0.91400  0.77800  0.13800  1.0000
  Pd  Pd5       1.0  0.86200  0.08630  0.22200  1.0000
  Pd  Pd6       1.0  0.63800  0.58600  0.22200  1.0000
  Pd  Pd7       1.0  0.36200  0.08630  0.27800  1.0000
  Pd  Pd8       1.0  0.13800  0.58600  0.27800  1.0000
  Pd  Pd9       1.0  0.08630  0.27800  0.36200  1.0000
  Pd  Pd10      1.0  0.41400  0.77800  0.36200  1.0000
  Pd  Pd11      1.0  0.77800  0.36200  0.41400  1.0000
  Pd  Pd12      1.0  0.72200  0.86200  0.41400  1.0000
  Pd  Pd13      1.0  0.27800  0.13800  0.58600  1.0000
  Pd  Pd14      1.0  0.22200  0.63800  0.58600  1.0000
  Pd  Pd15      1.0  0.58600  0.22200  0.63800  1.0000
  Pd  Pd16      1.0  0.91400  0.72200  0.63800  1.0000
  Pd  Pd17      1.0  0.86200  0.41400  0.72200  1.0000
  Pd  Pd18      1.0  0.63800  0.91400  0.72200  1.0000
  Pd  Pd19      1.0  0.36200  0.41400  0.77800  1.0000
  Pd  Pd20      1.0  0.13800  0.91400  0.77800  1.0000
  Pd  Pd21      1.0  0.08630  0.22200  0.86200  1.0000
  Pd  Pd22      1.0  0.41400  0.72200  0.86200  1.0000
  Pd  Pd23      1.0  0.77800  0.13800  0.91400  1.0000
  Pd  Pd24      1.0  0.72200  0.63800  0.91400  1.0000
  Se  Se1       1.0  0.12200  0.12200  0.12200  1.0000
  Se  Se2       1.0  0.37800  0.62200  0.12200  1.0000
  Se  Se3       1.0  0.62200  0.12200  0.37800  1.0000
  Se  Se4       1.0  0.87800  0.62200  0.37800  1.0000
  Se  Se5       1.0  0.12200  0.37800  0.62200  1.0000
  Se  Se6       1.0  0.37800  0.87800  0.62200  1.0000
  Se  Se7       1.0  0.62200  0.37800  0.87800  1.0000
  Se  Se8       1.0  0.87800  0.87800  0.87800  1.0000
