data_image0
_chemical_formula_structural       F24K8Sn8
_chemical_formula_sum              "F24 K8 Sn8"
_cell_length_a       7.85792
_cell_length_b       9.57704
_cell_length_c       9.86622
_cell_angle_alpha    80.028
_cell_angle_beta     71.9394
_cell_angle_gamma    73.7458

_space_group_name_H-M_alt    "P 1"
_space_group_IT_number       1

loop_
  _space_group_symop_operation_xyz
  'x, y, z'

loop_
  _atom_site_type_symbol
  _atom_site_label
  _atom_site_symmetry_multiplicity
  _atom_site_fract_x
  _atom_site_fract_y
  _atom_site_fract_z
  _atom_site_occupancy
  F   F1        1.0  0.58300  0.81800  0.05270  1.0000
  F   F2        1.0  0.30000  0.69700  0.06410  1.0000
  F   F3        1.0  0.94500  0.85800  0.15200  1.0000
  F   F4        1.0  0.56300  0.13100  0.22600  1.0000
  F   F5        1.0  0.74700  0.64100  0.24600  1.0000
  F   F6        1.0  0.22800  0.05600  0.26100  1.0000
  F   F7        1.0  0.07080  0.58300  0.31700  1.0000
  F   F8        1.0  0.38200  0.69200  0.31900  1.0000
  F   F9        1.0  0.96000  0.30100  0.34500  1.0000
  F   F10       1.0  0.58700  0.37200  0.35000  1.0000
  F   F11       1.0  0.76900  0.07600  0.42800  1.0000
  F   F12       1.0  0.26300  0.23000  0.45600  1.0000
  F   F13       1.0  0.73700  0.77000  0.54400  1.0000
  F   F14       1.0  0.23100  0.92400  0.57200  1.0000
  F   F15       1.0  0.41300  0.62800  0.65000  1.0000
  F   F16       1.0  0.04030  0.69900  0.65500  1.0000
  F   F17       1.0  0.61800  0.30800  0.68100  1.0000
  F   F18       1.0  0.92900  0.41700  0.68300  1.0000
  F   F19       1.0  0.77200  0.94400  0.73900  1.0000
  F   F20       1.0  0.25300  0.35900  0.75400  1.0000
  F   F21       1.0  0.43700  0.86900  0.77400  1.0000
  F   F22       1.0  0.05540  0.14200  0.84800  1.0000
  F   F23       1.0  0.70000  0.30300  0.93600  1.0000
  F   F24       1.0  0.41700  0.18200  0.94700  1.0000
  K   K1        1.0  0.25100  0.97600  0.02030  1.0000
  K   K2        1.0  0.53800  0.88200  0.36400  1.0000
  K   K3        1.0  0.04650  0.84700  0.39700  1.0000
  K   K4        1.0  0.74200  0.50900  0.49300  1.0000
  K   K5        1.0  0.25800  0.49100  0.50700  1.0000
  K   K6        1.0  0.95400  0.15300  0.60300  1.0000
  K   K7        1.0  0.46200  0.11800  0.63600  1.0000
  K   K8        1.0  0.74900  0.02390  0.98000  1.0000
  Sn  Sn1       1.0  0.03400  0.63400  0.11300  1.0000
  Sn  Sn2       1.0  0.55700  0.60300  0.13300  1.0000
  Sn  Sn3       1.0  0.27400  0.26400  0.24000  1.0000
  Sn  Sn4       1.0  0.80200  0.21400  0.24100  1.0000
  Sn  Sn5       1.0  0.19800  0.78600  0.75900  1.0000
  Sn  Sn6       1.0  0.72600  0.73600  0.76000  1.0000
  Sn  Sn7       1.0  0.44300  0.39700  0.86700  1.0000
  Sn  Sn8       1.0  0.96600  0.36600  0.88700  1.0000
