data_image0
_chemical_formula_structural       C8Cs4H12O16
_chemical_formula_sum              "C8 Cs4 H12 O16"
_cell_length_a       7.77072
_cell_length_b       7.49771
_cell_length_c       9.8403
_cell_angle_alpha    97.955
_cell_angle_beta     66.7439
_cell_angle_gamma    110.518

_space_group_name_H-M_alt    "P 1"
_space_group_IT_number       1

loop_
  _space_group_symop_operation_xyz
  'x, y, z'

loop_
  _atom_site_type_symbol
  _atom_site_label
  _atom_site_symmetry_multiplicity
  _atom_site_fract_x
  _atom_site_fract_y
  _atom_site_fract_z
  _atom_site_occupancy
  C   C1        1.0  0.17900  0.61200  0.24100  1.0000
  C   C2        1.0  0.58000  0.88800  0.24100  1.0000
  C   C3        1.0  0.91200  0.10400  0.39300  1.0000
  C   C4        1.0  0.69500  0.39600  0.39300  1.0000
  C   C5        1.0  0.30500  0.60400  0.60700  1.0000
  C   C6        1.0  0.08790  0.89600  0.60700  1.0000
  C   C7        1.0  0.42000  0.11200  0.75900  1.0000
  C   C8        1.0  0.82100  0.38800  0.75900  1.0000
  Cs  Cs1       1.0  0.98300  0.75000  0.03470  1.0000
  Cs  Cs2       1.0  0.41500  0.25000  0.17000  1.0000
  Cs  Cs3       1.0  0.58500  0.75000  0.83000  1.0000
  Cs  Cs4       1.0  0.01730  0.25000  0.96500  1.0000
  H   H1        1.0  0.12900  0.51400  0.33400  1.0000
  H   H2        1.0  0.53700  0.98600  0.33400  1.0000
  H   H3        1.0  0.52800  0.71900  0.40600  1.0000
  H   H4        1.0  0.06610  0.78100  0.40600  1.0000
  H   H5        1.0  0.76200  0.02110  0.46800  1.0000
  H   H6        1.0  0.77000  0.47900  0.46800  1.0000
  H   H7        1.0  0.23000  0.52100  0.53200  1.0000
  H   H8        1.0  0.23800  0.97900  0.53200  1.0000
  H   H9        1.0  0.93400  0.21900  0.59400  1.0000
  H   H10       1.0  0.47200  0.28100  0.59400  1.0000
  H   H11       1.0  0.46300  0.01350  0.66600  1.0000
  H   H12       1.0  0.87100  0.48600  0.66600  1.0000
  O   O1        1.0  0.25600  0.56300  0.11100  1.0000
  O   O2        1.0  0.63300  0.93700  0.11100  1.0000
  O   O3        1.0  0.96100  0.08040  0.25700  1.0000
  O   O4        1.0  0.78300  0.42000  0.25700  1.0000
  O   O5        1.0  0.56800  0.72300  0.27900  1.0000
  O   O6        1.0  0.15300  0.77700  0.27900  1.0000
  O   O7        1.0  0.02520  0.22100  0.45600  1.0000
  O   O8        1.0  0.51800  0.27900  0.45600  1.0000
  O   O9        1.0  0.48200  0.72100  0.54400  1.0000
  O   O10       1.0  0.97500  0.77900  0.54400  1.0000
  O   O11       1.0  0.84700  0.22300  0.72100  1.0000
  O   O12       1.0  0.43200  0.27700  0.72100  1.0000
  O   O13       1.0  0.21700  0.58000  0.74300  1.0000
  O   O14       1.0  0.03940  0.92000  0.74300  1.0000
  O   O15       1.0  0.36700  0.06340  0.88900  1.0000
  O   O16       1.0  0.74400  0.43700  0.88900  1.0000
