data_image0
_chemical_formula_structural       Ag2C12F12N8O4Sb2
_chemical_formula_sum              "Ag2 C12 F12 N8 O4 Sb2"
_cell_length_a       7.36233
_cell_length_b       7.36233
_cell_length_c       10.1178
_cell_angle_alpha    90.2237
_cell_angle_beta     90.2237
_cell_angle_gamma    81.4846

_space_group_name_H-M_alt    "P 1"
_space_group_IT_number       1

loop_
  _space_group_symop_operation_xyz
  'x, y, z'

loop_
  _atom_site_type_symbol
  _atom_site_label
  _atom_site_symmetry_multiplicity
  _atom_site_fract_x
  _atom_site_fract_y
  _atom_site_fract_z
  _atom_site_occupancy
  Ag  Ag1       1.0  0.71000  0.29000  0.25000  1.0000
  Ag  Ag2       1.0  0.29000  0.71000  0.75000  1.0000
  C   C1        1.0  0.78100  0.82100  0.03220  1.0000
  C   C2        1.0  0.04570  0.22600  0.03560  1.0000
  C   C3        1.0  0.36900  0.20200  0.05630  1.0000
  C   C4        1.0  0.79800  0.63100  0.44400  1.0000
  C   C5        1.0  0.77400  0.95400  0.46400  1.0000
  C   C6        1.0  0.17900  0.21900  0.46800  1.0000
  C   C7        1.0  0.82100  0.78100  0.53200  1.0000
  C   C8        1.0  0.22600  0.04570  0.53600  1.0000
  C   C9        1.0  0.20200  0.36900  0.55600  1.0000
  C   C10       1.0  0.63100  0.79800  0.94400  1.0000
  C   C11       1.0  0.95400  0.77400  0.96400  1.0000
  C   C12       1.0  0.21900  0.17900  0.96800  1.0000
  F   F1        1.0  0.49800  0.61900  0.13400  1.0000
  F   F2        1.0  0.22000  0.90500  0.13500  1.0000
  F   F3        1.0  0.14800  0.55400  0.15600  1.0000
  F   F4        1.0  0.44600  0.85200  0.34400  1.0000
  F   F5        1.0  0.09520  0.78000  0.36500  1.0000
  F   F6        1.0  0.38100  0.50200  0.36600  1.0000
  F   F7        1.0  0.61900  0.49800  0.63400  1.0000
  F   F8        1.0  0.90500  0.22000  0.63500  1.0000
  F   F9        1.0  0.55400  0.14800  0.65600  1.0000
  F   F10       1.0  0.85200  0.44600  0.84400  1.0000
  F   F11       1.0  0.78000  0.09520  0.86500  1.0000
  F   F12       1.0  0.50200  0.38100  0.86600  1.0000
  N   N1        1.0  0.91100  0.26000  0.09570  1.0000
  N   N2        1.0  0.47500  0.22500  0.13800  1.0000
  N   N3        1.0  0.77500  0.52500  0.36200  1.0000
  N   N4        1.0  0.74000  0.08860  0.40400  1.0000
  N   N5        1.0  0.26000  0.91100  0.59600  1.0000
  N   N6        1.0  0.22500  0.47500  0.63800  1.0000
  N   N7        1.0  0.52500  0.77500  0.86200  1.0000
  N   N8        1.0  0.08860  0.74000  0.90400  1.0000
  O   O1        1.0  0.76600  0.87300  0.14600  1.0000
  O   O2        1.0  0.12700  0.23400  0.35400  1.0000
  O   O3        1.0  0.87300  0.76600  0.64600  1.0000
  O   O4        1.0  0.23400  0.12700  0.85400  1.0000
  Sb  Sb1       1.0  0.29900  0.70100  0.25000  1.0000
  Sb  Sb2       1.0  0.70100  0.29900  0.75000  1.0000
