data_image0
_chemical_formula_structural       Cl8H4N4O16S8
_chemical_formula_sum              "Cl8 H4 N4 O16 S8"
_cell_length_a       7.56808
_cell_length_b       9.72378
_cell_length_c       9.06157
_cell_angle_alpha    90
_cell_angle_beta     109.662
_cell_angle_gamma    90

_space_group_name_H-M_alt    "P 1"
_space_group_IT_number       1

loop_
  _space_group_symop_operation_xyz
  'x, y, z'

loop_
  _atom_site_type_symbol
  _atom_site_label
  _atom_site_symmetry_multiplicity
  _atom_site_fract_x
  _atom_site_fract_y
  _atom_site_fract_z
  _atom_site_occupancy
  Cl  Cl1       1.0  0.77700  0.87700  0.06230  1.0000
  Cl  Cl2       1.0  0.40700  0.58200  0.17400  1.0000
  Cl  Cl3       1.0  0.59300  0.08250  0.32600  1.0000
  Cl  Cl4       1.0  0.22300  0.37700  0.43800  1.0000
  Cl  Cl5       1.0  0.77700  0.62300  0.56200  1.0000
  Cl  Cl6       1.0  0.40700  0.91800  0.67400  1.0000
  Cl  Cl7       1.0  0.59300  0.41800  0.82600  1.0000
  Cl  Cl8       1.0  0.22300  0.12300  0.93800  1.0000
  H   H1        1.0  0.86600  0.23000  0.14600  1.0000
  H   H2        1.0  0.13400  0.73000  0.35400  1.0000
  H   H3        1.0  0.86600  0.27000  0.64600  1.0000
  H   H4        1.0  0.13400  0.77000  0.85400  1.0000
  N   N1        1.0  0.11900  0.74200  0.23700  1.0000
  N   N2        1.0  0.88100  0.24200  0.26300  1.0000
  N   N3        1.0  0.11900  0.75800  0.73700  1.0000
  N   N4        1.0  0.88100  0.25800  0.76300  1.0000
  O   O1        1.0  0.05310  0.34400  0.03500  1.0000
  O   O2        1.0  0.26900  0.84000  0.05220  1.0000
  O   O3        1.0  0.55700  0.32900  0.16000  1.0000
  O   O4        1.0  0.82600  0.60800  0.18600  1.0000
  O   O5        1.0  0.17400  0.10800  0.31400  1.0000
  O   O6        1.0  0.44300  0.82900  0.34000  1.0000
  O   O7        1.0  0.73100  0.34000  0.44800  1.0000
  O   O8        1.0  0.94700  0.84400  0.46500  1.0000
  O   O9        1.0  0.05310  0.15600  0.53500  1.0000
  O   O10       1.0  0.26900  0.66000  0.55200  1.0000
  O   O11       1.0  0.55700  0.17100  0.66000  1.0000
  O   O12       1.0  0.82600  0.89200  0.68600  1.0000
  O   O13       1.0  0.17400  0.39200  0.81400  1.0000
  O   O14       1.0  0.44300  0.67100  0.84000  1.0000
  O   O15       1.0  0.73100  0.16000  0.94800  1.0000
  O   O16       1.0  0.94700  0.65600  0.96500  1.0000
  S   S1        1.0  0.91500  0.69600  0.10600  1.0000
  S   S2        1.0  0.31500  0.77100  0.20000  1.0000
  S   S3        1.0  0.68500  0.27100  0.30000  1.0000
  S   S4        1.0  0.08550  0.19600  0.39400  1.0000
  S   S5        1.0  0.91500  0.80400  0.60600  1.0000
  S   S6        1.0  0.31500  0.72900  0.70000  1.0000
  S   S7        1.0  0.68500  0.22900  0.80000  1.0000
  S   S8        1.0  0.08550  0.30400  0.89400  1.0000
