data_image0
_chemical_formula_structural       Ca6Co2O24Se8
_chemical_formula_sum              "Ca6 Co2 O24 Se8"
_cell_length_a       12.4082
_cell_length_b       7.51771
_cell_length_c       7.51771
_cell_angle_alpha    90
_cell_angle_beta     107.634
_cell_angle_gamma    107.634

_space_group_name_H-M_alt    "P 1"
_space_group_IT_number       1

loop_
  _space_group_symop_operation_xyz
  'x, y, z'

loop_
  _atom_site_type_symbol
  _atom_site_label
  _atom_site_symmetry_multiplicity
  _atom_site_fract_x
  _atom_site_fract_y
  _atom_site_fract_z
  _atom_site_occupancy
  Ca  Ca1       1.0  0.89600  0.44800  0.19800  1.0000
  Ca  Ca2       1.0  0.25000  0.62500  0.37500  1.0000
  Ca  Ca3       1.0  0.39600  0.19800  0.44800  1.0000
  Ca  Ca4       1.0  0.60400  0.80200  0.55200  1.0000
  Ca  Ca5       1.0  0.75000  0.37500  0.62500  1.0000
  Ca  Ca6       1.0  0.10400  0.55200  0.80200  1.0000
  Co  Co1       1.0  0.75000  0.87500  0.12500  1.0000
  Co  Co2       1.0  0.25000  0.12500  0.87500  1.0000
  O   O1        1.0  0.25200  0.54600  0.06950  1.0000
  O   O2        1.0  0.85600  0.11400  0.08310  1.0000
  O   O3        1.0  0.35600  0.27300  0.11400  1.0000
  O   O4        1.0  0.05790  0.65400  0.13400  1.0000
  O   O5        1.0  0.64400  0.91700  0.25700  1.0000
  O   O6        1.0  0.85600  0.74300  0.27300  1.0000
  O   O7        1.0  0.24800  0.93000  0.29300  1.0000
  O   O8        1.0  0.74800  0.29300  0.31700  1.0000
  O   O9        1.0  0.44200  0.57600  0.34600  1.0000
  O   O10       1.0  0.55800  0.13400  0.40400  1.0000
  O   O11       1.0  0.05790  0.40400  0.42400  1.0000
  O   O12       1.0  0.24800  0.31700  0.45400  1.0000
  O   O13       1.0  0.75200  0.68300  0.54600  1.0000
  O   O14       1.0  0.94200  0.59600  0.57600  1.0000
  O   O15       1.0  0.44200  0.86600  0.59600  1.0000
  O   O16       1.0  0.55800  0.42400  0.65400  1.0000
  O   O17       1.0  0.25200  0.70700  0.68300  1.0000
  O   O18       1.0  0.75200  0.06950  0.70700  1.0000
  O   O19       1.0  0.14400  0.25700  0.72700  1.0000
  O   O20       1.0  0.35600  0.08310  0.74300  1.0000
  O   O21       1.0  0.94200  0.34600  0.86600  1.0000
  O   O22       1.0  0.64400  0.72700  0.88600  1.0000
  O   O23       1.0  0.14400  0.88600  0.91700  1.0000
  O   O24       1.0  0.74800  0.45400  0.93000  1.0000
  Se  Se1       1.0  0.38900  0.51600  0.11000  1.0000
  Se  Se2       1.0  0.11100  0.89000  0.12800  1.0000
  Se  Se3       1.0  0.61100  0.12800  0.22100  1.0000
  Se  Se4       1.0  0.11100  0.22100  0.48400  1.0000
  Se  Se5       1.0  0.88900  0.77900  0.51600  1.0000
  Se  Se6       1.0  0.38900  0.87200  0.77900  1.0000
  Se  Se7       1.0  0.88900  0.11000  0.87200  1.0000
  Se  Se8       1.0  0.61100  0.48400  0.89000  1.0000
