data_image0
_chemical_formula_structural       C4F12H8O12U4
_chemical_formula_sum              "C4 F12 H8 O12 U4"
_cell_length_a       5.89853
_cell_length_b       8.55259
_cell_length_c       9.01994
_cell_angle_alpha    94.1614
_cell_angle_beta     109.085
_cell_angle_gamma    90

_space_group_name_H-M_alt    "P 1"
_space_group_IT_number       1

loop_
  _space_group_symop_operation_xyz
  'x, y, z'

loop_
  _atom_site_type_symbol
  _atom_site_label
  _atom_site_symmetry_multiplicity
  _atom_site_fract_x
  _atom_site_fract_y
  _atom_site_fract_z
  _atom_site_occupancy
  C   C1        1.0  0.12100  0.03930  0.00629  1.0000
  C   C2        1.0  0.88500  0.53900  0.00629  1.0000
  C   C3        1.0  0.87900  0.96100  0.99400  1.0000
  C   C4        1.0  0.11500  0.46100  0.99400  1.0000
  F   F1        1.0  0.10100  0.39300  0.30200  1.0000
  F   F2        1.0  0.20100  0.89300  0.30200  1.0000
  F   F3        1.0  0.78100  0.98300  0.40700  1.0000
  F   F4        1.0  0.62600  0.48300  0.40700  1.0000
  F   F5        1.0  0.00924  0.70700  0.45700  1.0000
  F   F6        1.0  0.44700  0.20700  0.45700  1.0000
  F   F7        1.0  0.55300  0.79300  0.54300  1.0000
  F   F8        1.0  0.99100  0.29300  0.54300  1.0000
  F   F9        1.0  0.37400  0.51700  0.59300  1.0000
  F   F10       1.0  0.21900  0.01700  0.59300  1.0000
  F   F11       1.0  0.89900  0.60700  0.69800  1.0000
  F   F12       1.0  0.79900  0.10700  0.69800  1.0000
  H   H1        1.0  0.51700  0.19700  0.16300  1.0000
  H   H2        1.0  0.64600  0.69700  0.16300  1.0000
  H   H3        1.0  0.61700  0.85200  0.26000  1.0000
  H   H4        1.0  0.64300  0.35200  0.26000  1.0000
  H   H5        1.0  0.35700  0.64800  0.74000  1.0000
  H   H6        1.0  0.38300  0.14800  0.74000  1.0000
  H   H7        1.0  0.48300  0.80300  0.83700  1.0000
  H   H8        1.0  0.35400  0.30300  0.83700  1.0000
  O   O1        1.0  0.79600  0.99100  0.10300  1.0000
  O   O2        1.0  0.30700  0.49100  0.10300  1.0000
  O   O3        1.0  0.90900  0.63100  0.12800  1.0000
  O   O4        1.0  0.21900  0.13100  0.12800  1.0000
  O   O5        1.0  0.53300  0.75400  0.20700  1.0000
  O   O6        1.0  0.67400  0.25400  0.20700  1.0000
  O   O7        1.0  0.32600  0.74600  0.79300  1.0000
  O   O8        1.0  0.46700  0.24600  0.79300  1.0000
  O   O9        1.0  0.78100  0.86900  0.87200  1.0000
  O   O10       1.0  0.09090  0.36900  0.87200  1.0000
  O   O11       1.0  0.69300  0.50900  0.89700  1.0000
  O   O12       1.0  0.20400  0.00876  0.89700  1.0000
  U   U1        1.0  0.29100  0.63500  0.34300  1.0000
  U   U2        1.0  0.05170  0.13500  0.34300  1.0000
  U   U3        1.0  0.70900  0.36500  0.65700  1.0000
  U   U4        1.0  0.94800  0.86500  0.65700  1.0000
