data_image0
_chemical_formula_structural       H8N8O24
_chemical_formula_sum              "H8 N8 O24"
_cell_length_a       7.02109
_cell_length_b       8.20522
_cell_length_c       7.0466
_cell_angle_alpha    90
_cell_angle_beta     116.657
_cell_angle_gamma    90

_space_group_name_H-M_alt    "P 1"
_space_group_IT_number       1

loop_
  _space_group_symop_operation_xyz
  'x, y, z'

loop_
  _atom_site_type_symbol
  _atom_site_label
  _atom_site_symmetry_multiplicity
  _atom_site_fract_x
  _atom_site_fract_y
  _atom_site_fract_z
  _atom_site_occupancy
  H   H1        1.0  0.71900  0.30400  0.22000  1.0000
  H   H2        1.0  0.26600  0.53800  0.24400  1.0000
  H   H3        1.0  0.23400  0.03760  0.25600  1.0000
  H   H4        1.0  0.78100  0.80400  0.28000  1.0000
  H   H5        1.0  0.21900  0.19600  0.72000  1.0000
  H   H6        1.0  0.76600  0.96200  0.74400  1.0000
  H   H7        1.0  0.73400  0.46200  0.75600  1.0000
  H   H8        1.0  0.28100  0.69600  0.78000  1.0000
  N   N1        1.0  0.73900  0.07350  0.22400  1.0000
  N   N2        1.0  0.22100  0.26800  0.23500  1.0000
  N   N3        1.0  0.27900  0.76800  0.26500  1.0000
  N   N4        1.0  0.76100  0.57300  0.27600  1.0000
  N   N5        1.0  0.23900  0.42700  0.72400  1.0000
  N   N6        1.0  0.72100  0.23200  0.73500  1.0000
  N   N7        1.0  0.77900  0.73200  0.76500  1.0000
  N   N8        1.0  0.26100  0.92700  0.77600  1.0000
  O   O1        1.0  0.70000  0.58000  0.08420  1.0000
  O   O2        1.0  0.68700  0.21100  0.11000  1.0000
  O   O3        1.0  0.72000  0.94700  0.11900  1.0000
  O   O4        1.0  0.10700  0.39200  0.19200  1.0000
  O   O5        1.0  0.08720  0.76600  0.20700  1.0000
  O   O6        1.0  0.11800  0.12700  0.21400  1.0000
  O   O7        1.0  0.38200  0.62700  0.28600  1.0000
  O   O8        1.0  0.41300  0.26600  0.29300  1.0000
  O   O9        1.0  0.39300  0.89200  0.30800  1.0000
  O   O10       1.0  0.78000  0.44700  0.38100  1.0000
  O   O11       1.0  0.81300  0.71100  0.39000  1.0000
  O   O12       1.0  0.80000  0.08040  0.41600  1.0000
  O   O13       1.0  0.20000  0.92000  0.58400  1.0000
  O   O14       1.0  0.18700  0.28900  0.61000  1.0000
  O   O15       1.0  0.22000  0.55300  0.61900  1.0000
  O   O16       1.0  0.60700  0.10800  0.69200  1.0000
  O   O17       1.0  0.58700  0.73400  0.70700  1.0000
  O   O18       1.0  0.61800  0.37300  0.71400  1.0000
  O   O19       1.0  0.88200  0.87300  0.78600  1.0000
  O   O20       1.0  0.91300  0.23400  0.79300  1.0000
  O   O21       1.0  0.89300  0.60800  0.80800  1.0000
  O   O22       1.0  0.28000  0.05270  0.88100  1.0000
  O   O23       1.0  0.31300  0.78900  0.89000  1.0000
  O   O24       1.0  0.30000  0.42000  0.91600  1.0000
