data_image0
_chemical_formula_structural       F28K4V4Zr4
_chemical_formula_sum              "F28 K4 V4 Zr4"
_cell_length_a       10.9305
_cell_length_b       7.5784
_cell_length_c       6.21959
_cell_angle_alpha    90
_cell_angle_beta     90
_cell_angle_gamma    90.0002

_space_group_name_H-M_alt    "P 1"
_space_group_IT_number       1

loop_
  _space_group_symop_operation_xyz
  'x, y, z'

loop_
  _atom_site_type_symbol
  _atom_site_label
  _atom_site_symmetry_multiplicity
  _atom_site_fract_x
  _atom_site_fract_y
  _atom_site_fract_z
  _atom_site_occupancy
  F   F1        1.0  0.95300  0.16600  0.06290  1.0000
  F   F2        1.0  0.54700  0.83400  0.06290  1.0000
  F   F3        1.0  0.24500  0.19200  0.06810  1.0000
  F   F4        1.0  0.25500  0.80800  0.06810  1.0000
  F   F5        1.0  0.10500  0.49900  0.12600  1.0000
  F   F6        1.0  0.39500  0.50100  0.12600  1.0000
  F   F7        1.0  0.58800  0.25000  0.25000  1.0000
  F   F8        1.0  0.91200  0.75000  0.25000  1.0000
  F   F9        1.0  0.10500  0.00057  0.37400  1.0000
  F   F10       1.0  0.39500  0.99900  0.37400  1.0000
  F   F11       1.0  0.24500  0.30800  0.43200  1.0000
  F   F12       1.0  0.25500  0.69200  0.43200  1.0000
  F   F13       1.0  0.95300  0.33400  0.43700  1.0000
  F   F14       1.0  0.54700  0.66600  0.43700  1.0000
  F   F15       1.0  0.45300  0.33400  0.56300  1.0000
  F   F16       1.0  0.04750  0.66600  0.56300  1.0000
  F   F17       1.0  0.74500  0.30800  0.56800  1.0000
  F   F18       1.0  0.75500  0.69200  0.56800  1.0000
  F   F19       1.0  0.60500  0.00057  0.62600  1.0000
  F   F20       1.0  0.89500  0.99900  0.62600  1.0000
  F   F21       1.0  0.08810  0.25000  0.75000  1.0000
  F   F22       1.0  0.41200  0.75000  0.75000  1.0000
  F   F23       1.0  0.60500  0.49900  0.87400  1.0000
  F   F24       1.0  0.89500  0.50100  0.87400  1.0000
  F   F25       1.0  0.74500  0.19200  0.93200  1.0000
  F   F26       1.0  0.75500  0.80800  0.93200  1.0000
  F   F27       1.0  0.45300  0.16600  0.93700  1.0000
  F   F28       1.0  0.04750  0.83400  0.93700  1.0000
  K   K1        1.0  0.75000  0.50000  0.22400  1.0000
  K   K2        1.0  0.75000  0.00000  0.27600  1.0000
  K   K3        1.0  0.25000  0.00000  0.72400  1.0000
  K   K4        1.0  0.25000  0.50000  0.77600  1.0000
  V   V1        1.0  0.09460  0.25000  0.25000  1.0000
  V   V2        1.0  0.40500  0.75000  0.25000  1.0000
  V   V3        1.0  0.59500  0.25000  0.75000  1.0000
  V   V4        1.0  0.90500  0.75000  0.75000  1.0000
  Zr  Zr1       1.0  0.40500  0.25000  0.25000  1.0000
  Zr  Zr2       1.0  0.09500  0.75000  0.25000  1.0000
  Zr  Zr3       1.0  0.90500  0.25000  0.75000  1.0000
  Zr  Zr4       1.0  0.59500  0.75000  0.75000  1.0000
