data_image0
_chemical_formula_structural       Cl28In4Y8
_chemical_formula_sum              "Cl28 In4 Y8"
_cell_length_a       12.7986
_cell_length_b       6.91532
_cell_length_c       12.6686
_cell_angle_alpha    90
_cell_angle_beta     90
_cell_angle_gamma    90

_space_group_name_H-M_alt    "P 1"
_space_group_IT_number       1

loop_
  _space_group_symop_operation_xyz
  'x, y, z'

loop_
  _atom_site_type_symbol
  _atom_site_label
  _atom_site_symmetry_multiplicity
  _atom_site_fract_x
  _atom_site_fract_y
  _atom_site_fract_z
  _atom_site_occupancy
  Cl  Cl1       1.0  0.87200  0.50900  0.04440  1.0000
  Cl  Cl2       1.0  0.87200  0.99100  0.04440  1.0000
  Cl  Cl3       1.0  0.61600  0.01040  0.08360  1.0000
  Cl  Cl4       1.0  0.61600  0.49000  0.08360  1.0000
  Cl  Cl5       1.0  0.10300  0.75000  0.18400  1.0000
  Cl  Cl6       1.0  0.32800  0.50400  0.18900  1.0000
  Cl  Cl7       1.0  0.32800  0.99600  0.18900  1.0000
  Cl  Cl8       1.0  0.82800  0.50400  0.31100  1.0000
  Cl  Cl9       1.0  0.82800  0.99600  0.31100  1.0000
  Cl  Cl10      1.0  0.60300  0.75000  0.31600  1.0000
  Cl  Cl11      1.0  0.11600  0.01040  0.41600  1.0000
  Cl  Cl12      1.0  0.11600  0.49000  0.41600  1.0000
  Cl  Cl13      1.0  0.37200  0.50900  0.45600  1.0000
  Cl  Cl14      1.0  0.37200  0.99100  0.45600  1.0000
  Cl  Cl15      1.0  0.62800  0.00897  0.54400  1.0000
  Cl  Cl16      1.0  0.62800  0.49100  0.54400  1.0000
  Cl  Cl17      1.0  0.88400  0.51000  0.58400  1.0000
  Cl  Cl18      1.0  0.88400  0.99000  0.58400  1.0000
  Cl  Cl19      1.0  0.39700  0.25000  0.68400  1.0000
  Cl  Cl20      1.0  0.17200  0.00434  0.68900  1.0000
  Cl  Cl21      1.0  0.17200  0.49600  0.68900  1.0000
  Cl  Cl22      1.0  0.67200  0.00434  0.81100  1.0000
  Cl  Cl23      1.0  0.67200  0.49600  0.81100  1.0000
  Cl  Cl24      1.0  0.89700  0.25000  0.81600  1.0000
  Cl  Cl25      1.0  0.38400  0.51000  0.91600  1.0000
  Cl  Cl26      1.0  0.38400  0.99000  0.91600  1.0000
  Cl  Cl27      1.0  0.12800  0.00897  0.95600  1.0000
  Cl  Cl28      1.0  0.12800  0.49100  0.95600  1.0000
  In  In1       1.0  0.04030  0.25000  0.19800  1.0000
  In  In2       1.0  0.54000  0.25000  0.30200  1.0000
  In  In3       1.0  0.46000  0.75000  0.69800  1.0000
  In  In4       1.0  0.96000  0.75000  0.80200  1.0000
  Y   Y1        1.0  0.26400  0.75000  0.03560  1.0000
  Y   Y2        1.0  0.75200  0.75000  0.16200  1.0000
  Y   Y3        1.0  0.25200  0.75000  0.33800  1.0000
  Y   Y4        1.0  0.76400  0.75000  0.46400  1.0000
  Y   Y5        1.0  0.23600  0.25000  0.53600  1.0000
  Y   Y6        1.0  0.74800  0.25000  0.66200  1.0000
  Y   Y7        1.0  0.24800  0.25000  0.83800  1.0000
  Y   Y8        1.0  0.73600  0.25000  0.96400  1.0000
