data_image0
_chemical_formula_structural       Ho4Pb6S24Sn6
_chemical_formula_sum              "Ho4 Pb6 S24 Sn6"
_cell_length_a       3.93024
_cell_length_b       20.3881
_cell_length_c       11.6081
_cell_angle_alpha    90
_cell_angle_beta     90
_cell_angle_gamma    90

_space_group_name_H-M_alt    "P 1"
_space_group_IT_number       1

loop_
  _space_group_symop_operation_xyz
  'x, y, z'

loop_
  _atom_site_type_symbol
  _atom_site_label
  _atom_site_symmetry_multiplicity
  _atom_site_fract_x
  _atom_site_fract_y
  _atom_site_fract_z
  _atom_site_occupancy
  Ho  Ho1       1.0  0.00000  0.89300  0.13000  1.0000
  Ho  Ho2       1.0  0.00000  0.58800  0.45200  1.0000
  Ho  Ho3       1.0  0.00000  0.10700  0.63000  1.0000
  Ho  Ho4       1.0  0.00000  0.41200  0.95200  1.0000
  Pb  Pb1       1.0  0.00000  0.08380  0.00735  1.0000
  Pb  Pb2       1.0  0.00000  0.62100  0.07820  1.0000
  Pb  Pb3       1.0  0.00000  0.26000  0.21000  1.0000
  Pb  Pb4       1.0  0.00000  0.91600  0.50700  1.0000
  Pb  Pb5       1.0  0.00000  0.37900  0.57800  1.0000
  Pb  Pb6       1.0  0.00000  0.74000  0.71000  1.0000
  S   S1        1.0  0.50000  0.96800  0.01870  1.0000
  S   S2        1.0  0.50000  0.36200  0.11000  1.0000
  S   S3        1.0  0.50000  0.15800  0.14200  1.0000
  S   S4        1.0  0.00000  0.75700  0.15500  1.0000
  S   S5        1.0  0.00000  0.01740  0.24000  1.0000
  S   S6        1.0  0.00000  0.49600  0.24700  1.0000
  S   S7        1.0  0.50000  0.62600  0.28900  1.0000
  S   S8        1.0  0.50000  0.87600  0.29500  1.0000
  S   S9        1.0  0.50000  0.32400  0.40600  1.0000
  S   S10       1.0  0.00000  0.15900  0.40700  1.0000
  S   S11       1.0  0.00000  0.73800  0.45200  1.0000
  S   S12       1.0  0.50000  0.49100  0.49100  1.0000
  S   S13       1.0  0.50000  0.03210  0.51900  1.0000
  S   S14       1.0  0.50000  0.63800  0.61000  1.0000
  S   S15       1.0  0.50000  0.84200  0.64200  1.0000
  S   S16       1.0  0.00000  0.24300  0.65500  1.0000
  S   S17       1.0  0.00000  0.98300  0.74000  1.0000
  S   S18       1.0  0.00000  0.50400  0.74700  1.0000
  S   S19       1.0  0.50000  0.37400  0.78900  1.0000
  S   S20       1.0  0.50000  0.12400  0.79500  1.0000
  S   S21       1.0  0.50000  0.67600  0.90600  1.0000
  S   S22       1.0  0.00000  0.84100  0.90700  1.0000
  S   S23       1.0  0.00000  0.26200  0.95200  1.0000
  S   S24       1.0  0.50000  0.50900  0.99100  1.0000
  Sn  Sn1       1.0  0.50000  0.42800  0.30000  1.0000
  Sn  Sn2       1.0  0.50000  0.75000  0.30700  1.0000
  Sn  Sn3       1.0  0.50000  0.08870  0.32300  1.0000
  Sn  Sn4       1.0  0.50000  0.57200  0.80000  1.0000
  Sn  Sn5       1.0  0.50000  0.25000  0.80700  1.0000
  Sn  Sn6       1.0  0.50000  0.91100  0.82300  1.0000
