data_image0
_chemical_formula_structural       Na4O24Si8Y4
_chemical_formula_sum              "Na4 O24 Si8 Y4"
_cell_length_a       5.38561
_cell_length_b       13.6597
_cell_length_c       7.54399
_cell_angle_alpha    90
_cell_angle_beta     109.76
_cell_angle_gamma    90

_space_group_name_H-M_alt    "P 1"
_space_group_IT_number       1

loop_
  _space_group_symop_operation_xyz
  'x, y, z'

loop_
  _atom_site_type_symbol
  _atom_site_label
  _atom_site_symmetry_multiplicity
  _atom_site_fract_x
  _atom_site_fract_y
  _atom_site_fract_z
  _atom_site_occupancy
  Na  Na1       1.0  0.13800  0.26200  0.04780  1.0000
  Na  Na2       1.0  0.86200  0.76200  0.45200  1.0000
  Na  Na3       1.0  0.13800  0.23800  0.54800  1.0000
  Na  Na4       1.0  0.86200  0.73800  0.95200  1.0000
  O   O1        1.0  0.22500  0.56200  0.01690  1.0000
  O   O2        1.0  0.31100  0.75000  0.07800  1.0000
  O   O3        1.0  0.20300  0.93900  0.08350  1.0000
  O   O4        1.0  0.60400  0.12100  0.15200  1.0000
  O   O5        1.0  0.74600  0.63900  0.17000  1.0000
  O   O6        1.0  0.72300  0.87300  0.20500  1.0000
  O   O7        1.0  0.27700  0.37300  0.29500  1.0000
  O   O8        1.0  0.25400  0.13900  0.33000  1.0000
  O   O9        1.0  0.39600  0.62100  0.34800  1.0000
  O   O10       1.0  0.79700  0.43900  0.41600  1.0000
  O   O11       1.0  0.68900  0.25000  0.42200  1.0000
  O   O12       1.0  0.77500  0.06150  0.48300  1.0000
  O   O13       1.0  0.22500  0.93800  0.51700  1.0000
  O   O14       1.0  0.31100  0.75000  0.57800  1.0000
  O   O15       1.0  0.20300  0.56100  0.58400  1.0000
  O   O16       1.0  0.60400  0.37900  0.65200  1.0000
  O   O17       1.0  0.74600  0.86100  0.67000  1.0000
  O   O18       1.0  0.72300  0.62700  0.70500  1.0000
  O   O19       1.0  0.27700  0.12700  0.79500  1.0000
  O   O20       1.0  0.25400  0.36100  0.83000  1.0000
  O   O21       1.0  0.39600  0.87900  0.84800  1.0000
  O   O22       1.0  0.79700  0.06100  0.91600  1.0000
  O   O23       1.0  0.68900  0.25000  0.92200  1.0000
  O   O24       1.0  0.77500  0.43800  0.98300  1.0000
  Si  Si1       1.0  0.42300  0.86200  0.07080  1.0000
  Si  Si2       1.0  0.43700  0.64000  0.14200  1.0000
  Si  Si3       1.0  0.56300  0.14000  0.35800  1.0000
  Si  Si4       1.0  0.57700  0.36200  0.42900  1.0000
  Si  Si5       1.0  0.42300  0.63800  0.57100  1.0000
  Si  Si6       1.0  0.43700  0.86000  0.64200  1.0000
  Si  Si7       1.0  0.56300  0.36000  0.85800  1.0000
  Si  Si8       1.0  0.57700  0.13800  0.92900  1.0000
  Y   Y1        1.0  0.97700  0.00738  0.24900  1.0000
  Y   Y2        1.0  0.02300  0.50700  0.25100  1.0000
  Y   Y3        1.0  0.97700  0.49300  0.74900  1.0000
  Y   Y4        1.0  0.02300  0.99300  0.75100  1.0000
