data_image0
_chemical_formula_structural       Cl2Cs16Ga22
_chemical_formula_sum              "Cl2 Cs16 Ga22"
_cell_length_a       10.0659
_cell_length_b       10.0659
_cell_length_c       17.8935
_cell_angle_alpha    90
_cell_angle_beta     106.336
_cell_angle_gamma    60

_space_group_name_H-M_alt    "P 1"
_space_group_IT_number       1

loop_
  _space_group_symop_operation_xyz
  'x, y, z'

loop_
  _atom_site_type_symbol
  _atom_site_label
  _atom_site_symmetry_multiplicity
  _atom_site_fract_x
  _atom_site_fract_y
  _atom_site_fract_z
  _atom_site_occupancy
  Cl  Cl1       1.0  0.00000  0.00000  0.00000  1.0000
  Cl  Cl2       1.0  0.00000  0.50000  0.50000  1.0000
  Cs  Cs1       1.0  0.97000  0.69000  0.06810  1.0000
  Cs  Cs2       1.0  0.75800  0.34000  0.06810  1.0000
  Cs  Cs3       1.0  0.40800  0.90100  0.06810  1.0000
  Cs  Cs4       1.0  0.14900  0.92500  0.22400  1.0000
  Cs  Cs5       1.0  0.85100  0.57500  0.27600  1.0000
  Cs  Cs6       1.0  0.59200  0.81000  0.43200  1.0000
  Cs  Cs7       1.0  0.24200  0.59900  0.43200  1.0000
  Cs  Cs8       1.0  0.03040  0.16000  0.43200  1.0000
  Cs  Cs9       1.0  0.97000  0.84000  0.56800  1.0000
  Cs  Cs10      1.0  0.75800  0.40100  0.56800  1.0000
  Cs  Cs11      1.0  0.40800  0.19000  0.56800  1.0000
  Cs  Cs12      1.0  0.14900  0.42500  0.72400  1.0000
  Cs  Cs13      1.0  0.85100  0.07450  0.77600  1.0000
  Cs  Cs14      1.0  0.59200  0.09850  0.93200  1.0000
  Cs  Cs15      1.0  0.24200  0.66000  0.93200  1.0000
  Cs  Cs16      1.0  0.03040  0.31000  0.93200  1.0000
  Ga  Ga1       1.0  0.41200  0.29400  0.11700  1.0000
  Ga  Ga2       1.0  0.69900  0.02510  0.16800  1.0000
  Ga  Ga3       1.0  0.44500  0.53000  0.16800  1.0000
  Ga  Ga4       1.0  0.19400  0.27600  0.16800  1.0000
  Ga  Ga5       1.0  0.69000  0.25000  0.25000  1.0000
  Ga  Ga6       1.0  0.50000  0.06050  0.25000  1.0000
  Ga  Ga7       1.0  0.31000  0.44000  0.25000  1.0000
  Ga  Ga8       1.0  0.80600  0.97000  0.33200  1.0000
  Ga  Ga9       1.0  0.55500  0.47500  0.33200  1.0000
  Ga  Ga10      1.0  0.30100  0.22400  0.33200  1.0000
  Ga  Ga11      1.0  0.58800  0.20600  0.38300  1.0000
  Ga  Ga12      1.0  0.41200  0.79400  0.61700  1.0000
  Ga  Ga13      1.0  0.69900  0.77600  0.66800  1.0000
  Ga  Ga14      1.0  0.44500  0.52500  0.66800  1.0000
  Ga  Ga15      1.0  0.19400  0.03020  0.66800  1.0000
  Ga  Ga16      1.0  0.69000  0.56000  0.75000  1.0000
  Ga  Ga17      1.0  0.50000  0.94000  0.75000  1.0000
  Ga  Ga18      1.0  0.31000  0.75000  0.75000  1.0000
  Ga  Ga19      1.0  0.80600  0.72400  0.83200  1.0000
  Ga  Ga20      1.0  0.55500  0.47000  0.83200  1.0000
  Ga  Ga21      1.0  0.30100  0.97500  0.83200  1.0000
  Ga  Ga22      1.0  0.58800  0.70600  0.88300  1.0000
