data_image0
_chemical_formula_structural       Fe8Sb24Sm8
_chemical_formula_sum              "Fe8 Sb24 Sm8"
_cell_length_a       12.6255
_cell_length_b       6.16001
_cell_length_c       12.0906
_cell_angle_alpha    90
_cell_angle_beta     90
_cell_angle_gamma    90

_space_group_name_H-M_alt    "P 1"
_space_group_IT_number       1

loop_
  _space_group_symop_operation_xyz
  'x, y, z'

loop_
  _atom_site_type_symbol
  _atom_site_label
  _atom_site_symmetry_multiplicity
  _atom_site_fract_x
  _atom_site_fract_y
  _atom_site_fract_z
  _atom_site_occupancy
  Fe  Fe1       1.0  0.10100  0.46400  0.13800  1.0000
  Fe  Fe2       1.0  0.89900  0.96400  0.13800  1.0000
  Fe  Fe3       1.0  0.10100  0.46400  0.36200  1.0000
  Fe  Fe4       1.0  0.89900  0.96400  0.36200  1.0000
  Fe  Fe5       1.0  0.10100  0.03640  0.63800  1.0000
  Fe  Fe6       1.0  0.89900  0.53600  0.63800  1.0000
  Fe  Fe7       1.0  0.10100  0.03640  0.86200  1.0000
  Fe  Fe8       1.0  0.89900  0.53600  0.86200  1.0000
  Sb  Sb1       1.0  0.22000  0.25000  0.00000  1.0000
  Sb  Sb2       1.0  0.97200  0.25000  0.00000  1.0000
  Sb  Sb3       1.0  0.02810  0.75000  0.00000  1.0000
  Sb  Sb4       1.0  0.78100  0.75000  0.00000  1.0000
  Sb  Sb5       1.0  0.49700  0.48600  0.12400  1.0000
  Sb  Sb6       1.0  0.50300  0.98600  0.12400  1.0000
  Sb  Sb7       1.0  0.05760  0.11500  0.25000  1.0000
  Sb  Sb8       1.0  0.78400  0.23400  0.25000  1.0000
  Sb  Sb9       1.0  0.94200  0.61500  0.25000  1.0000
  Sb  Sb10      1.0  0.21600  0.73400  0.25000  1.0000
  Sb  Sb11      1.0  0.49700  0.48600  0.37600  1.0000
  Sb  Sb12      1.0  0.50300  0.98600  0.37600  1.0000
  Sb  Sb13      1.0  0.22000  0.25000  0.50000  1.0000
  Sb  Sb14      1.0  0.97200  0.25000  0.50000  1.0000
  Sb  Sb15      1.0  0.02810  0.75000  0.50000  1.0000
  Sb  Sb16      1.0  0.78100  0.75000  0.50000  1.0000
  Sb  Sb17      1.0  0.49700  0.01410  0.62400  1.0000
  Sb  Sb18      1.0  0.50300  0.51400  0.62400  1.0000
  Sb  Sb19      1.0  0.78400  0.26600  0.75000  1.0000
  Sb  Sb20      1.0  0.05760  0.38500  0.75000  1.0000
  Sb  Sb21      1.0  0.21600  0.76600  0.75000  1.0000
  Sb  Sb22      1.0  0.94200  0.88500  0.75000  1.0000
  Sb  Sb23      1.0  0.49700  0.01410  0.87600  1.0000
  Sb  Sb24      1.0  0.50300  0.51400  0.87600  1.0000
  Sm  Sm1       1.0  0.70100  0.25000  0.00000  1.0000
  Sm  Sm2       1.0  0.29900  0.75000  0.00000  1.0000
  Sm  Sm3       1.0  0.30500  0.22200  0.25000  1.0000
  Sm  Sm4       1.0  0.69500  0.72200  0.25000  1.0000
  Sm  Sm5       1.0  0.70100  0.25000  0.50000  1.0000
  Sm  Sm6       1.0  0.29900  0.75000  0.50000  1.0000
  Sm  Sm7       1.0  0.30500  0.27800  0.75000  1.0000
  Sm  Sm8       1.0  0.69500  0.77800  0.75000  1.0000
