data_image0
_chemical_formula_structural       K8O24P4Sb4
_chemical_formula_sum              "K8 O24 P4 Sb4"
_cell_length_a       9.35628
_cell_length_b       5.90584
_cell_length_c       10.8717
_cell_angle_alpha    90
_cell_angle_beta     90
_cell_angle_gamma    90

_space_group_name_H-M_alt    "P 1"
_space_group_IT_number       1

loop_
  _space_group_symop_operation_xyz
  'x, y, z'

loop_
  _atom_site_type_symbol
  _atom_site_label
  _atom_site_symmetry_multiplicity
  _atom_site_fract_x
  _atom_site_fract_y
  _atom_site_fract_z
  _atom_site_occupancy
  K   K1        1.0  0.38200  0.75000  0.15900  1.0000
  K   K2        1.0  0.67600  0.25000  0.19600  1.0000
  K   K3        1.0  0.17600  0.25000  0.30400  1.0000
  K   K4        1.0  0.88200  0.75000  0.34100  1.0000
  K   K5        1.0  0.11800  0.25000  0.65900  1.0000
  K   K6        1.0  0.82400  0.75000  0.69600  1.0000
  K   K7        1.0  0.32400  0.75000  0.80400  1.0000
  K   K8        1.0  0.61800  0.25000  0.84100  1.0000
  O   O1        1.0  0.21400  0.03380  0.03010  1.0000
  O   O2        1.0  0.21400  0.46600  0.03010  1.0000
  O   O3        1.0  0.44000  0.25000  0.07030  1.0000
  O   O4        1.0  0.96400  0.25000  0.12100  1.0000
  O   O5        1.0  0.99900  0.75000  0.12100  1.0000
  O   O6        1.0  0.67000  0.75000  0.14800  1.0000
  O   O7        1.0  0.17000  0.75000  0.35200  1.0000
  O   O8        1.0  0.49900  0.75000  0.37900  1.0000
  O   O9        1.0  0.46400  0.25000  0.37900  1.0000
  O   O10       1.0  0.94000  0.25000  0.43000  1.0000
  O   O11       1.0  0.71400  0.03380  0.47000  1.0000
  O   O12       1.0  0.71400  0.46600  0.47000  1.0000
  O   O13       1.0  0.28600  0.53400  0.53000  1.0000
  O   O14       1.0  0.28600  0.96600  0.53000  1.0000
  O   O15       1.0  0.06020  0.75000  0.57000  1.0000
  O   O16       1.0  0.53600  0.75000  0.62100  1.0000
  O   O17       1.0  0.50100  0.25000  0.62100  1.0000
  O   O18       1.0  0.83000  0.25000  0.64800  1.0000
  O   O19       1.0  0.33000  0.25000  0.85200  1.0000
  O   O20       1.0  0.00143  0.25000  0.87900  1.0000
  O   O21       1.0  0.03620  0.75000  0.87900  1.0000
  O   O22       1.0  0.56000  0.75000  0.93000  1.0000
  O   O23       1.0  0.78600  0.53400  0.97000  1.0000
  O   O24       1.0  0.78600  0.96600  0.97000  1.0000
  P   P1        1.0  0.69200  0.75000  0.01030  1.0000
  P   P2        1.0  0.19200  0.75000  0.49000  1.0000
  P   P3        1.0  0.80800  0.25000  0.51000  1.0000
  P   P4        1.0  0.30800  0.25000  0.99000  1.0000
  Sb  Sb1       1.0  0.00000  0.00000  0.00000  1.0000
  Sb  Sb2       1.0  0.00000  0.50000  0.00000  1.0000
  Sb  Sb3       1.0  0.50000  0.00000  0.50000  1.0000
  Sb  Sb4       1.0  0.50000  0.50000  0.50000  1.0000
