data_image0
_chemical_formula_structural       Fe8Pr8Sb24
_chemical_formula_sum              "Fe8 Pr8 Sb24"
_cell_length_a       12.8761
_cell_length_b       6.19087
_cell_length_c       12.1555
_cell_angle_alpha    90
_cell_angle_beta     90
_cell_angle_gamma    90

_space_group_name_H-M_alt    "P 1"
_space_group_IT_number       1

loop_
  _space_group_symop_operation_xyz
  'x, y, z'

loop_
  _atom_site_type_symbol
  _atom_site_label
  _atom_site_symmetry_multiplicity
  _atom_site_fract_x
  _atom_site_fract_y
  _atom_site_fract_z
  _atom_site_occupancy
  Fe  Fe1       1.0  0.09840  0.46300  0.13800  1.0000
  Fe  Fe2       1.0  0.90200  0.96300  0.13800  1.0000
  Fe  Fe3       1.0  0.09840  0.46300  0.36200  1.0000
  Fe  Fe4       1.0  0.90200  0.96300  0.36200  1.0000
  Fe  Fe5       1.0  0.09840  0.03720  0.63800  1.0000
  Fe  Fe6       1.0  0.90200  0.53700  0.63800  1.0000
  Fe  Fe7       1.0  0.09840  0.03720  0.86200  1.0000
  Fe  Fe8       1.0  0.90200  0.53700  0.86200  1.0000
  Pr  Pr1       1.0  0.70100  0.25000  0.00000  1.0000
  Pr  Pr2       1.0  0.29900  0.75000  0.00000  1.0000
  Pr  Pr3       1.0  0.30400  0.22300  0.25000  1.0000
  Pr  Pr4       1.0  0.69600  0.72300  0.25000  1.0000
  Pr  Pr5       1.0  0.70100  0.25000  0.50000  1.0000
  Pr  Pr6       1.0  0.29900  0.75000  0.50000  1.0000
  Pr  Pr7       1.0  0.30400  0.27700  0.75000  1.0000
  Pr  Pr8       1.0  0.69600  0.77700  0.75000  1.0000
  Sb  Sb1       1.0  0.21400  0.25000  0.00000  1.0000
  Sb  Sb2       1.0  0.97200  0.25000  0.00000  1.0000
  Sb  Sb3       1.0  0.02820  0.75000  0.00000  1.0000
  Sb  Sb4       1.0  0.78600  0.75000  0.00000  1.0000
  Sb  Sb5       1.0  0.49700  0.48700  0.12400  1.0000
  Sb  Sb6       1.0  0.50300  0.98700  0.12400  1.0000
  Sb  Sb7       1.0  0.05680  0.11400  0.25000  1.0000
  Sb  Sb8       1.0  0.78900  0.23100  0.25000  1.0000
  Sb  Sb9       1.0  0.94300  0.61400  0.25000  1.0000
  Sb  Sb10      1.0  0.21100  0.73100  0.25000  1.0000
  Sb  Sb11      1.0  0.49700  0.48700  0.37600  1.0000
  Sb  Sb12      1.0  0.50300  0.98700  0.37600  1.0000
  Sb  Sb13      1.0  0.21400  0.25000  0.50000  1.0000
  Sb  Sb14      1.0  0.97200  0.25000  0.50000  1.0000
  Sb  Sb15      1.0  0.02820  0.75000  0.50000  1.0000
  Sb  Sb16      1.0  0.78600  0.75000  0.50000  1.0000
  Sb  Sb17      1.0  0.49700  0.01340  0.62400  1.0000
  Sb  Sb18      1.0  0.50300  0.51300  0.62400  1.0000
  Sb  Sb19      1.0  0.78900  0.26900  0.75000  1.0000
  Sb  Sb20      1.0  0.05680  0.38600  0.75000  1.0000
  Sb  Sb21      1.0  0.21100  0.76900  0.75000  1.0000
  Sb  Sb22      1.0  0.94300  0.88600  0.75000  1.0000
  Sb  Sb23      1.0  0.49700  0.01340  0.87600  1.0000
  Sb  Sb24      1.0  0.50300  0.51300  0.87600  1.0000
