data_image0
_chemical_formula_structural       Fe2Na4Ni4O24P6
_chemical_formula_sum              "Fe2 Na4 Ni4 O24 P6"
_cell_length_a       6.42065
_cell_length_b       8.44798
_cell_length_c       8.44798
_cell_angle_alpha    94.1409
_cell_angle_beta     105.838
_cell_angle_gamma    105.838

_space_group_name_H-M_alt    "P 1"
_space_group_IT_number       1

loop_
  _space_group_symop_operation_xyz
  'x, y, z'

loop_
  _atom_site_type_symbol
  _atom_site_label
  _atom_site_symmetry_multiplicity
  _atom_site_fract_x
  _atom_site_fract_y
  _atom_site_fract_z
  _atom_site_occupancy
  Fe  Fe1       1.0  0.25000  0.76800  0.23200  1.0000
  Fe  Fe2       1.0  0.75000  0.23200  0.76800  1.0000
  Na  Na1       1.0  0.00000  0.00000  0.00000  1.0000
  Na  Na2       1.0  0.50000  0.00000  0.00000  1.0000
  Na  Na3       1.0  0.75000  0.52300  0.47700  1.0000
  Na  Na4       1.0  0.25000  0.47700  0.52300  1.0000
  Ni  Ni1       1.0  0.37700  0.44700  0.12600  1.0000
  Ni  Ni2       1.0  0.87700  0.12600  0.44700  1.0000
  Ni  Ni3       1.0  0.12300  0.87400  0.55300  1.0000
  Ni  Ni4       1.0  0.62300  0.55300  0.87400  1.0000
  O   O1        1.0  0.73400  0.76900  0.01570  1.0000
  O   O2        1.0  0.83400  0.23400  0.01880  1.0000
  O   O3        1.0  0.68800  0.46200  0.10100  1.0000
  O   O4        1.0  0.11500  0.51400  0.17700  1.0000
  O   O5        1.0  0.76600  0.98400  0.23100  1.0000
  O   O6        1.0  0.33400  0.01880  0.23400  1.0000
  O   O7        1.0  0.53400  0.69200  0.24100  1.0000
  O   O8        1.0  0.96600  0.75900  0.30800  1.0000
  O   O9        1.0  0.89100  0.33300  0.33100  1.0000
  O   O10       1.0  0.39100  0.33100  0.33300  1.0000
  O   O11       1.0  0.18800  0.10100  0.46200  1.0000
  O   O12       1.0  0.38500  0.82300  0.48600  1.0000
  O   O13       1.0  0.61500  0.17700  0.51400  1.0000
  O   O14       1.0  0.81200  0.89900  0.53800  1.0000
  O   O15       1.0  0.60900  0.66900  0.66700  1.0000
  O   O16       1.0  0.10900  0.66700  0.66900  1.0000
  O   O17       1.0  0.03400  0.24100  0.69200  1.0000
  O   O18       1.0  0.46600  0.30800  0.75900  1.0000
  O   O19       1.0  0.66600  0.98100  0.76600  1.0000
  O   O20       1.0  0.23400  0.01570  0.76900  1.0000
  O   O21       1.0  0.88500  0.48600  0.82300  1.0000
  O   O22       1.0  0.31200  0.53800  0.89900  1.0000
  O   O23       1.0  0.16600  0.76600  0.98100  1.0000
  O   O24       1.0  0.26600  0.23100  0.98400  1.0000
  P   P1        1.0  0.87800  0.38200  0.15800  1.0000
  P   P2        1.0  0.75000  0.80100  0.19900  1.0000
  P   P3        1.0  0.37800  0.15800  0.38200  1.0000
  P   P4        1.0  0.62200  0.84200  0.61800  1.0000
  P   P5        1.0  0.25000  0.19900  0.80100  1.0000
  P   P6        1.0  0.12200  0.61800  0.84200  1.0000
