data_image0
_chemical_formula_structural       Br4F20O12Te4
_chemical_formula_sum              "Br4 F20 O12 Te4"
_cell_length_a       4.70464
_cell_length_b       5.32247
_cell_length_c       18.5125
_cell_angle_alpha    89.9975
_cell_angle_beta     91.5383
_cell_angle_gamma    89.9979

_space_group_name_H-M_alt    "P 1"
_space_group_IT_number       1

loop_
  _space_group_symop_operation_xyz
  'x, y, z'

loop_
  _atom_site_type_symbol
  _atom_site_label
  _atom_site_symmetry_multiplicity
  _atom_site_fract_x
  _atom_site_fract_y
  _atom_site_fract_z
  _atom_site_occupancy
  Br  Br1       1.0  0.25000  0.66400  0.23300  1.0000
  Br  Br2       1.0  0.75000  0.16400  0.26700  1.0000
  Br  Br3       1.0  0.25000  0.83600  0.73300  1.0000
  Br  Br4       1.0  0.75000  0.33600  0.76600  1.0000
  F   F1        1.0  0.10200  0.75000  0.00344  1.0000
  F   F2        1.0  0.41400  0.12000  0.05420  1.0000
  F   F3        1.0  0.59500  0.59700  0.06060  1.0000
  F   F4        1.0  0.90100  0.97900  0.11400  1.0000
  F   F5        1.0  0.08230  0.44700  0.11500  1.0000
  F   F6        1.0  0.91800  0.94600  0.38500  1.0000
  F   F7        1.0  0.09970  0.47800  0.38600  1.0000
  F   F8        1.0  0.40500  0.09680  0.43900  1.0000
  F   F9        1.0  0.58600  0.62000  0.44600  1.0000
  F   F10       1.0  0.89800  0.25000  0.49700  1.0000
  F   F11       1.0  0.10200  0.75000  0.50300  1.0000
  F   F12       1.0  0.41400  0.38000  0.55400  1.0000
  F   F13       1.0  0.59500  0.90300  0.56100  1.0000
  F   F14       1.0  0.90100  0.52100  0.61400  1.0000
  F   F15       1.0  0.08230  0.05340  0.61500  1.0000
  F   F16       1.0  0.91700  0.55400  0.88500  1.0000
  F   F17       1.0  0.09940  0.02200  0.88600  1.0000
  F   F18       1.0  0.40500  0.40300  0.93900  1.0000
  F   F19       1.0  0.58600  0.88000  0.94600  1.0000
  F   F20       1.0  0.89800  0.25000  0.99700  1.0000
  O   O1        1.0  0.38600  0.86100  0.17800  1.0000
  O   O2        1.0  0.59400  0.33800  0.17900  1.0000
  O   O3        1.0  0.91100  0.71700  0.24100  1.0000
  O   O4        1.0  0.08930  0.21700  0.25900  1.0000
  O   O5        1.0  0.40600  0.83800  0.32100  1.0000
  O   O6        1.0  0.61500  0.36100  0.32200  1.0000
  O   O7        1.0  0.38500  0.63900  0.67800  1.0000
  O   O8        1.0  0.59300  0.16200  0.67900  1.0000
  O   O9        1.0  0.91100  0.78300  0.74100  1.0000
  O   O10       1.0  0.08920  0.28300  0.75900  1.0000
  O   O11       1.0  0.40600  0.66200  0.82100  1.0000
  O   O12       1.0  0.61500  0.13900  0.82200  1.0000
  Te  Te1       1.0  0.74100  0.28500  0.08660  1.0000
  Te  Te2       1.0  0.25900  0.78400  0.41300  1.0000
  Te  Te3       1.0  0.74100  0.21500  0.58700  1.0000
  Te  Te4       1.0  0.25900  0.71600  0.91300  1.0000
