data_image0
_chemical_formula_structural       Al4Br4Cl16Sb8Te8
_chemical_formula_sum              "Al4 Br4 Cl16 Sb8 Te8"
_cell_length_a       8.40531
_cell_length_b       11.6093
_cell_length_c       13.5635
_cell_angle_alpha    98.4023
_cell_angle_beta     90
_cell_angle_gamma    111.224

_space_group_name_H-M_alt    "P 1"
_space_group_IT_number       1

loop_
  _space_group_symop_operation_xyz
  'x, y, z'

loop_
  _atom_site_type_symbol
  _atom_site_label
  _atom_site_symmetry_multiplicity
  _atom_site_fract_x
  _atom_site_fract_y
  _atom_site_fract_z
  _atom_site_occupancy
  Al  Al1       1.0  0.10500  0.46000  0.17100  1.0000
  Al  Al2       1.0  0.64500  0.54000  0.32900  1.0000
  Al  Al3       1.0  0.35500  0.46000  0.67100  1.0000
  Al  Al4       1.0  0.89500  0.54000  0.82900  1.0000
  Br  Br1       1.0  0.37500  0.00000  0.25000  1.0000
  Br  Br2       1.0  0.87500  0.00000  0.25000  1.0000
  Br  Br3       1.0  0.12500  0.00000  0.75000  1.0000
  Br  Br4       1.0  0.62500  0.00000  0.75000  1.0000
  Cl  Cl1       1.0  0.29100  0.41500  0.07780  1.0000
  Cl  Cl2       1.0  0.86200  0.40400  0.08590  1.0000
  Cl  Cl3       1.0  0.71200  0.65800  0.21500  1.0000
  Cl  Cl4       1.0  0.19900  0.65800  0.22000  1.0000
  Cl  Cl5       1.0  0.54000  0.34200  0.28000  1.0000
  Cl  Cl6       1.0  0.05460  0.34200  0.28500  1.0000
  Cl  Cl7       1.0  0.45900  0.59600  0.41400  1.0000
  Cl  Cl8       1.0  0.87600  0.58500  0.42200  1.0000
  Cl  Cl9       1.0  0.12400  0.41500  0.57800  1.0000
  Cl  Cl10      1.0  0.54100  0.40400  0.58600  1.0000
  Cl  Cl11      1.0  0.94500  0.65800  0.71500  1.0000
  Cl  Cl12      1.0  0.46000  0.65800  0.72000  1.0000
  Cl  Cl13      1.0  0.80100  0.34200  0.78000  1.0000
  Cl  Cl14      1.0  0.28800  0.34200  0.78500  1.0000
  Cl  Cl15      1.0  0.13800  0.59600  0.91400  1.0000
  Cl  Cl16      1.0  0.70900  0.58500  0.92200  1.0000
  Sb  Sb1       1.0  0.18600  0.12900  0.10900  1.0000
  Sb  Sb2       1.0  0.68700  0.11900  0.10900  1.0000
  Sb  Sb3       1.0  0.56900  0.88100  0.39100  1.0000
  Sb  Sb4       1.0  0.05740  0.87100  0.39100  1.0000
  Sb  Sb5       1.0  0.94300  0.12900  0.60900  1.0000
  Sb  Sb6       1.0  0.43100  0.11900  0.60900  1.0000
  Sb  Sb7       1.0  0.31300  0.88100  0.89100  1.0000
  Sb  Sb8       1.0  0.81400  0.87100  0.89100  1.0000
  Te  Te1       1.0  0.54800  0.84900  0.03610  1.0000
  Te  Te2       1.0  0.05660  0.86000  0.04140  1.0000
  Te  Te3       1.0  0.19700  0.14000  0.45900  1.0000
  Te  Te4       1.0  0.69900  0.15100  0.46400  1.0000
  Te  Te5       1.0  0.30100  0.84900  0.53600  1.0000
  Te  Te6       1.0  0.80300  0.86000  0.54100  1.0000
  Te  Te7       1.0  0.94300  0.14000  0.95900  1.0000
  Te  Te8       1.0  0.45200  0.15100  0.96400  1.0000
