data_image0
_chemical_formula_structural       F28Rb4Sb8
_chemical_formula_sum              "F28 Rb4 Sb8"
_cell_length_a       12.0164
_cell_length_b       6.41596
_cell_length_c       8.37108
_cell_angle_alpha    90
_cell_angle_beta     101.859
_cell_angle_gamma    90

_space_group_name_H-M_alt    "P 1"
_space_group_IT_number       1

loop_
  _space_group_symop_operation_xyz
  'x, y, z'

loop_
  _atom_site_type_symbol
  _atom_site_label
  _atom_site_symmetry_multiplicity
  _atom_site_fract_x
  _atom_site_fract_y
  _atom_site_fract_z
  _atom_site_occupancy
  F   F1        1.0  0.82900  0.80100  0.07460  1.0000
  F   F2        1.0  0.69500  0.47400  0.08360  1.0000
  F   F3        1.0  0.35400  0.90400  0.12600  1.0000
  F   F4        1.0  0.09330  0.44700  0.13600  1.0000
  F   F5        1.0  0.49900  0.59900  0.15600  1.0000
  F   F6        1.0  0.10200  0.03050  0.18100  1.0000
  F   F7        1.0  0.70900  0.08790  0.21500  1.0000
  F   F8        1.0  0.29100  0.58800  0.28500  1.0000
  F   F9        1.0  0.89800  0.53100  0.31900  1.0000
  F   F10       1.0  0.50100  0.09890  0.34400  1.0000
  F   F11       1.0  0.90700  0.94700  0.36400  1.0000
  F   F12       1.0  0.64600  0.40400  0.37400  1.0000
  F   F13       1.0  0.30500  0.97400  0.41600  1.0000
  F   F14       1.0  0.17100  0.30100  0.42500  1.0000
  F   F15       1.0  0.82900  0.69900  0.57500  1.0000
  F   F16       1.0  0.69500  0.02630  0.58400  1.0000
  F   F17       1.0  0.35400  0.59600  0.62600  1.0000
  F   F18       1.0  0.09330  0.05310  0.63600  1.0000
  F   F19       1.0  0.49900  0.90100  0.65600  1.0000
  F   F20       1.0  0.10200  0.46900  0.68100  1.0000
  F   F21       1.0  0.70900  0.41200  0.71500  1.0000
  F   F22       1.0  0.29100  0.91200  0.78500  1.0000
  F   F23       1.0  0.89800  0.96900  0.81900  1.0000
  F   F24       1.0  0.50100  0.40100  0.84400  1.0000
  F   F25       1.0  0.90700  0.55300  0.86400  1.0000
  F   F26       1.0  0.64600  0.09630  0.87400  1.0000
  F   F27       1.0  0.30500  0.52600  0.91600  1.0000
  F   F28       1.0  0.17100  0.19900  0.92500  1.0000
  Rb  Rb1       1.0  0.89100  0.23300  0.07590  1.0000
  Rb  Rb2       1.0  0.10900  0.73300  0.42400  1.0000
  Rb  Rb3       1.0  0.89100  0.26700  0.57600  1.0000
  Rb  Rb4       1.0  0.10900  0.76700  0.92400  1.0000
  Sb  Sb1       1.0  0.57500  0.29100  0.15300  1.0000
  Sb  Sb2       1.0  0.22200  0.25200  0.20800  1.0000
  Sb  Sb3       1.0  0.77800  0.75200  0.29200  1.0000
  Sb  Sb4       1.0  0.42500  0.79100  0.34700  1.0000
  Sb  Sb5       1.0  0.57500  0.20900  0.65300  1.0000
  Sb  Sb6       1.0  0.22200  0.24800  0.70800  1.0000
  Sb  Sb7       1.0  0.77800  0.74800  0.79200  1.0000
  Sb  Sb8       1.0  0.42500  0.70900  0.84700  1.0000
