data_image0
_chemical_formula_structural       Au2N10O28
_chemical_formula_sum              "Au2 N10 O28"
_cell_length_a       7.4349
_cell_length_b       7.7949
_cell_length_c       8.4894
_cell_angle_alpha    90
_cell_angle_beta     111.579
_cell_angle_gamma    90

_space_group_name_H-M_alt    "P 1"
_space_group_IT_number       1

loop_
  _space_group_symop_operation_xyz
  'x, y, z'

loop_
  _atom_site_type_symbol
  _atom_site_label
  _atom_site_symmetry_multiplicity
  _atom_site_fract_x
  _atom_site_fract_y
  _atom_site_fract_z
  _atom_site_occupancy
  Au  Au1       1.0  0.00000  0.00000  0.00000  1.0000
  Au  Au2       1.0  0.50000  0.50000  0.50000  1.0000
  N   N1        1.0  0.50000  0.50000  0.00000  1.0000
  N   N2        1.0  0.83100  0.24800  0.14800  1.0000
  N   N3        1.0  0.37800  0.07240  0.23800  1.0000
  N   N4        1.0  0.12200  0.57200  0.26200  1.0000
  N   N5        1.0  0.66900  0.74800  0.35200  1.0000
  N   N6        1.0  0.00000  0.00000  0.50000  1.0000
  N   N7        1.0  0.33100  0.25200  0.64800  1.0000
  N   N8        1.0  0.87800  0.42800  0.73800  1.0000
  N   N9        1.0  0.62200  0.92800  0.76200  1.0000
  N   N10       1.0  0.16900  0.75200  0.85200  1.0000
  O   O1        1.0  0.25900  0.73100  0.00545  1.0000
  O   O2        1.0  0.39600  0.39800  0.01330  1.0000
  O   O3        1.0  0.26100  0.11600  0.07870  1.0000
  O   O4        1.0  0.16800  0.45300  0.19100  1.0000
  O   O5        1.0  0.95200  0.11200  0.19700  1.0000
  O   O6        1.0  0.97500  0.66100  0.20600  1.0000
  O   O7        1.0  0.67900  0.83800  0.23700  1.0000
  O   O8        1.0  0.82100  0.33800  0.26300  1.0000
  O   O9        1.0  0.52500  0.16100  0.29400  1.0000
  O   O10       1.0  0.54800  0.61200  0.30300  1.0000
  O   O11       1.0  0.33200  0.95300  0.30900  1.0000
  O   O12       1.0  0.23900  0.61600  0.42100  1.0000
  O   O13       1.0  0.10400  0.89800  0.48700  1.0000
  O   O14       1.0  0.24100  0.23100  0.49500  1.0000
  O   O15       1.0  0.75900  0.76900  0.50500  1.0000
  O   O16       1.0  0.89600  0.10200  0.51300  1.0000
  O   O17       1.0  0.76100  0.38400  0.57900  1.0000
  O   O18       1.0  0.66800  0.04750  0.69100  1.0000
  O   O19       1.0  0.45200  0.38800  0.69700  1.0000
  O   O20       1.0  0.47500  0.83900  0.70600  1.0000
  O   O21       1.0  0.17900  0.66200  0.73700  1.0000
  O   O22       1.0  0.32100  0.16200  0.76300  1.0000
  O   O23       1.0  0.02540  0.33900  0.79400  1.0000
  O   O24       1.0  0.04770  0.88800  0.80300  1.0000
  O   O25       1.0  0.83200  0.54700  0.80900  1.0000
  O   O26       1.0  0.73900  0.88400  0.92100  1.0000
  O   O27       1.0  0.60400  0.60200  0.98700  1.0000
  O   O28       1.0  0.74100  0.26900  0.99500  1.0000
