data_image0
_chemical_formula_structural       Al6Bi10Cl24
_chemical_formula_sum              "Al6 Bi10 Cl24"
_cell_length_a       11.9064
_cell_length_b       11.9064
_cell_length_c       12.2162
_cell_angle_alpha    60.8352
_cell_angle_beta     119.165
_cell_angle_gamma    120

_space_group_name_H-M_alt    "P 1"
_space_group_IT_number       1

loop_
  _space_group_symop_operation_xyz
  'x, y, z'

loop_
  _atom_site_type_symbol
  _atom_site_label
  _atom_site_symmetry_multiplicity
  _atom_site_fract_x
  _atom_site_fract_y
  _atom_site_fract_z
  _atom_site_occupancy
  Al  Al1       1.0  0.27300  0.25000  0.25000  1.0000
  Al  Al2       1.0  0.22700  0.72700  0.25000  1.0000
  Al  Al3       1.0  0.75000  0.77300  0.25000  1.0000
  Al  Al4       1.0  0.25000  0.22700  0.75000  1.0000
  Al  Al5       1.0  0.77300  0.27300  0.75000  1.0000
  Al  Al6       1.0  0.72700  0.75000  0.75000  1.0000
  Bi  Bi1       1.0  0.67100  0.32900  0.01230  1.0000
  Bi  Bi2       1.0  0.59100  0.09100  0.25000  1.0000
  Bi  Bi3       1.0  0.90900  0.25000  0.25000  1.0000
  Bi  Bi4       1.0  0.75000  0.40900  0.25000  1.0000
  Bi  Bi5       1.0  0.82900  0.17100  0.48800  1.0000
  Bi  Bi6       1.0  0.17100  0.82900  0.51200  1.0000
  Bi  Bi7       1.0  0.25000  0.59100  0.75000  1.0000
  Bi  Bi8       1.0  0.09100  0.75000  0.75000  1.0000
  Bi  Bi9       1.0  0.40900  0.90900  0.75000  1.0000
  Bi  Bi10      1.0  0.32900  0.67100  0.98800  1.0000
  Cl  Cl1       1.0  0.10800  0.30300  0.07600  1.0000
  Cl  Cl2       1.0  0.69700  0.72900  0.07600  1.0000
  Cl  Cl3       1.0  0.27100  0.89200  0.07600  1.0000
  Cl  Cl4       1.0  0.45800  0.42500  0.22700  1.0000
  Cl  Cl5       1.0  0.19500  0.54200  0.22700  1.0000
  Cl  Cl6       1.0  0.57500  0.80500  0.22700  1.0000
  Cl  Cl7       1.0  0.30500  0.07500  0.27300  1.0000
  Cl  Cl8       1.0  0.04230  0.69500  0.27300  1.0000
  Cl  Cl9       1.0  0.92500  0.95800  0.27300  1.0000
  Cl  Cl10      1.0  0.22900  0.19700  0.42400  1.0000
  Cl  Cl11      1.0  0.80300  0.60800  0.42400  1.0000
  Cl  Cl12      1.0  0.39200  0.77100  0.42400  1.0000
  Cl  Cl13      1.0  0.60800  0.22900  0.57600  1.0000
  Cl  Cl14      1.0  0.19700  0.39200  0.57600  1.0000
  Cl  Cl15      1.0  0.77100  0.80300  0.57600  1.0000
  Cl  Cl16      1.0  0.07500  0.04230  0.72700  1.0000
  Cl  Cl17      1.0  0.95800  0.30500  0.72700  1.0000
  Cl  Cl18      1.0  0.69500  0.92500  0.72700  1.0000
  Cl  Cl19      1.0  0.42500  0.19500  0.77300  1.0000
  Cl  Cl20      1.0  0.80500  0.45800  0.77300  1.0000
  Cl  Cl21      1.0  0.54200  0.57500  0.77300  1.0000
  Cl  Cl22      1.0  0.72900  0.10800  0.92400  1.0000
  Cl  Cl23      1.0  0.30300  0.27100  0.92400  1.0000
  Cl  Cl24      1.0  0.89200  0.69700  0.92400  1.0000
