data_image0
_chemical_formula_structural       Cu4FeMnSn2
_chemical_formula_sum              "Cu4 Fe1 Mn1 Sn2"
_cell_length_a       4.36507
_cell_length_b       4.36507
_cell_length_c       6.10356
_cell_angle_alpha    90
_cell_angle_beta     90
_cell_angle_gamma    90

_space_group_name_H-M_alt    "P 1"
_space_group_IT_number       1

loop_
  _space_group_symop_operation_xyz
  'x, y, z'

loop_
  _atom_site_type_symbol
  _atom_site_label
  _atom_site_symmetry_multiplicity
  _atom_site_fract_x
  _atom_site_fract_y
  _atom_site_fract_z
  _atom_site_occupancy
  Cu  Cu1       1.0  0.50000  0.00000  0.24700  1.0000
  Cu  Cu2       1.0  0.00000  0.50000  0.24700  1.0000
  Cu  Cu3       1.0  0.50000  0.00000  0.75300  1.0000
  Cu  Cu4       1.0  0.00000  0.50000  0.75300  1.0000
  Fe  Fe1       1.0  0.50000  0.50000  0.00000  1.0000
  Mn  Mn1       1.0  0.00000  0.00000  0.50000  1.0000
  Sn  Sn1       1.0  0.00000  0.00000  0.00000  1.0000
  Sn  Sn2       1.0  0.50000  0.50000  0.50000  1.0000
