data_image0
_chemical_formula_structural       IKO3
_chemical_formula_sum              "I1 K1 O3"
_cell_length_a       4.38593
_cell_length_b       4.38593
_cell_length_c       4.38593
_cell_angle_alpha    90.782
_cell_angle_beta     89.218
_cell_angle_gamma    90.782

_space_group_name_H-M_alt    "P 1"
_space_group_IT_number       1

loop_
  _space_group_symop_operation_xyz
  'x, y, z'

loop_
  _atom_site_type_symbol
  _atom_site_label
  _atom_site_symmetry_multiplicity
  _atom_site_fract_x
  _atom_site_fract_y
  _atom_site_fract_z
  _atom_site_occupancy
  I   I1        1.0  0.51000  0.49000  0.51000  1.0000
  K   K1        1.0  0.00946  0.99100  0.00945  1.0000
  O   O1        1.0  0.54600  0.45400  0.09260  1.0000
  O   O2        1.0  0.09260  0.45400  0.54600  1.0000
  O   O3        1.0  0.54600  0.90700  0.54600  1.0000
