data_image0
_chemical_formula_structural       Ag6In4O24P6
_chemical_formula_sum              "Ag6 In4 O24 P6"
_cell_length_a       6.60517
_cell_length_b       9.00756
_cell_length_c       9.00756
_cell_angle_alpha    90.9811
_cell_angle_beta     106.234
_cell_angle_gamma    106.234

_space_group_name_H-M_alt    "P 1"
_space_group_IT_number       1

loop_
  _space_group_symop_operation_xyz
  'x, y, z'

loop_
  _atom_site_type_symbol
  _atom_site_label
  _atom_site_symmetry_multiplicity
  _atom_site_fract_x
  _atom_site_fract_y
  _atom_site_fract_z
  _atom_site_occupancy
  Ag  Ag1       1.0  0.25000  0.99800  0.00215  1.0000
  Ag  Ag2       1.0  0.25000  0.71600  0.28400  1.0000
  Ag  Ag3       1.0  0.50000  0.50000  0.50000  1.0000
  Ag  Ag4       1.0  0.00000  0.50000  0.50000  1.0000
  Ag  Ag5       1.0  0.75000  0.28400  0.71600  1.0000
  Ag  Ag6       1.0  0.75000  0.00215  0.99800  1.0000
  In  In1       1.0  0.65600  0.38300  0.07280  1.0000
  In  In2       1.0  0.15600  0.07280  0.38300  1.0000
  In  In3       1.0  0.84400  0.92700  0.61700  1.0000
  In  In4       1.0  0.34400  0.61700  0.92700  1.0000
  O   O1        1.0  0.92300  0.33700  0.01050  1.0000
  O   O2        1.0  0.33500  0.41400  0.07160  1.0000
  O   O3        1.0  0.54300  0.75100  0.14600  1.0000
  O   O4        1.0  0.13500  0.16800  0.16400  1.0000
  O   O5        1.0  0.63500  0.16400  0.16800  1.0000
  O   O6        1.0  0.95700  0.85400  0.24900  1.0000
  O   O7        1.0  0.78300  0.56800  0.25200  1.0000
  O   O8        1.0  0.16100  0.42900  0.29000  1.0000
  O   O9        1.0  0.42300  0.01050  0.33700  1.0000
  O   O10       1.0  0.83500  0.07160  0.41400  1.0000
  O   O11       1.0  0.66100  0.29000  0.42900  1.0000
  O   O12       1.0  0.71700  0.74800  0.43200  1.0000
  O   O13       1.0  0.28300  0.25200  0.56800  1.0000
  O   O14       1.0  0.33900  0.71000  0.57100  1.0000
  O   O15       1.0  0.16500  0.92800  0.58600  1.0000
  O   O16       1.0  0.57700  0.99000  0.66300  1.0000
  O   O17       1.0  0.83900  0.57100  0.71000  1.0000
  O   O18       1.0  0.21700  0.43200  0.74800  1.0000
  O   O19       1.0  0.04330  0.14600  0.75100  1.0000
  O   O20       1.0  0.36500  0.83600  0.83200  1.0000
  O   O21       1.0  0.86500  0.83200  0.83600  1.0000
  O   O22       1.0  0.45700  0.24900  0.85400  1.0000
  O   O23       1.0  0.66500  0.58600  0.92800  1.0000
  O   O24       1.0  0.07730  0.66300  0.99000  1.0000
  P   P1        1.0  0.13800  0.34100  0.13800  1.0000
  P   P2        1.0  0.75000  0.73200  0.26800  1.0000
  P   P3        1.0  0.63800  0.13800  0.34100  1.0000
  P   P4        1.0  0.36200  0.86200  0.65900  1.0000
  P   P5        1.0  0.25000  0.26800  0.73200  1.0000
  P   P6        1.0  0.86200  0.65900  0.86200  1.0000
