data_image0
_chemical_formula_structural       Cu4MnSn2V
_chemical_formula_sum              "Cu4 Mn1 Sn2 V1"
_cell_length_a       4.35121
_cell_length_b       4.35121
_cell_length_c       6.26131
_cell_angle_alpha    90
_cell_angle_beta     90
_cell_angle_gamma    90

_space_group_name_H-M_alt    "P 1"
_space_group_IT_number       1

loop_
  _space_group_symop_operation_xyz
  'x, y, z'

loop_
  _atom_site_type_symbol
  _atom_site_label
  _atom_site_symmetry_multiplicity
  _atom_site_fract_x
  _atom_site_fract_y
  _atom_site_fract_z
  _atom_site_occupancy
  Cu  Cu1       1.0  0.50000  0.00000  0.24500  1.0000
  Cu  Cu2       1.0  0.00000  0.50000  0.24500  1.0000
  Cu  Cu3       1.0  0.50000  0.00000  0.75500  1.0000
  Cu  Cu4       1.0  0.00000  0.50000  0.75500  1.0000
  Mn  Mn1       1.0  0.50000  0.50000  0.00000  1.0000
  Sn  Sn1       1.0  0.00000  0.00000  0.00000  1.0000
  Sn  Sn2       1.0  0.50000  0.50000  0.50000  1.0000
  V   V1        1.0  0.00000  0.00000  0.50000  1.0000
