data_image0
_chemical_formula_structural       Bi4K6O24V6
_chemical_formula_sum              "Bi4 K6 O24 V6"
_cell_length_a       7.07591
_cell_length_b       9.7451
_cell_length_c       9.7451
_cell_angle_alpha    90.4048
_cell_angle_beta     105.907
_cell_angle_gamma    74.0931

_space_group_name_H-M_alt    "P 1"
_space_group_IT_number       1

loop_
  _space_group_symop_operation_xyz
  'x, y, z'

loop_
  _atom_site_type_symbol
  _atom_site_label
  _atom_site_symmetry_multiplicity
  _atom_site_fract_x
  _atom_site_fract_y
  _atom_site_fract_z
  _atom_site_occupancy
  Bi  Bi1       1.0  0.65400  0.62000  0.09630  1.0000
  Bi  Bi2       1.0  0.15400  0.90400  0.38000  1.0000
  Bi  Bi3       1.0  0.84600  0.09630  0.62000  1.0000
  Bi  Bi4       1.0  0.34600  0.38000  0.90400  1.0000
  K   K1        1.0  0.25000  0.02180  0.02180  1.0000
  K   K2        1.0  0.25000  0.27500  0.27500  1.0000
  K   K3        1.0  0.50000  0.50000  0.50000  1.0000
  K   K4        1.0  0.00000  0.50000  0.50000  1.0000
  K   K5        1.0  0.75000  0.72500  0.72500  1.0000
  K   K6        1.0  0.75000  0.97800  0.97800  1.0000
  O   O1        1.0  0.90200  0.65800  0.00777  1.0000
  O   O2        1.0  0.35400  0.53700  0.07940  1.0000
  O   O3        1.0  0.54500  0.23300  0.09410  1.0000
  O   O4        1.0  0.16500  0.81600  0.14400  1.0000
  O   O5        1.0  0.66500  0.85600  0.18400  1.0000
  O   O6        1.0  0.95500  0.09410  0.23300  1.0000
  O   O7        1.0  0.83100  0.39200  0.23900  1.0000
  O   O8        1.0  0.14000  0.58700  0.29500  1.0000
  O   O9        1.0  0.40200  0.99200  0.34200  1.0000
  O   O10       1.0  0.66900  0.23900  0.39200  1.0000
  O   O11       1.0  0.64000  0.70500  0.41300  1.0000
  O   O12       1.0  0.85400  0.92100  0.46300  1.0000
  O   O13       1.0  0.14600  0.07940  0.53700  1.0000
  O   O14       1.0  0.36000  0.29500  0.58700  1.0000
  O   O15       1.0  0.33100  0.76100  0.60800  1.0000
  O   O16       1.0  0.59800  0.00777  0.65800  1.0000
  O   O17       1.0  0.86000  0.41300  0.70500  1.0000
  O   O18       1.0  0.16900  0.60800  0.76100  1.0000
  O   O19       1.0  0.04490  0.90600  0.76700  1.0000
  O   O20       1.0  0.33500  0.14400  0.81600  1.0000
  O   O21       1.0  0.83500  0.18400  0.85600  1.0000
  O   O22       1.0  0.45500  0.76700  0.90600  1.0000
  O   O23       1.0  0.64600  0.46300  0.92100  1.0000
  O   O24       1.0  0.09760  0.34200  0.99200  1.0000
  V   V1        1.0  0.14000  0.64600  0.13000  1.0000
  V   V2        1.0  0.75000  0.24100  0.24100  1.0000
  V   V3        1.0  0.64000  0.87000  0.35400  1.0000
  V   V4        1.0  0.36000  0.13000  0.64600  1.0000
  V   V5        1.0  0.25000  0.75900  0.75900  1.0000
  V   V6        1.0  0.86000  0.35400  0.87000  1.0000
