data_image0
_chemical_formula_structural       Ag10As6Cu2O22
_chemical_formula_sum              "Ag10 As6 Cu2 O22"
_cell_length_a       5.87155
_cell_length_b       9.00149
_cell_length_c       10.3818
_cell_angle_alpha    97.302
_cell_angle_beta     90.7277
_cell_angle_gamma    92.4478

_space_group_name_H-M_alt    "P 1"
_space_group_IT_number       1

loop_
  _space_group_symop_operation_xyz
  'x, y, z'

loop_
  _atom_site_type_symbol
  _atom_site_label
  _atom_site_symmetry_multiplicity
  _atom_site_fract_x
  _atom_site_fract_y
  _atom_site_fract_z
  _atom_site_occupancy
  Ag  Ag1       1.0  0.25700  0.35400  0.13100  1.0000
  Ag  Ag2       1.0  0.74700  0.67800  0.16700  1.0000
  Ag  Ag3       1.0  0.55000  0.01180  0.17000  1.0000
  Ag  Ag4       1.0  0.71000  0.33500  0.31000  1.0000
  Ag  Ag5       1.0  0.20800  0.67900  0.34500  1.0000
  Ag  Ag6       1.0  0.79200  0.32100  0.65500  1.0000
  Ag  Ag7       1.0  0.29000  0.66500  0.69000  1.0000
  Ag  Ag8       1.0  0.45000  0.98800  0.83000  1.0000
  Ag  Ag9       1.0  0.25300  0.32200  0.83300  1.0000
  Ag  Ag10      1.0  0.74300  0.64600  0.86900  1.0000
  As  As1       1.0  0.25500  0.70400  0.01270  1.0000
  As  As2       1.0  0.04260  0.03190  0.30700  1.0000
  As  As3       1.0  0.27200  0.32100  0.47700  1.0000
  As  As4       1.0  0.72800  0.67900  0.52300  1.0000
  As  As5       1.0  0.95700  0.96800  0.69300  1.0000
  As  As6       1.0  0.74500  0.29600  0.98700  1.0000
  Cu  Cu1       1.0  0.00000  0.00000  0.00000  1.0000
  Cu  Cu2       1.0  0.50000  0.00000  0.50000  1.0000
  O   O1        1.0  0.52300  0.17700  0.02370  1.0000
  O   O2        1.0  0.03190  0.81300  0.07550  1.0000
  O   O3        1.0  0.84500  0.41400  0.12100  1.0000
  O   O4        1.0  0.35400  0.60800  0.13400  1.0000
  O   O5        1.0  0.07500  0.11300  0.16600  1.0000
  O   O6        1.0  0.78900  0.94100  0.32600  1.0000
  O   O7        1.0  0.28200  0.94100  0.34500  1.0000
  O   O8        1.0  0.31800  0.43700  0.36200  1.0000
  O   O9        1.0  0.82100  0.59600  0.37800  1.0000
  O   O10       1.0  0.02790  0.19700  0.42500  1.0000
  O   O11       1.0  0.51000  0.21400  0.47900  1.0000
  O   O12       1.0  0.49000  0.78600  0.52100  1.0000
  O   O13       1.0  0.97200  0.80300  0.57500  1.0000
  O   O14       1.0  0.17900  0.40400  0.62200  1.0000
  O   O15       1.0  0.68200  0.56300  0.63800  1.0000
  O   O16       1.0  0.71800  0.05870  0.65500  1.0000
  O   O17       1.0  0.21100  0.05950  0.67400  1.0000
  O   O18       1.0  0.92500  0.88700  0.83400  1.0000
  O   O19       1.0  0.64600  0.39200  0.86600  1.0000
  O   O20       1.0  0.15500  0.58600  0.87900  1.0000
  O   O21       1.0  0.96800  0.18700  0.92400  1.0000
  O   O22       1.0  0.47700  0.82300  0.97600  1.0000
