data_image0
_chemical_formula_structural       Ni8O24P6Tl2
_chemical_formula_sum              "Ni8 O24 P6 Tl2"
_cell_length_a       6.31629
_cell_length_b       8.36879
_cell_length_c       9.71841
_cell_angle_alpha    90
_cell_angle_beta     90
_cell_angle_gamma    67.829

_space_group_name_H-M_alt    "P 1"
_space_group_IT_number       1

loop_
  _space_group_symop_operation_xyz
  'x, y, z'

loop_
  _atom_site_type_symbol
  _atom_site_label
  _atom_site_symmetry_multiplicity
  _atom_site_fract_x
  _atom_site_fract_y
  _atom_site_fract_z
  _atom_site_occupancy
  Ni  Ni1       1.0  0.54300  0.41200  0.00154  1.0000
  Ni  Ni2       1.0  0.04590  0.41200  0.00154  1.0000
  Ni  Ni3       1.0  0.62700  0.74700  0.19900  1.0000
  Ni  Ni4       1.0  0.39300  0.21400  0.23600  1.0000
  Ni  Ni5       1.0  0.95400  0.58800  0.50200  1.0000
  Ni  Ni6       1.0  0.45700  0.58800  0.50200  1.0000
  Ni  Ni7       1.0  0.37300  0.25300  0.69900  1.0000
  Ni  Ni8       1.0  0.60700  0.78600  0.73600  1.0000
  O   O1        1.0  0.56500  0.86900  0.02500  1.0000
  O   O2        1.0  0.61000  0.16100  0.04210  1.0000
  O   O3        1.0  0.22900  0.16100  0.04210  1.0000
  O   O4        1.0  0.77700  0.44700  0.12800  1.0000
  O   O5        1.0  0.27400  0.45300  0.13900  1.0000
  O   O6        1.0  0.93900  0.73100  0.17500  1.0000
  O   O7        1.0  0.33100  0.73100  0.17500  1.0000
  O   O8        1.0  0.52100  0.95700  0.31900  1.0000
  O   O9        1.0  0.64700  0.29500  0.32100  1.0000
  O   O10       1.0  0.05800  0.29500  0.32100  1.0000
  O   O11       1.0  0.71600  0.56800  0.36600  1.0000
  O   O12       1.0  0.20200  0.59600  0.37600  1.0000
  O   O13       1.0  0.43500  0.13100  0.52500  1.0000
  O   O14       1.0  0.77100  0.83900  0.54200  1.0000
  O   O15       1.0  0.39000  0.83900  0.54200  1.0000
  O   O16       1.0  0.22300  0.55300  0.62800  1.0000
  O   O17       1.0  0.72600  0.54700  0.63900  1.0000
  O   O18       1.0  0.66900  0.26900  0.67500  1.0000
  O   O19       1.0  0.06130  0.26900  0.67500  1.0000
  O   O20       1.0  0.47900  0.04260  0.81900  1.0000
  O   O21       1.0  0.94200  0.70500  0.82100  1.0000
  O   O22       1.0  0.35300  0.70500  0.82100  1.0000
  O   O23       1.0  0.28400  0.43200  0.86600  1.0000
  O   O24       1.0  0.79800  0.40400  0.87600  1.0000
  P   P1        1.0  0.18300  0.63400  0.21900  1.0000
  P   P2        1.0  0.80600  0.38700  0.28400  1.0000
  P   P3        1.0  0.52800  0.94500  0.48000  1.0000
  P   P4        1.0  0.81700  0.36600  0.71900  1.0000
  P   P5        1.0  0.19400  0.61300  0.78400  1.0000
  P   P6        1.0  0.47200  0.05510  0.98000  1.0000
  Tl  Tl1       1.0  0.97500  0.05010  0.47900  1.0000
  Tl  Tl2       1.0  0.02500  0.95000  0.97900  1.0000
