data_image0
_chemical_formula_structural       Ba2Cu2O12Se4
_chemical_formula_sum              "Ba2 Cu2 O12 Se4"
_cell_length_a       4.73354
_cell_length_b       4.73354
_cell_length_c       15.7472
_cell_angle_alpha    91.2646
_cell_angle_beta     91.2646
_cell_angle_gamma    66.6417

_space_group_name_H-M_alt    "P 1"
_space_group_IT_number       1

loop_
  _space_group_symop_operation_xyz
  'x, y, z'

loop_
  _atom_site_type_symbol
  _atom_site_label
  _atom_site_symmetry_multiplicity
  _atom_site_fract_x
  _atom_site_fract_y
  _atom_site_fract_z
  _atom_site_occupancy
  Ba  Ba1       1.0  0.97900  0.02100  0.25000  1.0000
  Ba  Ba2       1.0  0.02100  0.97900  0.75000  1.0000
  Cu  Cu1       1.0  0.00000  0.00000  0.00000  1.0000
  Cu  Cu2       1.0  0.00000  0.00000  0.50000  1.0000
  O   O1        1.0  0.75300  0.31200  0.08180  1.0000
  O   O2        1.0  0.19700  0.75800  0.09590  1.0000
  O   O3        1.0  0.36000  0.28400  0.19600  1.0000
  O   O4        1.0  0.71600  0.64000  0.30400  1.0000
  O   O5        1.0  0.24200  0.80300  0.40400  1.0000
  O   O6        1.0  0.68800  0.24700  0.41800  1.0000
  O   O7        1.0  0.31200  0.75300  0.58200  1.0000
  O   O8        1.0  0.75800  0.19700  0.59600  1.0000
  O   O9        1.0  0.28400  0.36000  0.69600  1.0000
  O   O10       1.0  0.64000  0.71600  0.80400  1.0000
  O   O11       1.0  0.80300  0.24200  0.90400  1.0000
  O   O12       1.0  0.24700  0.68800  0.91800  1.0000
  Se  Se1       1.0  0.36900  0.35800  0.09100  1.0000
  Se  Se2       1.0  0.64200  0.63100  0.40900  1.0000
  Se  Se3       1.0  0.35800  0.36900  0.59100  1.0000
  Se  Se4       1.0  0.63100  0.64200  0.90900  1.0000
