data_image0
_chemical_formula_structural       Ag16I4O16P4
_chemical_formula_sum              "Ag16 I4 O16 P4"
_cell_length_a       9.13211
_cell_length_b       6.90801
_cell_length_c       11.0784
_cell_angle_alpha    90
_cell_angle_beta     109.583
_cell_angle_gamma    90

_space_group_name_H-M_alt    "P 1"
_space_group_IT_number       1

loop_
  _space_group_symop_operation_xyz
  'x, y, z'

loop_
  _atom_site_type_symbol
  _atom_site_label
  _atom_site_symmetry_multiplicity
  _atom_site_fract_x
  _atom_site_fract_y
  _atom_site_fract_z
  _atom_site_occupancy
  Ag  Ag1       1.0  0.35000  0.53600  0.07300  1.0000
  Ag  Ag2       1.0  0.35000  0.96400  0.07300  1.0000
  Ag  Ag3       1.0  0.98800  0.04150  0.21500  1.0000
  Ag  Ag4       1.0  0.98800  0.45800  0.21500  1.0000
  Ag  Ag5       1.0  0.69000  0.25000  0.22000  1.0000
  Ag  Ag6       1.0  0.37600  0.75000  0.30700  1.0000
  Ag  Ag7       1.0  0.71500  0.02300  0.46000  1.0000
  Ag  Ag8       1.0  0.71500  0.47700  0.46000  1.0000
  Ag  Ag9       1.0  0.28500  0.52300  0.54000  1.0000
  Ag  Ag10      1.0  0.28500  0.97700  0.54000  1.0000
  Ag  Ag11      1.0  0.62400  0.25000  0.69300  1.0000
  Ag  Ag12      1.0  0.31000  0.75000  0.78000  1.0000
  Ag  Ag13      1.0  0.01160  0.54200  0.78500  1.0000
  Ag  Ag14      1.0  0.01160  0.95800  0.78500  1.0000
  Ag  Ag15      1.0  0.65000  0.03610  0.92700  1.0000
  Ag  Ag16      1.0  0.65000  0.46400  0.92700  1.0000
  I   I1        1.0  0.08640  0.75000  0.03000  1.0000
  I   I2        1.0  0.96200  0.25000  0.43600  1.0000
  I   I3        1.0  0.03810  0.75000  0.56400  1.0000
  I   I4        1.0  0.91400  0.25000  0.97000  1.0000
  O   O1        1.0  0.62200  0.56500  0.12400  1.0000
  O   O2        1.0  0.62200  0.93500  0.12400  1.0000
  O   O3        1.0  0.41000  0.25000  0.19900  1.0000
  O   O4        1.0  0.87200  0.75000  0.23400  1.0000
  O   O5        1.0  0.26500  0.06380  0.32400  1.0000
  O   O6        1.0  0.26500  0.43600  0.32400  1.0000
  O   O7        1.0  0.65000  0.75000  0.32800  1.0000
  O   O8        1.0  0.50900  0.25000  0.44600  1.0000
  O   O9        1.0  0.49100  0.75000  0.55400  1.0000
  O   O10       1.0  0.35000  0.25000  0.67200  1.0000
  O   O11       1.0  0.73500  0.56400  0.67600  1.0000
  O   O12       1.0  0.73500  0.93600  0.67600  1.0000
  O   O13       1.0  0.12800  0.25000  0.76600  1.0000
  O   O14       1.0  0.59000  0.75000  0.80100  1.0000
  O   O15       1.0  0.37800  0.06480  0.87600  1.0000
  O   O16       1.0  0.37800  0.43500  0.87600  1.0000
  P   P1        1.0  0.69400  0.75000  0.20300  1.0000
  P   P2        1.0  0.36300  0.25000  0.32300  1.0000
  P   P3        1.0  0.63700  0.75000  0.67700  1.0000
  P   P4        1.0  0.30600  0.25000  0.79700  1.0000
