data_image0
_chemical_formula_structural       Ge8Na2O24P6
_chemical_formula_sum              "Ge8 Na2 O24 P6"
_cell_length_a       9.25161
_cell_length_b       9.2516
_cell_length_c       9.40088
_cell_angle_alpha    119.476
_cell_angle_beta     60.5238
_cell_angle_gamma    120

_space_group_name_H-M_alt    "P 1"
_space_group_IT_number       1

loop_
  _space_group_symop_operation_xyz
  'x, y, z'

loop_
  _atom_site_type_symbol
  _atom_site_label
  _atom_site_symmetry_multiplicity
  _atom_site_fract_x
  _atom_site_fract_y
  _atom_site_fract_z
  _atom_site_occupancy
  Ge  Ge1       1.0  0.12900  0.32800  0.19200  1.0000
  Ge  Ge2       1.0  0.00778  0.87100  0.19200  1.0000
  Ge  Ge3       1.0  0.67200  0.99200  0.19200  1.0000
  Ge  Ge4       1.0  0.57100  0.42900  0.28700  1.0000
  Ge  Ge5       1.0  0.50800  0.82800  0.69200  1.0000
  Ge  Ge6       1.0  0.17200  0.37100  0.69200  1.0000
  Ge  Ge7       1.0  0.62900  0.49200  0.69200  1.0000
  Ge  Ge8       1.0  0.07110  0.92900  0.78700  1.0000
  Na  Na1       1.0  0.21500  0.78500  0.35600  1.0000
  Na  Na2       1.0  0.71500  0.28500  0.85600  1.0000
  O   O1        1.0  0.09620  0.39100  0.04400  1.0000
  O   O2        1.0  0.60900  0.74900  0.04400  1.0000
  O   O3        1.0  0.25100  0.90400  0.04400  1.0000
  O   O4        1.0  0.44500  0.22100  0.13200  1.0000
  O   O5        1.0  0.64300  0.55500  0.13200  1.0000
  O   O6        1.0  0.77900  0.35700  0.13200  1.0000
  O   O7        1.0  0.33600  0.54900  0.21300  1.0000
  O   O8        1.0  0.45100  0.00031  0.21300  1.0000
  O   O9        1.0  0.00000  0.66400  0.21300  1.0000
  O   O10       1.0  0.00235  0.48000  0.40000  1.0000
  O   O11       1.0  0.52000  0.92300  0.40000  1.0000
  O   O12       1.0  0.07730  0.99800  0.40000  1.0000
  O   O13       1.0  0.75100  0.89100  0.54400  1.0000
  O   O14       1.0  0.59600  0.24900  0.54400  1.0000
  O   O15       1.0  0.10900  0.40400  0.54400  1.0000
  O   O16       1.0  0.14300  0.72100  0.63200  1.0000
  O   O17       1.0  0.27900  0.05450  0.63200  1.0000
  O   O18       1.0  0.94500  0.85700  0.63200  1.0000
  O   O19       1.0  0.50000  0.04890  0.71300  1.0000
  O   O20       1.0  0.83600  0.50000  0.71300  1.0000
  O   O21       1.0  0.95100  0.16400  0.71300  1.0000
  O   O22       1.0  0.50200  0.42300  0.90000  1.0000
  O   O23       1.0  0.57700  0.98000  0.90000  1.0000
  O   O24       1.0  0.01990  0.49800  0.90000  1.0000
  P   P1        1.0  0.43000  0.02690  0.07500  1.0000
  P   P2        1.0  0.97300  0.47800  0.07500  1.0000
  P   P3        1.0  0.52200  0.57000  0.07500  1.0000
  P   P4        1.0  0.02190  0.52700  0.57500  1.0000
  P   P5        1.0  0.93000  0.97800  0.57500  1.0000
  P   P6        1.0  0.47300  0.06990  0.57500  1.0000
