data_image0
_chemical_formula_structural       Cr2F12H16O8Si2
_chemical_formula_sum              "Cr2 F12 H16 O8 Si2"
_cell_length_a       6.31654
_cell_length_b       8.63482
_cell_length_c       7.29488
_cell_angle_alpha    90.0002
_cell_angle_beta     119.879
_cell_angle_gamma    90

_space_group_name_H-M_alt    "P 1"
_space_group_IT_number       1

loop_
  _space_group_symop_operation_xyz
  'x, y, z'

loop_
  _atom_site_type_symbol
  _atom_site_label
  _atom_site_symmetry_multiplicity
  _atom_site_fract_x
  _atom_site_fract_y
  _atom_site_fract_z
  _atom_site_occupancy
  Cr  Cr1       1.0  0.00000  0.00000  0.00000  1.0000
  Cr  Cr2       1.0  0.00000  0.50000  0.50000  1.0000
  F   F1        1.0  0.38000  0.62200  0.10700  1.0000
  F   F2        1.0  0.49700  0.35800  0.15400  1.0000
  F   F3        1.0  0.78400  0.55700  0.19900  1.0000
  F   F4        1.0  0.21600  0.05680  0.30100  1.0000
  F   F5        1.0  0.50300  0.85800  0.34600  1.0000
  F   F6        1.0  0.62000  0.12200  0.39300  1.0000
  F   F7        1.0  0.38000  0.87800  0.60700  1.0000
  F   F8        1.0  0.49700  0.14200  0.65400  1.0000
  F   F9        1.0  0.78400  0.94300  0.69900  1.0000
  F   F10       1.0  0.21600  0.44300  0.80100  1.0000
  F   F11       1.0  0.50300  0.64200  0.84600  1.0000
  F   F12       1.0  0.62000  0.37800  0.89300  1.0000
  H   H1        1.0  0.25500  0.22200  0.02150  1.0000
  H   H2        1.0  0.66200  0.08030  0.04570  1.0000
  H   H3        1.0  0.71000  0.16100  0.08140  1.0000
  H   H4        1.0  0.22700  0.51500  0.15000  1.0000
  H   H5        1.0  0.77300  0.01480  0.35000  1.0000
  H   H6        1.0  0.29000  0.66100  0.41900  1.0000
  H   H7        1.0  0.33800  0.58000  0.45400  1.0000
  H   H8        1.0  0.74500  0.72200  0.47800  1.0000
  H   H9        1.0  0.25500  0.27800  0.52200  1.0000
  H   H10       1.0  0.66200  0.42000  0.54600  1.0000
  H   H11       1.0  0.71000  0.33900  0.58100  1.0000
  H   H12       1.0  0.22700  0.98500  0.65000  1.0000
  H   H13       1.0  0.77300  0.48500  0.85000  1.0000
  H   H14       1.0  0.29000  0.83900  0.91900  1.0000
  H   H15       1.0  0.33800  0.92000  0.95400  1.0000
  H   H16       1.0  0.74500  0.77800  0.97800  1.0000
  O   O1        1.0  0.06820  0.45100  0.08000  1.0000
  O   O2        1.0  0.88900  0.83600  0.08430  1.0000
  O   O3        1.0  0.11100  0.33600  0.41600  1.0000
  O   O4        1.0  0.93200  0.95100  0.42000  1.0000
  O   O5        1.0  0.06820  0.04920  0.58000  1.0000
  O   O6        1.0  0.88900  0.66400  0.58400  1.0000
  O   O7        1.0  0.11100  0.16400  0.91600  1.0000
  O   O8        1.0  0.93200  0.54900  0.92000  1.0000
  Si  Si1       1.0  0.50000  0.50000  0.00000  1.0000
  Si  Si2       1.0  0.50000  0.00000  0.50000  1.0000
