data_image0
_chemical_formula_structural       Ba4F28Ga4Mn4
_chemical_formula_sum              "Ba4 F28 Ga4 Mn4"
_cell_length_a       5.22575
_cell_length_b       7.26619
_cell_length_c       14.453
_cell_angle_alpha    91.0157
_cell_angle_beta     90
_cell_angle_gamma    111.075

_space_group_name_H-M_alt    "P 1"
_space_group_IT_number       1

loop_
  _space_group_symop_operation_xyz
  'x, y, z'

loop_
  _atom_site_type_symbol
  _atom_site_label
  _atom_site_symmetry_multiplicity
  _atom_site_fract_x
  _atom_site_fract_y
  _atom_site_fract_z
  _atom_site_occupancy
  Ba  Ba1       1.0  0.23500  0.38400  0.12100  1.0000
  Ba  Ba2       1.0  0.85100  0.61600  0.37900  1.0000
  Ba  Ba3       1.0  0.14900  0.38400  0.62100  1.0000
  Ba  Ba4       1.0  0.76500  0.61600  0.87900  1.0000
  F   F1        1.0  0.08600  0.83700  0.01710  1.0000
  F   F2        1.0  0.56100  0.73900  0.04720  1.0000
  F   F3        1.0  0.80300  0.49500  0.08670  1.0000
  F   F4        1.0  0.46700  0.11200  0.12900  1.0000
  F   F5        1.0  0.89900  0.01590  0.15900  1.0000
  F   F6        1.0  0.16100  0.75100  0.20400  1.0000
  F   F7        1.0  0.61600  0.66800  0.22500  1.0000
  F   F8        1.0  0.94700  0.33200  0.27500  1.0000
  F   F9        1.0  0.41100  0.24900  0.29600  1.0000
  F   F10       1.0  0.88300  0.98400  0.34100  1.0000
  F   F11       1.0  0.35500  0.88800  0.37100  1.0000
  F   F12       1.0  0.30800  0.50500  0.41300  1.0000
  F   F13       1.0  0.82200  0.26100  0.45300  1.0000
  F   F14       1.0  0.24900  0.16300  0.48300  1.0000
  F   F15       1.0  0.75100  0.83700  0.51700  1.0000
  F   F16       1.0  0.17800  0.73900  0.54700  1.0000
  F   F17       1.0  0.69200  0.49500  0.58700  1.0000
  F   F18       1.0  0.64500  0.11200  0.62900  1.0000
  F   F19       1.0  0.11700  0.01590  0.65900  1.0000
  F   F20       1.0  0.58900  0.75100  0.70400  1.0000
  F   F21       1.0  0.05260  0.66800  0.72500  1.0000
  F   F22       1.0  0.38400  0.33200  0.77500  1.0000
  F   F23       1.0  0.83900  0.24900  0.79600  1.0000
  F   F24       1.0  0.10100  0.98400  0.84100  1.0000
  F   F25       1.0  0.53300  0.88800  0.87100  1.0000
  F   F26       1.0  0.19700  0.50500  0.91300  1.0000
  F   F27       1.0  0.43900  0.26100  0.95300  1.0000
  F   F28       1.0  0.91400  0.16300  0.98300  1.0000
  Ga  Ga1       1.0  0.87700  0.75900  0.12600  1.0000
  Ga  Ga2       1.0  0.11700  0.24100  0.37400  1.0000
  Ga  Ga3       1.0  0.88300  0.75900  0.62600  1.0000
  Ga  Ga4       1.0  0.12300  0.24100  0.87400  1.0000
  Mn  Mn1       1.0  0.50000  0.00000  0.00000  1.0000
  Mn  Mn2       1.0  0.54700  0.00000  0.25000  1.0000
  Mn  Mn3       1.0  0.50000  0.00000  0.50000  1.0000
  Mn  Mn4       1.0  0.45300  0.00000  0.75000  1.0000
