data_image0
_chemical_formula_structural       Ge8Li4O24V4
_chemical_formula_sum              "Ge8 Li4 O24 V4"
_cell_length_a       9.70302
_cell_length_b       8.77
_cell_length_c       5.40138
_cell_angle_alpha    90
_cell_angle_beta     104.379
_cell_angle_gamma    90

_space_group_name_H-M_alt    "P 1"
_space_group_IT_number       1

loop_
  _space_group_symop_operation_xyz
  'x, y, z'

loop_
  _atom_site_type_symbol
  _atom_site_label
  _atom_site_symmetry_multiplicity
  _atom_site_fract_x
  _atom_site_fract_y
  _atom_site_fract_z
  _atom_site_occupancy
  Ge  Ge1       1.0  0.94500  0.66100  0.17700  1.0000
  Ge  Ge2       1.0  0.45500  0.34300  0.24100  1.0000
  Ge  Ge3       1.0  0.54500  0.84300  0.25900  1.0000
  Ge  Ge4       1.0  0.05500  0.16100  0.32300  1.0000
  Ge  Ge5       1.0  0.94500  0.83900  0.67700  1.0000
  Ge  Ge6       1.0  0.45500  0.15700  0.74100  1.0000
  Ge  Ge7       1.0  0.54500  0.65700  0.75900  1.0000
  Ge  Ge8       1.0  0.05500  0.33900  0.82300  1.0000
  Li  Li1       1.0  0.75600  0.98500  0.04680  1.0000
  Li  Li2       1.0  0.24400  0.48500  0.45300  1.0000
  Li  Li3       1.0  0.75600  0.51500  0.54700  1.0000
  Li  Li4       1.0  0.24400  0.01460  0.95300  1.0000
  O   O1        1.0  0.38100  0.20900  0.00000  1.0000
  O   O2        1.0  0.61900  0.79100  0.00000  1.0000
  O   O3        1.0  0.11300  0.31900  0.16300  1.0000
  O   O4        1.0  0.35800  0.83600  0.17100  1.0000
  O   O5        1.0  0.38500  0.52300  0.17700  1.0000
  O   O6        1.0  0.13500  0.00077  0.23300  1.0000
  O   O7        1.0  0.13400  0.66800  0.24300  1.0000
  O   O8        1.0  0.86600  0.16800  0.25700  1.0000
  O   O9        1.0  0.86500  0.50100  0.26700  1.0000
  O   O10       1.0  0.61500  0.02340  0.32300  1.0000
  O   O11       1.0  0.64200  0.33600  0.32900  1.0000
  O   O12       1.0  0.88700  0.81900  0.33700  1.0000
  O   O13       1.0  0.38100  0.29100  0.50000  1.0000
  O   O14       1.0  0.61900  0.70900  0.50000  1.0000
  O   O15       1.0  0.11300  0.18100  0.66300  1.0000
  O   O16       1.0  0.35800  0.66400  0.67100  1.0000
  O   O17       1.0  0.38500  0.97700  0.67700  1.0000
  O   O18       1.0  0.13500  0.49900  0.73300  1.0000
  O   O19       1.0  0.13400  0.83200  0.74300  1.0000
  O   O20       1.0  0.86600  0.33200  0.75700  1.0000
  O   O21       1.0  0.86500  0.99900  0.76700  1.0000
  O   O22       1.0  0.61500  0.47700  0.82300  1.0000
  O   O23       1.0  0.64200  0.16400  0.82900  1.0000
  O   O24       1.0  0.88700  0.68100  0.83700  1.0000
  V   V1        1.0  0.75300  0.34300  0.04500  1.0000
  V   V2        1.0  0.24700  0.84300  0.45500  1.0000
  V   V3        1.0  0.75300  0.15700  0.54500  1.0000
  V   V4        1.0  0.24700  0.65700  0.95500  1.0000
