data_image0
_chemical_formula_structural       O26Te12Zn2
_chemical_formula_sum              "O26 Te12 Zn2"
_cell_length_a       8.57002
_cell_length_b       8.57003
_cell_length_c       8.57004
_cell_angle_alpha    107.992
_cell_angle_beta     72.0077
_cell_angle_gamma    107.993

_space_group_name_H-M_alt    "P 1"
_space_group_IT_number       1

loop_
  _space_group_symop_operation_xyz
  'x, y, z'

loop_
  _atom_site_type_symbol
  _atom_site_label
  _atom_site_symmetry_multiplicity
  _atom_site_fract_x
  _atom_site_fract_y
  _atom_site_fract_z
  _atom_site_occupancy
  O   O1        1.0  0.30300  0.20300  0.04260  1.0000
  O   O2        1.0  0.10500  0.60500  0.07570  1.0000
  O   O3        1.0  0.08370  0.91600  0.08370  1.0000
  O   O4        1.0  0.39500  0.92400  0.10500  1.0000
  O   O5        1.0  0.36400  0.54300  0.11200  1.0000
  O   O6        1.0  0.95700  0.30300  0.20300  1.0000
  O   O7        1.0  0.61800  0.62600  0.29600  1.0000
  O   O8        1.0  0.79700  0.95700  0.30300  1.0000
  O   O9        1.0  0.45700  0.88800  0.36400  1.0000
  O   O10       1.0  0.29600  0.38200  0.37400  1.0000
  O   O11       1.0  0.62600  0.29600  0.38200  1.0000
  O   O12       1.0  0.07570  0.89500  0.39500  1.0000
  O   O13       1.0  0.11200  0.63600  0.45700  1.0000
  O   O14       1.0  0.88800  0.36400  0.54300  1.0000
  O   O15       1.0  0.92400  0.10500  0.60500  1.0000
  O   O16       1.0  0.37400  0.70400  0.61800  1.0000
  O   O17       1.0  0.70400  0.61800  0.62600  1.0000
  O   O18       1.0  0.54300  0.11200  0.63600  1.0000
  O   O19       1.0  0.20300  0.04260  0.69700  1.0000
  O   O20       1.0  0.38200  0.37400  0.70400  1.0000
  O   O21       1.0  0.04260  0.69700  0.79700  1.0000
  O   O22       1.0  0.63600  0.45700  0.88800  1.0000
  O   O23       1.0  0.60500  0.07570  0.89500  1.0000
  O   O24       1.0  0.91600  0.08370  0.91600  1.0000
  O   O25       1.0  0.89500  0.39500  0.92400  1.0000
  O   O26       1.0  0.69700  0.79700  0.95700  1.0000
  Te  Te1       1.0  0.93000  0.66700  0.01680  1.0000
  Te  Te2       1.0  0.66700  0.01680  0.06990  1.0000
  Te  Te3       1.0  0.47400  0.41500  0.17000  1.0000
  Te  Te4       1.0  0.01680  0.06990  0.33300  1.0000
  Te  Te5       1.0  0.83000  0.47400  0.41500  1.0000
  Te  Te6       1.0  0.58500  0.83000  0.47400  1.0000
  Te  Te7       1.0  0.41500  0.17000  0.52600  1.0000
  Te  Te8       1.0  0.17000  0.52600  0.58500  1.0000
  Te  Te9       1.0  0.98300  0.93000  0.66700  1.0000
  Te  Te10      1.0  0.52600  0.58500  0.83000  1.0000
  Te  Te11      1.0  0.33300  0.98300  0.93000  1.0000
  Te  Te12      1.0  0.06990  0.33300  0.98300  1.0000
  Zn  Zn1       1.0  0.25600  0.74400  0.25600  1.0000
  Zn  Zn2       1.0  0.74400  0.25600  0.74400  1.0000
