data_image0
_chemical_formula_structural       Ba6O26V8
_chemical_formula_sum              "Ba6 O26 V8"
_cell_length_a       8.92071
_cell_length_b       9.18306
_cell_length_c       10.1106
_cell_angle_alpha    111.068
_cell_angle_beta     90
_cell_angle_gamma    119.059

_space_group_name_H-M_alt    "P 1"
_space_group_IT_number       1

loop_
  _space_group_symop_operation_xyz
  'x, y, z'

loop_
  _atom_site_type_symbol
  _atom_site_label
  _atom_site_symmetry_multiplicity
  _atom_site_fract_x
  _atom_site_fract_y
  _atom_site_fract_z
  _atom_site_occupancy
  Ba  Ba1       1.0  0.04100  0.41100  0.19700  1.0000
  Ba  Ba2       1.0  0.11700  0.00000  0.25000  1.0000
  Ba  Ba3       1.0  0.63000  0.58900  0.30300  1.0000
  Ba  Ba4       1.0  0.37000  0.41100  0.69700  1.0000
  Ba  Ba5       1.0  0.88300  0.00000  0.75000  1.0000
  Ba  Ba6       1.0  0.95900  0.58900  0.80300  1.0000
  O   O1        1.0  0.51200  0.25600  0.01330  1.0000
  O   O2        1.0  0.85500  0.04220  0.04690  1.0000
  O   O3        1.0  0.15800  0.66900  0.06120  1.0000
  O   O4        1.0  0.78800  0.73900  0.10100  1.0000
  O   O5        1.0  0.27600  0.29300  0.17900  1.0000
  O   O6        1.0  0.39100  0.66300  0.22600  1.0000
  O   O7        1.0  0.43800  0.00000  0.25000  1.0000
  O   O8        1.0  0.72800  0.33700  0.27400  1.0000
  O   O9        1.0  0.98400  0.70700  0.32100  1.0000
  O   O10       1.0  0.04890  0.26100  0.39900  1.0000
  O   O11       1.0  0.48900  0.33100  0.43900  1.0000
  O   O12       1.0  0.81300  0.95800  0.45300  1.0000
  O   O13       1.0  0.25700  0.74400  0.48700  1.0000
  O   O14       1.0  0.74300  0.25600  0.51300  1.0000
  O   O15       1.0  0.18700  0.04220  0.54700  1.0000
  O   O16       1.0  0.51100  0.66900  0.56100  1.0000
  O   O17       1.0  0.95100  0.73900  0.60100  1.0000
  O   O18       1.0  0.01650  0.29300  0.67900  1.0000
  O   O19       1.0  0.27200  0.66300  0.72600  1.0000
  O   O20       1.0  0.56200  0.00000  0.75000  1.0000
  O   O21       1.0  0.60900  0.33700  0.77400  1.0000
  O   O22       1.0  0.72400  0.70700  0.82100  1.0000
  O   O23       1.0  0.21200  0.26100  0.89900  1.0000
  O   O24       1.0  0.84200  0.33100  0.93900  1.0000
  O   O25       1.0  0.14500  0.95800  0.95300  1.0000
  O   O26       1.0  0.48800  0.74400  0.98700  1.0000
  V   V1        1.0  0.28100  0.18600  0.00336  1.0000
  V   V2        1.0  0.37200  0.76900  0.12900  1.0000
  V   V3        1.0  0.60300  0.23100  0.37100  1.0000
  V   V4        1.0  0.09430  0.81400  0.49700  1.0000
  V   V5        1.0  0.90600  0.18600  0.50300  1.0000
  V   V6        1.0  0.39700  0.76900  0.62900  1.0000
  V   V7        1.0  0.62800  0.23100  0.87100  1.0000
  V   V8        1.0  0.71900  0.81400  0.99700  1.0000
