data_image0
_chemical_formula_structural       Br16Si4
_chemical_formula_sum              "Br16 Si4"
_cell_length_a       10.5913
_cell_length_b       6.97243
_cell_length_c       10.7203
_cell_angle_alpha    90
_cell_angle_beta     103.12
_cell_angle_gamma    90

_space_group_name_H-M_alt    "P 1"
_space_group_IT_number       1

loop_
  _space_group_symop_operation_xyz
  'x, y, z'

loop_
  _atom_site_type_symbol
  _atom_site_label
  _atom_site_symmetry_multiplicity
  _atom_site_fract_x
  _atom_site_fract_y
  _atom_site_fract_z
  _atom_site_occupancy
  Br  Br1       1.0  0.20100  0.42300  0.02110  1.0000
  Br  Br2       1.0  0.69500  0.12900  0.09310  1.0000
  Br  Br3       1.0  0.07760  0.93400  0.19200  1.0000
  Br  Br4       1.0  0.58800  0.57900  0.20000  1.0000
  Br  Br5       1.0  0.41200  0.07910  0.30000  1.0000
  Br  Br6       1.0  0.92200  0.43400  0.30800  1.0000
  Br  Br7       1.0  0.30500  0.62900  0.40700  1.0000
  Br  Br8       1.0  0.79900  0.92300  0.47900  1.0000
  Br  Br9       1.0  0.20100  0.07690  0.52100  1.0000
  Br  Br10      1.0  0.69500  0.37100  0.59300  1.0000
  Br  Br11      1.0  0.07760  0.56600  0.69200  1.0000
  Br  Br12      1.0  0.58800  0.92100  0.70000  1.0000
  Br  Br13      1.0  0.41200  0.42100  0.80000  1.0000
  Br  Br14      1.0  0.92200  0.06630  0.80800  1.0000
  Br  Br15      1.0  0.30500  0.87100  0.90700  1.0000
  Br  Br16      1.0  0.79900  0.57700  0.97900  1.0000
  Si  Si1       1.0  0.75100  0.42900  0.14500  1.0000
  Si  Si2       1.0  0.24900  0.92900  0.35500  1.0000
  Si  Si3       1.0  0.75100  0.07050  0.64500  1.0000
  Si  Si4       1.0  0.24900  0.57100  0.85500  1.0000
