data_image0
_chemical_formula_structural       Bi4P8Se24Tl4
_chemical_formula_sum              "Bi4 P8 Se24 Tl4"
_cell_length_a       12.8388
_cell_length_b       7.65439
_cell_length_c       12.5649
_cell_angle_alpha    90
_cell_angle_beta     113.329
_cell_angle_gamma    90

_space_group_name_H-M_alt    "P 1"
_space_group_IT_number       1

loop_
  _space_group_symop_operation_xyz
  'x, y, z'

loop_
  _atom_site_type_symbol
  _atom_site_label
  _atom_site_symmetry_multiplicity
  _atom_site_fract_x
  _atom_site_fract_y
  _atom_site_fract_z
  _atom_site_occupancy
  Bi  Bi1       1.0  0.87900  0.64900  0.16000  1.0000
  Bi  Bi2       1.0  0.12100  0.14900  0.34000  1.0000
  Bi  Bi3       1.0  0.87900  0.85100  0.66000  1.0000
  Bi  Bi4       1.0  0.12100  0.35100  0.84000  1.0000
  P   P1        1.0  0.76600  0.12900  0.18700  1.0000
  P   P2        1.0  0.23500  0.40800  0.19200  1.0000
  P   P3        1.0  0.76500  0.90800  0.30800  1.0000
  P   P4        1.0  0.23400  0.62900  0.31300  1.0000
  P   P5        1.0  0.76600  0.37100  0.68700  1.0000
  P   P6        1.0  0.23500  0.09190  0.69200  1.0000
  P   P7        1.0  0.76500  0.59200  0.80800  1.0000
  P   P8        1.0  0.23400  0.87100  0.81300  1.0000
  Se  Se1       1.0  0.83100  0.00545  0.06300  1.0000
  Se  Se2       1.0  0.30400  0.50900  0.06990  1.0000
  Se  Se3       1.0  0.59500  0.23500  0.10400  1.0000
  Se  Se4       1.0  0.05590  0.31300  0.11500  1.0000
  Se  Se5       1.0  0.66600  0.69800  0.18800  1.0000
  Se  Se6       1.0  0.11000  0.81800  0.19400  1.0000
  Se  Se7       1.0  0.89000  0.31800  0.30600  1.0000
  Se  Se8       1.0  0.33400  0.19800  0.31200  1.0000
  Se  Se9       1.0  0.94400  0.81300  0.38500  1.0000
  Se  Se10      1.0  0.40500  0.73500  0.39600  1.0000
  Se  Se11      1.0  0.69600  0.00860  0.43000  1.0000
  Se  Se12      1.0  0.16900  0.50500  0.43700  1.0000
  Se  Se13      1.0  0.83100  0.49500  0.56300  1.0000
  Se  Se14      1.0  0.30400  0.99100  0.57000  1.0000
  Se  Se15      1.0  0.59500  0.26500  0.60400  1.0000
  Se  Se16      1.0  0.05590  0.18700  0.61500  1.0000
  Se  Se17      1.0  0.66600  0.80200  0.68800  1.0000
  Se  Se18      1.0  0.11000  0.68200  0.69400  1.0000
  Se  Se19      1.0  0.89000  0.18200  0.80600  1.0000
  Se  Se20      1.0  0.33400  0.30200  0.81200  1.0000
  Se  Se21      1.0  0.94400  0.68700  0.88500  1.0000
  Se  Se22      1.0  0.40500  0.76500  0.89600  1.0000
  Se  Se23      1.0  0.69600  0.49100  0.93000  1.0000
  Se  Se24      1.0  0.16900  0.99500  0.93700  1.0000
  Tl  Tl1       1.0  0.42100  0.92200  0.14800  1.0000
  Tl  Tl2       1.0  0.57900  0.42200  0.35200  1.0000
  Tl  Tl3       1.0  0.42100  0.57800  0.64800  1.0000
  Tl  Tl4       1.0  0.57900  0.07810  0.85200  1.0000
