data_image0
_chemical_formula_structural       Fe6Na4O24P6
_chemical_formula_sum              "Fe6 Na4 O24 P6"
_cell_length_a       6.49436
_cell_length_b       8.63766
_cell_length_c       9.08771
_cell_angle_alpha    104.571
_cell_angle_beta     115.144
_cell_angle_gamma    72.2521

_space_group_name_H-M_alt    "P 1"
_space_group_IT_number       1

loop_
  _space_group_symop_operation_xyz
  'x, y, z'

loop_
  _atom_site_type_symbol
  _atom_site_label
  _atom_site_symmetry_multiplicity
  _atom_site_fract_x
  _atom_site_fract_y
  _atom_site_fract_z
  _atom_site_occupancy
  Fe  Fe1       1.0  0.74500  0.94200  0.11700  1.0000
  Fe  Fe2       1.0  0.98400  0.26600  0.23400  1.0000
  Fe  Fe3       1.0  0.57000  0.61700  0.44200  1.0000
  Fe  Fe4       1.0  0.43000  0.38300  0.55800  1.0000
  Fe  Fe5       1.0  0.01620  0.73400  0.76600  1.0000
  Fe  Fe6       1.0  0.25500  0.05850  0.88300  1.0000
  Na  Na1       1.0  0.50000  0.50000  0.00000  1.0000
  Na  Na2       1.0  0.00000  0.50000  0.00000  1.0000
  Na  Na3       1.0  0.73200  0.01760  0.48200  1.0000
  Na  Na4       1.0  0.26800  0.98200  0.51800  1.0000
  O   O1        1.0  0.20000  0.72900  0.02900  1.0000
  O   O2        1.0  0.28400  0.26500  0.03130  1.0000
  O   O3        1.0  0.41300  0.95600  0.10400  1.0000
  O   O4        1.0  0.06310  0.00661  0.17700  1.0000
  O   O5        1.0  0.90000  0.52900  0.22900  1.0000
  O   O6        1.0  0.48200  0.46900  0.23500  1.0000
  O   O7        1.0  0.70400  0.17400  0.24000  1.0000
  O   O8        1.0  0.36200  0.26000  0.32600  1.0000
  O   O9        1.0  0.93500  0.83100  0.32600  1.0000
  O   O10       1.0  0.44000  0.82600  0.33100  1.0000
  O   O11       1.0  0.26400  0.60400  0.45600  1.0000
  O   O12       1.0  0.10800  0.32300  0.49300  1.0000
  O   O13       1.0  0.89200  0.67700  0.50700  1.0000
  O   O14       1.0  0.73600  0.39600  0.54400  1.0000
  O   O15       1.0  0.56000  0.17400  0.66900  1.0000
  O   O16       1.0  0.06520  0.16900  0.67400  1.0000
  O   O17       1.0  0.63800  0.74000  0.67400  1.0000
  O   O18       1.0  0.29600  0.82600  0.76000  1.0000
  O   O19       1.0  0.51800  0.53100  0.76500  1.0000
  O   O20       1.0  0.10000  0.47100  0.77100  1.0000
  O   O21       1.0  0.93700  0.99300  0.82300  1.0000
  O   O22       1.0  0.58700  0.04440  0.89600  1.0000
  O   O23       1.0  0.71600  0.73500  0.96900  1.0000
  O   O24       1.0  0.80000  0.27100  0.97100  1.0000
  P   P1        1.0  0.27900  0.87300  0.15800  1.0000
  P   P2        1.0  0.45900  0.29100  0.20900  1.0000
  P   P3        1.0  0.99400  0.65800  0.37300  1.0000
  P   P4        1.0  0.00620  0.34200  0.62700  1.0000
  P   P5        1.0  0.54100  0.70900  0.79100  1.0000
  P   P6        1.0  0.72100  0.12700  0.84200  1.0000
