data_image0
_chemical_formula_structural       Ba8Sn24Yb8
_chemical_formula_sum              "Ba8 Sn24 Yb8"
_cell_length_a       9.26819
_cell_length_b       9.26819
_cell_length_c       17.2987
_cell_angle_alpha    90
_cell_angle_beta     90
_cell_angle_gamma    61.0433

_space_group_name_H-M_alt    "P 1"
_space_group_IT_number       1

loop_
  _space_group_symop_operation_xyz
  'x, y, z'

loop_
  _atom_site_type_symbol
  _atom_site_label
  _atom_site_symmetry_multiplicity
  _atom_site_fract_x
  _atom_site_fract_y
  _atom_site_fract_z
  _atom_site_occupancy
  Ba  Ba1       1.0  0.21600  0.21600  0.00000  1.0000
  Ba  Ba2       1.0  0.78400  0.78400  0.00000  1.0000
  Ba  Ba3       1.0  0.67400  0.32600  0.08600  1.0000
  Ba  Ba4       1.0  0.17400  0.82600  0.41400  1.0000
  Ba  Ba5       1.0  0.28400  0.28400  0.50000  1.0000
  Ba  Ba6       1.0  0.71600  0.71600  0.50000  1.0000
  Ba  Ba7       1.0  0.82600  0.17400  0.58600  1.0000
  Ba  Ba8       1.0  0.32600  0.67400  0.91400  1.0000
  Sn  Sn1       1.0  0.06400  0.93600  0.08590  1.0000
  Sn  Sn2       1.0  0.19800  0.56500  0.09250  1.0000
  Sn  Sn3       1.0  0.43500  0.80200  0.09250  1.0000
  Sn  Sn4       1.0  0.51200  0.04200  0.16400  1.0000
  Sn  Sn5       1.0  0.95800  0.48800  0.16400  1.0000
  Sn  Sn6       1.0  0.28200  0.71800  0.22100  1.0000
  Sn  Sn7       1.0  0.78200  0.21800  0.27900  1.0000
  Sn  Sn8       1.0  0.01220  0.54200  0.33600  1.0000
  Sn  Sn9       1.0  0.45800  0.98800  0.33600  1.0000
  Sn  Sn10      1.0  0.69800  0.06480  0.40700  1.0000
  Sn  Sn11      1.0  0.93500  0.30200  0.40700  1.0000
  Sn  Sn12      1.0  0.56400  0.43600  0.41400  1.0000
  Sn  Sn13      1.0  0.43600  0.56400  0.58600  1.0000
  Sn  Sn14      1.0  0.06480  0.69800  0.59300  1.0000
  Sn  Sn15      1.0  0.30200  0.93500  0.59300  1.0000
  Sn  Sn16      1.0  0.54200  0.01220  0.66400  1.0000
  Sn  Sn17      1.0  0.98800  0.45800  0.66400  1.0000
  Sn  Sn18      1.0  0.21800  0.78200  0.72100  1.0000
  Sn  Sn19      1.0  0.71800  0.28200  0.77900  1.0000
  Sn  Sn20      1.0  0.04200  0.51200  0.83600  1.0000
  Sn  Sn21      1.0  0.48800  0.95800  0.83600  1.0000
  Sn  Sn22      1.0  0.56500  0.19800  0.90700  1.0000
  Sn  Sn23      1.0  0.80200  0.43500  0.90700  1.0000
  Sn  Sn24      1.0  0.93600  0.06400  0.91400  1.0000
  Yb  Yb1       1.0  0.14600  0.12200  0.22800  1.0000
  Yb  Yb2       1.0  0.87800  0.85400  0.22800  1.0000
  Yb  Yb3       1.0  0.37800  0.35400  0.27200  1.0000
  Yb  Yb4       1.0  0.64600  0.62200  0.27200  1.0000
  Yb  Yb5       1.0  0.35400  0.37800  0.72800  1.0000
  Yb  Yb6       1.0  0.62200  0.64600  0.72800  1.0000
  Yb  Yb7       1.0  0.12200  0.14600  0.77200  1.0000
  Yb  Yb8       1.0  0.85400  0.87800  0.77200  1.0000
