data_image0
_chemical_formula_structural       Sb4Zr4
_chemical_formula_sum              "Sb4 Zr4"
_cell_length_a       5.67788
_cell_length_b       5.67788
_cell_length_c       5.67788
_cell_angle_alpha    90
_cell_angle_beta     90
_cell_angle_gamma    90

_space_group_name_H-M_alt    "P 1"
_space_group_IT_number       1

loop_
  _space_group_symop_operation_xyz
  'x, y, z'

loop_
  _atom_site_type_symbol
  _atom_site_label
  _atom_site_symmetry_multiplicity
  _atom_site_fract_x
  _atom_site_fract_y
  _atom_site_fract_z
  _atom_site_occupancy
  Sb  Sb1       1.0  0.34400  0.65600  0.15600  1.0000
  Sb  Sb2       1.0  0.65600  0.15600  0.34400  1.0000
  Sb  Sb3       1.0  0.15600  0.34400  0.65600  1.0000
  Sb  Sb4       1.0  0.84400  0.84400  0.84400  1.0000
  Zr  Zr1       1.0  0.14300  0.14300  0.14300  1.0000
  Zr  Zr2       1.0  0.85700  0.64300  0.35700  1.0000
  Zr  Zr3       1.0  0.35700  0.85700  0.64300  1.0000
  Zr  Zr4       1.0  0.64300  0.35700  0.85700  1.0000
