data_image0
_chemical_formula_structural       Cr4F28Pb8
_chemical_formula_sum              "Cr4 F28 Pb8"
_cell_length_a       5.33325
_cell_length_b       11.0073
_cell_length_c       9.2548
_cell_angle_alpha    90
_cell_angle_beta     90.8222
_cell_angle_gamma    90

_space_group_name_H-M_alt    "P 1"
_space_group_IT_number       1

loop_
  _space_group_symop_operation_xyz
  'x, y, z'

loop_
  _atom_site_type_symbol
  _atom_site_label
  _atom_site_symmetry_multiplicity
  _atom_site_fract_x
  _atom_site_fract_y
  _atom_site_fract_z
  _atom_site_occupancy
  Cr  Cr1       1.0  0.30000  0.13300  0.20000  1.0000
  Cr  Cr2       1.0  0.70000  0.63300  0.30000  1.0000
  Cr  Cr3       1.0  0.30000  0.36700  0.70000  1.0000
  Cr  Cr4       1.0  0.70000  0.86700  0.80000  1.0000
  F   F1        1.0  0.87000  0.38800  0.00146  1.0000
  F   F2        1.0  0.22700  0.17800  0.00504  1.0000
  F   F3        1.0  0.60200  0.59400  0.10700  1.0000
  F   F4        1.0  0.56100  0.02870  0.13700  1.0000
  F   F5        1.0  0.07420  0.99900  0.18300  1.0000
  F   F6        1.0  0.54100  0.26400  0.21000  1.0000
  F   F7        1.0  0.96800  0.74000  0.24900  1.0000
  F   F8        1.0  0.03190  0.24000  0.25100  1.0000
  F   F9        1.0  0.45900  0.76400  0.29000  1.0000
  F   F10       1.0  0.92600  0.49900  0.31700  1.0000
  F   F11       1.0  0.43900  0.52900  0.36300  1.0000
  F   F12       1.0  0.39800  0.09380  0.39300  1.0000
  F   F13       1.0  0.77300  0.67800  0.49500  1.0000
  F   F14       1.0  0.13000  0.88800  0.49900  1.0000
  F   F15       1.0  0.87000  0.11200  0.50100  1.0000
  F   F16       1.0  0.22600  0.32200  0.50500  1.0000
  F   F17       1.0  0.60200  0.90600  0.60700  1.0000
  F   F18       1.0  0.56100  0.47100  0.63700  1.0000
  F   F19       1.0  0.07420  0.50100  0.68300  1.0000
  F   F20       1.0  0.54100  0.23600  0.71000  1.0000
  F   F21       1.0  0.96800  0.76000  0.74900  1.0000
  F   F22       1.0  0.03190  0.26000  0.75100  1.0000
  F   F23       1.0  0.45900  0.73600  0.79000  1.0000
  F   F24       1.0  0.92600  0.00148  0.81700  1.0000
  F   F25       1.0  0.43900  0.97100  0.86300  1.0000
  F   F26       1.0  0.39800  0.40600  0.89300  1.0000
  F   F27       1.0  0.77400  0.82200  0.99500  1.0000
  F   F28       1.0  0.13000  0.61200  0.99900  1.0000
  Pb  Pb1       1.0  0.23400  0.81400  0.04960  1.0000
  Pb  Pb2       1.0  0.24100  0.43600  0.13800  1.0000
  Pb  Pb3       1.0  0.75900  0.93600  0.36200  1.0000
  Pb  Pb4       1.0  0.76600  0.31400  0.45000  1.0000
  Pb  Pb5       1.0  0.23400  0.68600  0.55000  1.0000
  Pb  Pb6       1.0  0.24100  0.06350  0.63800  1.0000
  Pb  Pb7       1.0  0.75900  0.56400  0.86200  1.0000
  Pb  Pb8       1.0  0.76600  0.18600  0.95000  1.0000
