data_image0
_chemical_formula_structural       H4Na8O20P4Zn4
_chemical_formula_sum              "H4 Na8 O20 P4 Zn4"
_cell_length_a       8.49658
_cell_length_b       9.83609
_cell_length_c       5.75065
_cell_angle_alpha    90
_cell_angle_beta     105.256
_cell_angle_gamma    90

_space_group_name_H-M_alt    "P 1"
_space_group_IT_number       1

loop_
  _space_group_symop_operation_xyz
  'x, y, z'

loop_
  _atom_site_type_symbol
  _atom_site_label
  _atom_site_symmetry_multiplicity
  _atom_site_fract_x
  _atom_site_fract_y
  _atom_site_fract_z
  _atom_site_occupancy
  H   H1        1.0  0.95200  0.37800  0.13600  1.0000
  H   H2        1.0  0.04760  0.87800  0.36400  1.0000
  H   H3        1.0  0.95200  0.12200  0.63600  1.0000
  H   H4        1.0  0.04760  0.62200  0.86400  1.0000
  Na  Na1       1.0  0.38400  0.67200  0.14200  1.0000
  Na  Na2       1.0  0.29800  0.35800  0.18300  1.0000
  Na  Na3       1.0  0.70200  0.85800  0.31700  1.0000
  Na  Na4       1.0  0.61600  0.17200  0.35800  1.0000
  Na  Na5       1.0  0.38400  0.82800  0.64200  1.0000
  Na  Na6       1.0  0.29800  0.14200  0.68300  1.0000
  Na  Na7       1.0  0.70200  0.64200  0.81700  1.0000
  Na  Na8       1.0  0.61600  0.32800  0.85800  1.0000
  O   O1        1.0  0.01540  0.31100  0.06720  1.0000
  O   O2        1.0  0.35900  0.13600  0.11600  1.0000
  O   O3        1.0  0.76700  0.06860  0.12400  1.0000
  O   O4        1.0  0.57200  0.39400  0.21400  1.0000
  O   O5        1.0  0.84600  0.49600  0.23700  1.0000
  O   O6        1.0  0.15400  0.99600  0.26300  1.0000
  O   O7        1.0  0.42800  0.89400  0.28600  1.0000
  O   O8        1.0  0.23300  0.56900  0.37600  1.0000
  O   O9        1.0  0.64100  0.63600  0.38400  1.0000
  O   O10       1.0  0.98500  0.81100  0.43300  1.0000
  O   O11       1.0  0.01540  0.18900  0.56700  1.0000
  O   O12       1.0  0.35900  0.36400  0.61600  1.0000
  O   O13       1.0  0.76700  0.43100  0.62400  1.0000
  O   O14       1.0  0.57200  0.10600  0.71400  1.0000
  O   O15       1.0  0.84600  0.00352  0.73700  1.0000
  O   O16       1.0  0.15400  0.50400  0.76300  1.0000
  O   O17       1.0  0.42800  0.60600  0.78600  1.0000
  O   O18       1.0  0.23300  0.93100  0.87600  1.0000
  O   O19       1.0  0.64100  0.86400  0.88400  1.0000
  O   O20       1.0  0.98500  0.68900  0.93300  1.0000
  P   P1        1.0  0.29900  0.99200  0.13800  1.0000
  P   P2        1.0  0.70100  0.49200  0.36200  1.0000
  P   P3        1.0  0.29900  0.50800  0.63800  1.0000
  P   P4        1.0  0.70100  0.00828  0.86200  1.0000
  Zn  Zn1       1.0  0.99100  0.14200  0.22400  1.0000
  Zn  Zn2       1.0  0.00907  0.64200  0.27600  1.0000
  Zn  Zn3       1.0  0.99100  0.35800  0.72400  1.0000
  Zn  Zn4       1.0  0.00907  0.85800  0.77600  1.0000
