data_image0
_chemical_formula_structural       Cr4Er12S24
_chemical_formula_sum              "Cr4 Er12 S24"
_cell_length_a       13.1889
_cell_length_b       15.8341
_cell_length_c       3.73794
_cell_angle_alpha    90
_cell_angle_beta     90
_cell_angle_gamma    90

_space_group_name_H-M_alt    "P 1"
_space_group_IT_number       1

loop_
  _space_group_symop_operation_xyz
  'x, y, z'

loop_
  _atom_site_type_symbol
  _atom_site_label
  _atom_site_symmetry_multiplicity
  _atom_site_fract_x
  _atom_site_fract_y
  _atom_site_fract_z
  _atom_site_occupancy
  Cr  Cr1       1.0  0.00000  0.00000  0.00000  1.0000
  Cr  Cr2       1.0  0.00000  0.50000  0.00000  1.0000
  Cr  Cr3       1.0  0.50000  0.00000  0.50000  1.0000
  Cr  Cr4       1.0  0.50000  0.50000  0.50000  1.0000
  Er  Er1       1.0  0.54900  0.22100  0.00000  1.0000
  Er  Er2       1.0  0.31900  0.35200  0.00000  1.0000
  Er  Er3       1.0  0.75600  0.40100  0.00000  1.0000
  Er  Er4       1.0  0.24400  0.59900  0.00000  1.0000
  Er  Er5       1.0  0.68100  0.64800  0.00000  1.0000
  Er  Er6       1.0  0.45100  0.77900  0.00000  1.0000
  Er  Er7       1.0  0.25600  0.09860  0.50000  1.0000
  Er  Er8       1.0  0.81900  0.14800  0.50000  1.0000
  Er  Er9       1.0  0.04940  0.27900  0.50000  1.0000
  Er  Er10      1.0  0.95100  0.72100  0.50000  1.0000
  Er  Er11      1.0  0.18100  0.85200  0.50000  1.0000
  Er  Er12      1.0  0.74400  0.90100  0.50000  1.0000
  S   S1        1.0  0.81900  0.02010  0.00000  1.0000
  S   S2        1.0  0.41800  0.07580  0.00000  1.0000
  S   S3        1.0  0.18800  0.21000  0.00000  1.0000
  S   S4        1.0  0.89600  0.25400  0.00000  1.0000
  S   S5        1.0  0.12000  0.39100  0.00000  1.0000
  S   S6        1.0  0.52200  0.40200  0.00000  1.0000
  S   S7        1.0  0.47800  0.59800  0.00000  1.0000
  S   S8        1.0  0.88000  0.60900  0.00000  1.0000
  S   S9        1.0  0.10400  0.74600  0.00000  1.0000
  S   S10       1.0  0.81200  0.79000  0.00000  1.0000
  S   S11       1.0  0.58200  0.92400  0.00000  1.0000
  S   S12       1.0  0.18100  0.98000  0.00000  1.0000
  S   S13       1.0  0.02190  0.09780  0.50000  1.0000
  S   S14       1.0  0.62000  0.10900  0.50000  1.0000
  S   S15       1.0  0.39600  0.24600  0.50000  1.0000
  S   S16       1.0  0.68800  0.29000  0.50000  1.0000
  S   S17       1.0  0.91800  0.42400  0.50000  1.0000
  S   S18       1.0  0.31900  0.48000  0.50000  1.0000
  S   S19       1.0  0.68100  0.52000  0.50000  1.0000
  S   S20       1.0  0.08250  0.57600  0.50000  1.0000
  S   S21       1.0  0.31200  0.71000  0.50000  1.0000
  S   S22       1.0  0.60400  0.75400  0.50000  1.0000
  S   S23       1.0  0.38000  0.89100  0.50000  1.0000
  S   S24       1.0  0.97800  0.90200  0.50000  1.0000
