data_image0
_chemical_formula_structural       Al4O24P6Rb6
_chemical_formula_sum              "Al4 O24 P6 Rb6"
_cell_length_a       8.43157
_cell_length_b       8.79636
_cell_length_c       9.53028
_cell_angle_alpha    90
_cell_angle_beta     116.254
_cell_angle_gamma    90

_space_group_name_H-M_alt    "P 1"
_space_group_IT_number       1

loop_
  _space_group_symop_operation_xyz
  'x, y, z'

loop_
  _atom_site_type_symbol
  _atom_site_label
  _atom_site_symmetry_multiplicity
  _atom_site_fract_x
  _atom_site_fract_y
  _atom_site_fract_z
  _atom_site_occupancy
  Al  Al1       1.0  0.51000  0.17900  0.33300  1.0000
  Al  Al2       1.0  0.82300  0.67900  0.33300  1.0000
  Al  Al3       1.0  0.17700  0.17900  0.66700  1.0000
  Al  Al4       1.0  0.49000  0.67900  0.66700  1.0000
  O   O1        1.0  0.04770  0.25200  0.00000  1.0000
  O   O2        1.0  0.31100  0.39500  0.00000  1.0000
  O   O3        1.0  0.95200  0.75200  0.00000  1.0000
  O   O4        1.0  0.68900  0.89500  0.00000  1.0000
  O   O5        1.0  0.35600  0.13800  0.14200  1.0000
  O   O6        1.0  0.78600  0.63800  0.14200  1.0000
  O   O7        1.0  0.97400  0.32000  0.31600  1.0000
  O   O8        1.0  0.34200  0.82000  0.31600  1.0000
  O   O9        1.0  0.68700  0.27400  0.32800  1.0000
  O   O10       1.0  0.64000  0.77400  0.32800  1.0000
  O   O11       1.0  0.39200  0.27500  0.41900  1.0000
  O   O12       1.0  0.02760  0.77500  0.41900  1.0000
  O   O13       1.0  0.59400  0.01300  0.44200  1.0000
  O   O14       1.0  0.84800  0.51300  0.44200  1.0000
  O   O15       1.0  0.15200  0.01300  0.55800  1.0000
  O   O16       1.0  0.40600  0.51300  0.55800  1.0000
  O   O17       1.0  0.97200  0.27500  0.58100  1.0000
  O   O18       1.0  0.60800  0.77500  0.58100  1.0000
  O   O19       1.0  0.36000  0.27400  0.67200  1.0000
  O   O20       1.0  0.31300  0.77400  0.67200  1.0000
  O   O21       1.0  0.65800  0.32000  0.68400  1.0000
  O   O22       1.0  0.02620  0.82000  0.68400  1.0000
  O   O23       1.0  0.21400  0.13800  0.85800  1.0000
  O   O24       1.0  0.64400  0.63800  0.85800  1.0000
  P   P1        1.0  0.22800  0.24200  0.00000  1.0000
  P   P2        1.0  0.77200  0.74200  0.00000  1.0000
  P   P3        1.0  0.87600  0.34300  0.41300  1.0000
  P   P4        1.0  0.53700  0.84300  0.41300  1.0000
  P   P5        1.0  0.46300  0.34300  0.58700  1.0000
  P   P6        1.0  0.12400  0.84300  0.58700  1.0000
  Rb  Rb1       1.0  0.65500  0.32500  0.00000  1.0000
  Rb  Rb2       1.0  0.34500  0.82500  0.00000  1.0000
  Rb  Rb3       1.0  0.05650  0.02990  0.22600  1.0000
  Rb  Rb4       1.0  0.17000  0.53000  0.22600  1.0000
  Rb  Rb5       1.0  0.83000  0.02990  0.77400  1.0000
  Rb  Rb6       1.0  0.94400  0.53000  0.77400  1.0000
