data_image0
_chemical_formula_structural       C4Ca2H16N8O10
_chemical_formula_sum              "C4 Ca2 H16 N8 O10"
_cell_length_a       7.40062
_cell_length_b       7.62234
_cell_length_c       6.29683
_cell_angle_alpha    83.6175
_cell_angle_beta     71.5183
_cell_angle_gamma    77.9062

_space_group_name_H-M_alt    "P 1"
_space_group_IT_number       1

loop_
  _space_group_symop_operation_xyz
  'x, y, z'

loop_
  _atom_site_type_symbol
  _atom_site_label
  _atom_site_symmetry_multiplicity
  _atom_site_fract_x
  _atom_site_fract_y
  _atom_site_fract_z
  _atom_site_occupancy
  C   C1        1.0  0.80500  0.35100  0.03700  1.0000
  C   C2        1.0  0.74200  0.85000  0.38600  1.0000
  C   C3        1.0  0.25800  0.15000  0.61400  1.0000
  C   C4        1.0  0.19500  0.64900  0.96300  1.0000
  Ca  Ca1       1.0  0.12200  0.05450  0.19600  1.0000
  Ca  Ca2       1.0  0.87800  0.94500  0.80400  1.0000
  H   H1        1.0  0.53100  0.13000  0.13700  1.0000
  H   H2        1.0  0.38100  0.32900  0.14200  1.0000
  H   H3        1.0  0.77800  0.58400  0.18900  1.0000
  H   H4        1.0  0.34400  0.70000  0.20900  1.0000
  H   H5        1.0  0.50000  0.81800  0.22400  1.0000
  H   H6        1.0  0.04770  0.44200  0.30000  1.0000
  H   H7        1.0  0.51000  0.24800  0.47000  1.0000
  H   H8        1.0  0.86500  0.36200  0.49600  1.0000
  H   H9        1.0  0.13500  0.63800  0.50400  1.0000
  H   H10       1.0  0.49000  0.75200  0.53000  1.0000
  H   H11       1.0  0.95200  0.55800  0.70000  1.0000
  H   H12       1.0  0.50000  0.18200  0.77600  1.0000
  H   H13       1.0  0.65600  0.30000  0.79100  1.0000
  H   H14       1.0  0.22200  0.41600  0.81100  1.0000
  H   H15       1.0  0.61900  0.67100  0.85800  1.0000
  H   H16       1.0  0.46900  0.87000  0.86300  1.0000
  N   N1        1.0  0.81400  0.44700  0.20300  1.0000
  N   N2        1.0  0.39800  0.20200  0.21800  1.0000
  N   N3        1.0  0.94000  0.36800  0.32800  1.0000
  N   N4        1.0  0.39200  0.21900  0.44000  1.0000
  N   N5        1.0  0.60800  0.78100  0.56000  1.0000
  N   N6        1.0  0.05980  0.63200  0.67200  1.0000
  N   N7        1.0  0.60200  0.79800  0.78200  1.0000
  N   N8        1.0  0.18600  0.55300  0.79700  1.0000
  O   O1        1.0  0.86400  0.18100  0.03980  1.0000
  O   O2        1.0  0.27000  0.56000  0.11000  1.0000
  O   O3        1.0  0.72400  0.84100  0.18900  1.0000
  O   O4        1.0  0.36000  0.80900  0.27500  1.0000
  O   O5        1.0  0.87600  0.91000  0.42400  1.0000
  O   O6        1.0  0.12400  0.09050  0.57600  1.0000
  O   O7        1.0  0.64000  0.19100  0.72500  1.0000
  O   O8        1.0  0.27600  0.15900  0.81100  1.0000
  O   O9        1.0  0.73000  0.44000  0.89000  1.0000
  O   O10       1.0  0.13600  0.81900  0.96000  1.0000
