data_image0
_chemical_formula_structural       Al2Si2Sm
_chemical_formula_sum              "Al2 Si2 Sm1"
_cell_length_a       4.21459
_cell_length_b       4.21479
_cell_length_c       6.73574
_cell_angle_alpha    90
_cell_angle_beta     89.9986
_cell_angle_gamma    120.002

_space_group_name_H-M_alt    "P 1"
_space_group_IT_number       1

loop_
  _space_group_symop_operation_xyz
  'x, y, z'

loop_
  _atom_site_type_symbol
  _atom_site_label
  _atom_site_symmetry_multiplicity
  _atom_site_fract_x
  _atom_site_fract_y
  _atom_site_fract_z
  _atom_site_occupancy
  Al  Al1       1.0  0.66700  0.33300  0.35800  1.0000
  Al  Al2       1.0  0.33300  0.66700  0.64200  1.0000
  Si  Si1       1.0  0.33300  0.66700  0.26400  1.0000
  Si  Si2       1.0  0.66700  0.33300  0.73600  1.0000
  Sm  Sm1       1.0  0.00000  0.00000  0.00000  1.0000
