data_image0
_chemical_formula_structural       C16O16Tl8
_chemical_formula_sum              "C16 O16 Tl8"
_cell_length_a       6.18372
_cell_length_b       7.14155
_cell_length_c       14.6816
_cell_angle_alpha    90
_cell_angle_beta     90
_cell_angle_gamma    90

_space_group_name_H-M_alt    "P 1"
_space_group_IT_number       1

loop_
  _space_group_symop_operation_xyz
  'x, y, z'

loop_
  _atom_site_type_symbol
  _atom_site_label
  _atom_site_symmetry_multiplicity
  _atom_site_fract_x
  _atom_site_fract_y
  _atom_site_fract_z
  _atom_site_occupancy
  C   C1        1.0  0.59500  0.10700  0.05460  1.0000
  C   C2        1.0  0.53900  0.11600  0.15000  1.0000
  C   C3        1.0  0.54000  0.63100  0.17200  1.0000
  C   C4        1.0  0.49900  0.12400  0.23100  1.0000
  C   C5        1.0  0.50100  0.62400  0.26900  1.0000
  C   C6        1.0  0.46000  0.13100  0.32800  1.0000
  C   C7        1.0  0.46100  0.61600  0.35000  1.0000
  C   C8        1.0  0.40500  0.60700  0.44500  1.0000
  C   C9        1.0  0.90500  0.89300  0.55500  1.0000
  C   C10       1.0  0.96100  0.88400  0.65000  1.0000
  C   C11       1.0  0.96000  0.36900  0.67200  1.0000
  C   C12       1.0  0.00116  0.87600  0.73100  1.0000
  C   C13       1.0  0.99900  0.37600  0.76900  1.0000
  C   C14       1.0  0.04020  0.86900  0.82800  1.0000
  C   C15       1.0  0.03950  0.38400  0.85000  1.0000
  C   C16       1.0  0.09520  0.39300  0.94500  1.0000
  O   O1        1.0  0.51900  0.97100  0.00856  1.0000
  O   O2        1.0  0.71700  0.23500  0.02390  1.0000
  O   O3        1.0  0.37400  0.61100  0.12100  1.0000
  O   O4        1.0  0.73200  0.65600  0.14400  1.0000
  O   O5        1.0  0.26800  0.15600  0.35600  1.0000
  O   O6        1.0  0.62600  0.11100  0.37900  1.0000
  O   O7        1.0  0.28300  0.73500  0.47600  1.0000
  O   O8        1.0  0.48100  0.47100  0.49100  1.0000
  O   O9        1.0  0.98100  0.02920  0.50900  1.0000
  O   O10       1.0  0.78300  0.76500  0.52400  1.0000
  O   O11       1.0  0.12600  0.38900  0.62100  1.0000
  O   O12       1.0  0.76800  0.34400  0.64400  1.0000
  O   O13       1.0  0.23200  0.84400  0.85600  1.0000
  O   O14       1.0  0.87400  0.88900  0.87900  1.0000
  O   O15       1.0  0.21700  0.26500  0.97600  1.0000
  O   O16       1.0  0.01860  0.52900  0.99100  1.0000
  Tl  Tl1       1.0  0.09120  0.90200  0.04340  1.0000
  Tl  Tl2       1.0  0.03760  0.38300  0.15700  1.0000
  Tl  Tl3       1.0  0.96200  0.88300  0.34300  1.0000
  Tl  Tl4       1.0  0.90900  0.40200  0.45700  1.0000
  Tl  Tl5       1.0  0.40900  0.09840  0.54300  1.0000
  Tl  Tl6       1.0  0.46200  0.61700  0.65700  1.0000
  Tl  Tl7       1.0  0.53800  0.11700  0.84300  1.0000
  Tl  Tl8       1.0  0.59100  0.59800  0.95700  1.0000
