data_image0
_chemical_formula_structural       K4La4P8S24
_chemical_formula_sum              "K4 La4 P8 S24"
_cell_length_a       12.062
_cell_length_b       7.60781
_cell_length_c       11.4257
_cell_angle_alpha    90
_cell_angle_beta     109.72
_cell_angle_gamma    90

_space_group_name_H-M_alt    "P 1"
_space_group_IT_number       1

loop_
  _space_group_symop_operation_xyz
  'x, y, z'

loop_
  _atom_site_type_symbol
  _atom_site_label
  _atom_site_symmetry_multiplicity
  _atom_site_fract_x
  _atom_site_fract_y
  _atom_site_fract_z
  _atom_site_occupancy
  K   K1        1.0  0.87000  0.59300  0.12500  1.0000
  K   K2        1.0  0.13000  0.09320  0.37500  1.0000
  K   K3        1.0  0.87000  0.90700  0.62500  1.0000
  K   K4        1.0  0.13000  0.40700  0.87500  1.0000
  La  La1       1.0  0.35100  0.89300  0.09690  1.0000
  La  La2       1.0  0.64900  0.39300  0.40300  1.0000
  La  La3       1.0  0.35100  0.60700  0.59700  1.0000
  La  La4       1.0  0.64900  0.10700  0.90300  1.0000
  P   P1        1.0  0.79100  0.11900  0.23400  1.0000
  P   P2        1.0  0.67200  0.89800  0.24700  1.0000
  P   P3        1.0  0.32800  0.39800  0.25300  1.0000
  P   P4        1.0  0.20900  0.61900  0.26600  1.0000
  P   P5        1.0  0.79100  0.38100  0.73400  1.0000
  P   P6        1.0  0.67200  0.60200  0.74700  1.0000
  P   P7        1.0  0.32800  0.10200  0.75300  1.0000
  P   P8        1.0  0.20900  0.88100  0.76600  1.0000
  S   S1        1.0  0.58900  0.81600  0.06870  1.0000
  S   S2        1.0  0.12900  0.70400  0.09010  1.0000
  S   S3        1.0  0.88600  0.02550  0.13300  1.0000
  S   S4        1.0  0.67500  0.30700  0.13900  1.0000
  S   S5        1.0  0.22400  0.21200  0.14300  1.0000
  S   S6        1.0  0.44500  0.51700  0.18300  1.0000
  S   S7        1.0  0.55500  0.01660  0.31700  1.0000
  S   S8        1.0  0.77600  0.71200  0.35700  1.0000
  S   S9        1.0  0.32500  0.80700  0.36100  1.0000
  S   S10       1.0  0.11400  0.52500  0.36700  1.0000
  S   S11       1.0  0.87100  0.20400  0.41000  1.0000
  S   S12       1.0  0.41100  0.31600  0.43100  1.0000
  S   S13       1.0  0.58900  0.68400  0.56900  1.0000
  S   S14       1.0  0.12900  0.79600  0.59000  1.0000
  S   S15       1.0  0.88600  0.47500  0.63300  1.0000
  S   S16       1.0  0.67500  0.19300  0.63900  1.0000
  S   S17       1.0  0.22400  0.28800  0.64300  1.0000
  S   S18       1.0  0.44500  0.98300  0.68300  1.0000
  S   S19       1.0  0.55500  0.48300  0.81700  1.0000
  S   S20       1.0  0.77600  0.78800  0.85700  1.0000
  S   S21       1.0  0.32500  0.69300  0.86100  1.0000
  S   S22       1.0  0.11400  0.97500  0.86700  1.0000
  S   S23       1.0  0.87100  0.29600  0.91000  1.0000
  S   S24       1.0  0.41100  0.18400  0.93100  1.0000
