data_image0
_chemical_formula_structural       As4Na8Nb4O24
_chemical_formula_sum              "As4 Na8 Nb4 O24"
_cell_length_a       7.31137
_cell_length_b       9.02104
_cell_length_c       9.02104
_cell_angle_alpha    73.5132
_cell_angle_beta     104.934
_cell_angle_gamma    104.934

_space_group_name_H-M_alt    "P 1"
_space_group_IT_number       1

loop_
  _space_group_symop_operation_xyz
  'x, y, z'

loop_
  _atom_site_type_symbol
  _atom_site_label
  _atom_site_symmetry_multiplicity
  _atom_site_fract_x
  _atom_site_fract_y
  _atom_site_fract_z
  _atom_site_occupancy
  As  As1       1.0  0.95400  0.68400  0.06220  1.0000
  As  As2       1.0  0.54600  0.93800  0.31600  1.0000
  As  As3       1.0  0.45400  0.06220  0.68400  1.0000
  As  As4       1.0  0.04590  0.31600  0.93800  1.0000
  Na  Na1       1.0  0.25000  0.99300  0.00663  1.0000
  Na  Na2       1.0  0.44000  0.64700  0.06790  1.0000
  Na  Na3       1.0  0.05980  0.93200  0.35300  1.0000
  Na  Na4       1.0  0.25000  0.54100  0.45900  1.0000
  Na  Na5       1.0  0.75000  0.45900  0.54100  1.0000
  Na  Na6       1.0  0.94000  0.06790  0.64700  1.0000
  Na  Na7       1.0  0.56000  0.35300  0.93200  1.0000
  Na  Na8       1.0  0.75000  0.00663  0.99300  1.0000
  Nb  Nb1       1.0  0.39000  0.29200  0.29000  1.0000
  Nb  Nb2       1.0  0.89000  0.29000  0.29200  1.0000
  Nb  Nb3       1.0  0.11000  0.71000  0.70800  1.0000
  Nb  Nb4       1.0  0.61000  0.70800  0.71000  1.0000
  O   O1        1.0  0.27800  0.36800  0.04340  1.0000
  O   O2        1.0  0.86800  0.27600  0.04360  1.0000
  O   O3        1.0  0.97000  0.84500  0.12800  1.0000
  O   O4        1.0  0.53000  0.87200  0.15500  1.0000
  O   O5        1.0  0.62800  0.31400  0.20900  1.0000
  O   O6        1.0  0.00398  0.52600  0.21600  1.0000
  O   O7        1.0  0.36800  0.04360  0.27600  1.0000
  O   O8        1.0  0.12800  0.20900  0.31400  1.0000
  O   O9        1.0  0.44800  0.49000  0.32100  1.0000
  O   O10       1.0  0.77800  0.04340  0.36800  1.0000
  O   O11       1.0  0.49600  0.78400  0.47400  1.0000
  O   O12       1.0  0.94800  0.32100  0.49000  1.0000
  O   O13       1.0  0.05190  0.67900  0.51000  1.0000
  O   O14       1.0  0.50400  0.21600  0.52600  1.0000
  O   O15       1.0  0.22200  0.95700  0.63200  1.0000
  O   O16       1.0  0.55200  0.51000  0.67900  1.0000
  O   O17       1.0  0.87200  0.79100  0.68600  1.0000
  O   O18       1.0  0.63200  0.95600  0.72400  1.0000
  O   O19       1.0  0.99600  0.47400  0.78400  1.0000
  O   O20       1.0  0.37200  0.68600  0.79100  1.0000
  O   O21       1.0  0.47000  0.12800  0.84500  1.0000
  O   O22       1.0  0.03030  0.15500  0.87200  1.0000
  O   O23       1.0  0.13200  0.72400  0.95600  1.0000
  O   O24       1.0  0.72200  0.63200  0.95700  1.0000
