data_image0
_chemical_formula_structural       Ga4GeO8
_chemical_formula_sum              "Ga4 Ge1 O8"
_cell_length_a       3.02354
_cell_length_b       6.26432
_cell_length_c       7.88714
_cell_angle_alpha    91.9122
_cell_angle_beta     101.051
_cell_angle_gamma    103.965

_space_group_name_H-M_alt    "P 1"
_space_group_IT_number       1

loop_
  _space_group_symop_operation_xyz
  'x, y, z'

loop_
  _atom_site_type_symbol
  _atom_site_label
  _atom_site_symmetry_multiplicity
  _atom_site_fract_x
  _atom_site_fract_y
  _atom_site_fract_z
  _atom_site_occupancy
  Ga  Ga1       1.0  0.82000  0.36000  0.28000  1.0000
  Ga  Ga2       1.0  0.60400  0.84500  0.36200  1.0000
  Ga  Ga3       1.0  0.39700  0.15500  0.63800  1.0000
  Ga  Ga4       1.0  0.18000  0.64000  0.72000  1.0000
  Ge  Ge1       1.0  0.00000  0.00000  0.00000  1.0000
  O   O1        1.0  0.63200  0.19500  0.06820  1.0000
  O   O2        1.0  0.05730  0.89800  0.21700  1.0000
  O   O3        1.0  0.41500  0.52700  0.30300  1.0000
  O   O4        1.0  0.81700  0.17200  0.46200  1.0000
  O   O5        1.0  0.18300  0.82800  0.53800  1.0000
  O   O6        1.0  0.58500  0.47300  0.69700  1.0000
  O   O7        1.0  0.94300  0.10200  0.78300  1.0000
  O   O8        1.0  0.36800  0.80500  0.93200  1.0000
