data_image0
_chemical_formula_structural       Cl18Hg12In4P6
_chemical_formula_sum              "Cl18 Hg12 In4 P6"
_cell_length_a       10.5289
_cell_length_b       10.8624
_cell_length_c       11.0123
_cell_angle_alpha    90
_cell_angle_beta     116.429
_cell_angle_gamma    90

_space_group_name_H-M_alt    "P 1"
_space_group_IT_number       1

loop_
  _space_group_symop_operation_xyz
  'x, y, z'

loop_
  _atom_site_type_symbol
  _atom_site_label
  _atom_site_symmetry_multiplicity
  _atom_site_fract_x
  _atom_site_fract_y
  _atom_site_fract_z
  _atom_site_occupancy
  Cl  Cl1       1.0  0.13800  0.71200  0.08610  1.0000
  Cl  Cl2       1.0  0.30900  0.40400  0.09740  1.0000
  Cl  Cl3       1.0  0.47000  0.84600  0.12800  1.0000
  Cl  Cl4       1.0  0.63400  0.57600  0.15100  1.0000
  Cl  Cl5       1.0  0.70100  0.14300  0.15500  1.0000
  Cl  Cl6       1.0  0.88000  0.84700  0.28800  1.0000
  Cl  Cl7       1.0  0.49000  0.62700  0.36100  1.0000
  Cl  Cl8       1.0  0.12000  0.12700  0.48200  1.0000
  Cl  Cl9       1.0  0.65700  0.90900  0.48300  1.0000
  Cl  Cl10      1.0  0.34300  0.40900  0.51700  1.0000
  Cl  Cl11      1.0  0.88000  0.62700  0.51800  1.0000
  Cl  Cl12      1.0  0.51000  0.12700  0.63900  1.0000
  Cl  Cl13      1.0  0.12000  0.34700  0.71200  1.0000
  Cl  Cl14      1.0  0.29900  0.64300  0.84500  1.0000
  Cl  Cl15      1.0  0.36600  0.07600  0.84900  1.0000
  Cl  Cl16      1.0  0.53000  0.34600  0.87200  1.0000
  Cl  Cl17      1.0  0.69100  0.90400  0.90300  1.0000
  Cl  Cl18      1.0  0.86200  0.21200  0.91400  1.0000
  Hg  Hg1       1.0  0.82800  0.51800  0.00637  1.0000
  Hg  Hg2       1.0  0.13300  0.27800  0.22300  1.0000
  Hg  Hg3       1.0  0.51400  0.18900  0.32500  1.0000
  Hg  Hg4       1.0  0.85400  0.35900  0.34900  1.0000
  Hg  Hg5       1.0  0.11800  0.61600  0.36900  1.0000
  Hg  Hg6       1.0  0.27900  0.94300  0.37800  1.0000
  Hg  Hg7       1.0  0.72100  0.44300  0.62200  1.0000
  Hg  Hg8       1.0  0.88200  0.11600  0.63100  1.0000
  Hg  Hg9       1.0  0.14600  0.85900  0.65100  1.0000
  Hg  Hg10      1.0  0.48600  0.68900  0.67500  1.0000
  Hg  Hg11      1.0  0.86700  0.77800  0.77700  1.0000
  Hg  Hg12      1.0  0.17200  0.01820  0.99400  1.0000
  In  In1       1.0  0.36000  0.62400  0.08870  1.0000
  In  In2       1.0  0.69200  0.75400  0.33100  1.0000
  In  In3       1.0  0.30800  0.25400  0.66900  1.0000
  In  In4       1.0  0.64000  0.12400  0.91100  1.0000
  P   P1        1.0  0.27700  0.10200  0.22100  1.0000
  P   P2        1.0  0.98200  0.44400  0.23200  1.0000
  P   P3        1.0  0.73900  0.27900  0.48000  1.0000
  P   P4        1.0  0.26100  0.77900  0.52000  1.0000
  P   P5        1.0  0.01800  0.94400  0.76800  1.0000
  P   P6        1.0  0.72300  0.60200  0.77900  1.0000
