data_image0
_chemical_formula_structural       Ba4F4O24P4U4
_chemical_formula_sum              "Ba4 F4 O24 P4 U4"
_cell_length_a       6.69001
_cell_length_b       8.25496
_cell_length_c       10.6674
_cell_angle_alpha    90
_cell_angle_beta     92.1001
_cell_angle_gamma    90

_space_group_name_H-M_alt    "P 1"
_space_group_IT_number       1

loop_
  _space_group_symop_operation_xyz
  'x, y, z'

loop_
  _atom_site_type_symbol
  _atom_site_label
  _atom_site_symmetry_multiplicity
  _atom_site_fract_x
  _atom_site_fract_y
  _atom_site_fract_z
  _atom_site_occupancy
  Ba  Ba1       1.0  0.83800  0.23400  0.00802  1.0000
  Ba  Ba2       1.0  0.16200  0.73400  0.49200  1.0000
  Ba  Ba3       1.0  0.83800  0.26600  0.50800  1.0000
  Ba  Ba4       1.0  0.16200  0.76600  0.99200  1.0000
  F   F1        1.0  0.55700  0.34600  0.17100  1.0000
  F   F2        1.0  0.44300  0.84600  0.32900  1.0000
  F   F3        1.0  0.55700  0.15400  0.67100  1.0000
  F   F4        1.0  0.44300  0.65400  0.82900  1.0000
  O   O1        1.0  0.58500  0.71300  0.08610  1.0000
  O   O2        1.0  0.38300  0.02600  0.11200  1.0000
  O   O3        1.0  0.95400  0.96300  0.13000  1.0000
  O   O4        1.0  0.90800  0.52200  0.14700  1.0000
  O   O5        1.0  0.14900  0.29600  0.18200  1.0000
  O   O6        1.0  0.26000  0.59100  0.20800  1.0000
  O   O7        1.0  0.74000  0.09080  0.29200  1.0000
  O   O8        1.0  0.85100  0.79600  0.31800  1.0000
  O   O9        1.0  0.09200  0.02160  0.35300  1.0000
  O   O10       1.0  0.04560  0.46300  0.37000  1.0000
  O   O11       1.0  0.61700  0.52600  0.38800  1.0000
  O   O12       1.0  0.41500  0.21300  0.41400  1.0000
  O   O13       1.0  0.58500  0.78700  0.58600  1.0000
  O   O14       1.0  0.38300  0.47400  0.61200  1.0000
  O   O15       1.0  0.95400  0.53700  0.63000  1.0000
  O   O16       1.0  0.90800  0.97800  0.64700  1.0000
  O   O17       1.0  0.14900  0.20400  0.68200  1.0000
  O   O18       1.0  0.26000  0.90900  0.70800  1.0000
  O   O19       1.0  0.74000  0.40900  0.79200  1.0000
  O   O20       1.0  0.85100  0.70400  0.81800  1.0000
  O   O21       1.0  0.09200  0.47800  0.85300  1.0000
  O   O22       1.0  0.04560  0.03700  0.87000  1.0000
  O   O23       1.0  0.61700  0.97400  0.88800  1.0000
  O   O24       1.0  0.41500  0.28700  0.91400  1.0000
  P   P1        1.0  0.09100  0.46600  0.23200  1.0000
  P   P2        1.0  0.90900  0.96600  0.26800  1.0000
  P   P3        1.0  0.09100  0.03390  0.73200  1.0000
  P   P4        1.0  0.90900  0.53400  0.76800  1.0000
  U   U1        1.0  0.60700  0.61900  0.23700  1.0000
  U   U2        1.0  0.39300  0.11900  0.26300  1.0000
  U   U3        1.0  0.60700  0.88100  0.73700  1.0000
  U   U4        1.0  0.39300  0.38100  0.76300  1.0000
