data_image0
_chemical_formula_structural       Fe6Ga6Sc
_chemical_formula_sum              "Fe6 Ga6 Sc1"
_cell_length_a       4.98669
_cell_length_b       6.5037
_cell_length_c       6.5037
_cell_angle_alpha    99.4221
_cell_angle_beta     67.4572
_cell_angle_gamma    112.543

_space_group_name_H-M_alt    "P 1"
_space_group_IT_number       1

loop_
  _space_group_symop_operation_xyz
  'x, y, z'

loop_
  _atom_site_type_symbol
  _atom_site_label
  _atom_site_symmetry_multiplicity
  _atom_site_fract_x
  _atom_site_fract_y
  _atom_site_fract_z
  _atom_site_occupancy
  Fe  Fe1       1.0  1.00000  0.50000  0.00000  1.0000
  Fe  Fe2       1.0  0.50000  0.50000  0.00000  1.0000
  Fe  Fe3       1.0  0.50000  0.24500  0.24500  1.0000
  Fe  Fe4       1.0  0.00000  0.00000  0.50000  1.0000
  Fe  Fe5       1.0  0.50000  0.00000  0.50000  1.0000
  Fe  Fe6       1.0  0.50000  0.75500  0.75500  1.0000
  Ga  Ga1       1.0  0.32500  0.82500  0.17500  1.0000
  Ga  Ga2       1.0  0.00000  0.32800  0.32800  1.0000
  Ga  Ga3       1.0  0.66100  0.66100  0.33900  1.0000
  Ga  Ga4       1.0  0.33900  0.33900  0.66100  1.0000
  Ga  Ga5       1.0  0.00000  0.67200  0.67200  1.0000
  Ga  Ga6       1.0  0.67500  0.17500  0.82500  1.0000
  Sc  Sc1       1.0  0.00000  0.00000  0.00000  1.0000
