data_image0
_chemical_formula_structural       Ir4KO8
_chemical_formula_sum              "Ir4 K1 O8"
_cell_length_a       3.18833
_cell_length_b       7.35957
_cell_length_c       7.24546
_cell_angle_alpha    90.4525
_cell_angle_beta     102.71
_cell_angle_gamma    77.4899

_space_group_name_H-M_alt    "P 1"
_space_group_IT_number       1

loop_
  _space_group_symop_operation_xyz
  'x, y, z'

loop_
  _atom_site_type_symbol
  _atom_site_label
  _atom_site_symmetry_multiplicity
  _atom_site_fract_x
  _atom_site_fract_y
  _atom_site_fract_z
  _atom_site_occupancy
  Ir  Ir1       1.0  0.83200  0.52300  0.18600  1.0000
  Ir  Ir2       1.0  0.65200  0.18600  0.48900  1.0000
  Ir  Ir3       1.0  0.34800  0.81400  0.51100  1.0000
  Ir  Ir4       1.0  0.16800  0.47700  0.81400  1.0000
  K   K1        1.0  0.00000  0.00000  0.00000  1.0000
  O   O1        1.0  0.19900  0.64400  0.04250  1.0000
  O   O2        1.0  0.45400  0.39900  0.30800  1.0000
  O   O3        1.0  0.14800  0.06240  0.35700  1.0000
  O   O4        1.0  0.82500  0.72000  0.37100  1.0000
  O   O5        1.0  0.17500  0.28000  0.62900  1.0000
  O   O6        1.0  0.85200  0.93800  0.64300  1.0000
  O   O7        1.0  0.54600  0.60100  0.69200  1.0000
  O   O8        1.0  0.80100  0.35600  0.95700  1.0000
