data_image0
_chemical_formula_structural       In4Se24Sm12
_chemical_formula_sum              "In4 Se24 Sm12"
_cell_length_a       14.2965
_cell_length_b       17.548
_cell_length_c       4.09162
_cell_angle_alpha    90
_cell_angle_beta     90
_cell_angle_gamma    90

_space_group_name_H-M_alt    "P 1"
_space_group_IT_number       1

loop_
  _space_group_symop_operation_xyz
  'x, y, z'

loop_
  _atom_site_type_symbol
  _atom_site_label
  _atom_site_symmetry_multiplicity
  _atom_site_fract_x
  _atom_site_fract_y
  _atom_site_fract_z
  _atom_site_occupancy
  In  In1       1.0  0.00000  0.00000  0.00000  1.0000
  In  In2       1.0  0.00000  0.50000  0.00000  1.0000
  In  In3       1.0  0.50000  0.00000  0.50000  1.0000
  In  In4       1.0  0.50000  0.50000  0.50000  1.0000
  Se  Se1       1.0  0.52300  0.10400  0.00000  1.0000
  Se  Se2       1.0  0.11200  0.11700  0.00000  1.0000
  Se  Se3       1.0  0.88800  0.25200  0.00000  1.0000
  Se  Se4       1.0  0.18300  0.28500  0.00000  1.0000
  Se  Se5       1.0  0.40500  0.41300  0.00000  1.0000
  Se  Se6       1.0  0.80800  0.48000  0.00000  1.0000
  Se  Se7       1.0  0.19200  0.52000  0.00000  1.0000
  Se  Se8       1.0  0.59500  0.58700  0.00000  1.0000
  Se  Se9       1.0  0.81700  0.71500  0.00000  1.0000
  Se  Se10      1.0  0.11200  0.74800  0.00000  1.0000
  Se  Se11      1.0  0.88800  0.88300  0.00000  1.0000
  Se  Se12      1.0  0.47700  0.89600  0.00000  1.0000
  Se  Se13      1.0  0.30800  0.01990  0.50000  1.0000
  Se  Se14      1.0  0.90500  0.08730  0.50000  1.0000
  Se  Se15      1.0  0.68300  0.21500  0.50000  1.0000
  Se  Se16      1.0  0.38800  0.24800  0.50000  1.0000
  Se  Se17      1.0  0.61200  0.38300  0.50000  1.0000
  Se  Se18      1.0  0.02290  0.39600  0.50000  1.0000
  Se  Se19      1.0  0.97700  0.60400  0.50000  1.0000
  Se  Se20      1.0  0.38800  0.61700  0.50000  1.0000
  Se  Se21      1.0  0.61200  0.75200  0.50000  1.0000
  Se  Se22      1.0  0.31700  0.78500  0.50000  1.0000
  Se  Se23      1.0  0.09500  0.91300  0.50000  1.0000
  Se  Se24      1.0  0.69200  0.98000  0.50000  1.0000
  Sm  Sm1       1.0  0.75100  0.10600  0.00000  1.0000
  Sm  Sm2       1.0  0.31300  0.14600  0.00000  1.0000
  Sm  Sm3       1.0  0.54100  0.27600  0.00000  1.0000
  Sm  Sm4       1.0  0.45900  0.72400  0.00000  1.0000
  Sm  Sm5       1.0  0.68700  0.85400  0.00000  1.0000
  Sm  Sm6       1.0  0.24900  0.89400  0.00000  1.0000
  Sm  Sm7       1.0  0.04090  0.22400  0.50000  1.0000
  Sm  Sm8       1.0  0.81300  0.35400  0.50000  1.0000
  Sm  Sm9       1.0  0.25100  0.39400  0.50000  1.0000
  Sm  Sm10      1.0  0.74900  0.60600  0.50000  1.0000
  Sm  Sm11      1.0  0.18700  0.64600  0.50000  1.0000
  Sm  Sm12      1.0  0.95900  0.77600  0.50000  1.0000
