data_image0
_chemical_formula_structural       Gd12In4Se24
_chemical_formula_sum              "Gd12 In4 Se24"
_cell_length_a       14.1564
_cell_length_b       17.4594
_cell_length_c       4.04762
_cell_angle_alpha    90
_cell_angle_beta     90
_cell_angle_gamma    90

_space_group_name_H-M_alt    "P 1"
_space_group_IT_number       1

loop_
  _space_group_symop_operation_xyz
  'x, y, z'

loop_
  _atom_site_type_symbol
  _atom_site_label
  _atom_site_symmetry_multiplicity
  _atom_site_fract_x
  _atom_site_fract_y
  _atom_site_fract_z
  _atom_site_occupancy
  Gd  Gd1       1.0  0.75000  0.10600  0.00000  1.0000
  Gd  Gd2       1.0  0.31300  0.14500  0.00000  1.0000
  Gd  Gd3       1.0  0.54000  0.27500  0.00000  1.0000
  Gd  Gd4       1.0  0.46000  0.72500  0.00000  1.0000
  Gd  Gd5       1.0  0.68700  0.85500  0.00000  1.0000
  Gd  Gd6       1.0  0.25000  0.89400  0.00000  1.0000
  Gd  Gd7       1.0  0.04000  0.22500  0.50000  1.0000
  Gd  Gd8       1.0  0.81300  0.35500  0.50000  1.0000
  Gd  Gd9       1.0  0.25000  0.39400  0.50000  1.0000
  Gd  Gd10      1.0  0.75000  0.60600  0.50000  1.0000
  Gd  Gd11      1.0  0.18700  0.64500  0.50000  1.0000
  Gd  Gd12      1.0  0.96000  0.77500  0.50000  1.0000
  In  In1       1.0  0.00000  0.00000  0.00000  1.0000
  In  In2       1.0  0.00000  0.50000  0.00000  1.0000
  In  In3       1.0  0.50000  0.00000  0.50000  1.0000
  In  In4       1.0  0.50000  0.50000  0.50000  1.0000
  Se  Se1       1.0  0.52300  0.10500  0.00000  1.0000
  Se  Se2       1.0  0.11200  0.11800  0.00000  1.0000
  Se  Se3       1.0  0.88700  0.25200  0.00000  1.0000
  Se  Se4       1.0  0.18200  0.28500  0.00000  1.0000
  Se  Se5       1.0  0.40400  0.41100  0.00000  1.0000
  Se  Se6       1.0  0.80700  0.48000  0.00000  1.0000
  Se  Se7       1.0  0.19300  0.52000  0.00000  1.0000
  Se  Se8       1.0  0.59600  0.58900  0.00000  1.0000
  Se  Se9       1.0  0.81800  0.71500  0.00000  1.0000
  Se  Se10      1.0  0.11300  0.74800  0.00000  1.0000
  Se  Se11      1.0  0.88800  0.88200  0.00000  1.0000
  Se  Se12      1.0  0.47700  0.89500  0.00000  1.0000
  Se  Se13      1.0  0.30700  0.02020  0.50000  1.0000
  Se  Se14      1.0  0.90400  0.08890  0.50000  1.0000
  Se  Se15      1.0  0.68200  0.21500  0.50000  1.0000
  Se  Se16      1.0  0.38700  0.24800  0.50000  1.0000
  Se  Se17      1.0  0.61200  0.38200  0.50000  1.0000
  Se  Se18      1.0  0.02260  0.39500  0.50000  1.0000
  Se  Se19      1.0  0.97700  0.60500  0.50000  1.0000
  Se  Se20      1.0  0.38800  0.61800  0.50000  1.0000
  Se  Se21      1.0  0.61300  0.75200  0.50000  1.0000
  Se  Se22      1.0  0.31800  0.78500  0.50000  1.0000
  Se  Se23      1.0  0.09610  0.91100  0.50000  1.0000
  Se  Se24      1.0  0.69300  0.98000  0.50000  1.0000
