data_image0
_chemical_formula_structural       Cd2CuO8P2
_chemical_formula_sum              "Cd2 Cu1 O8 P2"
_cell_length_a       4.78182
_cell_length_b       5.59733
_cell_length_c       6.72944
_cell_angle_alpha    74.2355
_cell_angle_beta     85.8092
_cell_angle_gamma    69.9808

_space_group_name_H-M_alt    "P 1"
_space_group_IT_number       1

loop_
  _space_group_symop_operation_xyz
  'x, y, z'

loop_
  _atom_site_type_symbol
  _atom_site_label
  _atom_site_symmetry_multiplicity
  _atom_site_fract_x
  _atom_site_fract_y
  _atom_site_fract_z
  _atom_site_occupancy
  Cd  Cd1       1.0  0.29500  0.28000  0.31100  1.0000
  Cd  Cd2       1.0  0.70500  0.72000  0.68900  1.0000
  Cu  Cu1       1.0  0.00000  0.00000  0.00000  1.0000
  O   O1        1.0  0.77200  0.77500  0.00500  1.0000
  O   O2        1.0  0.30800  0.69100  0.16400  1.0000
  O   O3        1.0  0.79300  0.39100  0.32700  1.0000
  O   O4        1.0  0.62500  0.86600  0.34700  1.0000
  O   O5        1.0  0.37500  0.13400  0.65300  1.0000
  O   O6        1.0  0.20700  0.60900  0.67300  1.0000
  O   O7        1.0  0.69200  0.30900  0.83600  1.0000
  O   O8        1.0  0.22800  0.22500  0.99500  1.0000
  P   P1        1.0  0.62800  0.68000  0.21400  1.0000
  P   P2        1.0  0.37200  0.32000  0.78600  1.0000
