data_image0
_chemical_formula_structural       ClLi6O5P
_chemical_formula_sum              "Cl1 Li6 O5 P1"
_cell_length_a       5.79976
_cell_length_b       5.79976
_cell_length_c       5.79976
_cell_angle_alpha    120
_cell_angle_beta     90
_cell_angle_gamma    120

_space_group_name_H-M_alt    "P 1"
_space_group_IT_number       1

loop_
  _space_group_symop_operation_xyz
  'x, y, z'

loop_
  _atom_site_type_symbol
  _atom_site_label
  _atom_site_symmetry_multiplicity
  _atom_site_fract_x
  _atom_site_fract_y
  _atom_site_fract_z
  _atom_site_occupancy
  Cl  Cl1       1.0  0.00000  0.00000  0.00000  1.0000
  Li  Li1       1.0  0.01620  0.03230  0.51600  1.0000
  Li  Li2       1.0  0.01620  0.50000  0.51600  1.0000
  Li  Li3       1.0  0.48400  0.50000  0.51600  1.0000
  Li  Li4       1.0  0.01620  0.50000  0.98400  1.0000
  Li  Li5       1.0  0.48400  0.50000  0.98400  1.0000
  Li  Li6       1.0  0.48400  0.96800  0.98400  1.0000
  O   O1        1.0  0.60900  0.21900  0.39100  1.0000
  O   O2        1.0  0.17200  0.78100  0.39100  1.0000
  O   O3        1.0  0.60900  0.78100  0.39100  1.0000
  O   O4        1.0  0.25000  0.50000  0.75000  1.0000
  O   O5        1.0  0.60900  0.21900  0.82800  1.0000
  P   P1        1.0  0.50000  0.00000  0.50000  1.0000
