data_image0
_chemical_formula_structural       BaC2F2O6Pb2
_chemical_formula_sum              "Ba1 C2 F2 O6 Pb2"
_cell_length_a       5.16374
_cell_length_b       5.16374
_cell_length_c       8.22899
_cell_angle_alpha    71.7144
_cell_angle_beta     108.286
_cell_angle_gamma    120

_space_group_name_H-M_alt    "P 1"
_space_group_IT_number       1

loop_
  _space_group_symop_operation_xyz
  'x, y, z'

loop_
  _atom_site_type_symbol
  _atom_site_label
  _atom_site_symmetry_multiplicity
  _atom_site_fract_x
  _atom_site_fract_y
  _atom_site_fract_z
  _atom_site_occupancy
  Ba  Ba1       1.0  0.00000  0.00000  0.00000  1.0000
  C   C1        1.0  0.43000  0.57000  0.29100  1.0000
  C   C2        1.0  0.57000  0.43000  0.70900  1.0000
  F   F1        1.0  0.68900  0.31100  0.06560  1.0000
  F   F2        1.0  0.31100  0.68900  0.93400  1.0000
  O   O1        1.0  0.72100  0.71400  0.29400  1.0000
  O   O2        1.0  0.28600  0.27900  0.29400  1.0000
  O   O3        1.0  0.28600  0.71400  0.29400  1.0000
  O   O4        1.0  0.71400  0.28600  0.70600  1.0000
  O   O5        1.0  0.71400  0.72100  0.70600  1.0000
  O   O6        1.0  0.27900  0.28600  0.70600  1.0000
  Pb  Pb1       1.0  0.78600  0.21400  0.35700  1.0000
  Pb  Pb2       1.0  0.21400  0.78600  0.64300  1.0000
