data_image0
_chemical_formula_structural       Al6Gd2PtSi4
_chemical_formula_sum              "Al6 Gd2 Pt1 Si4"
_cell_length_a       4.17062
_cell_length_b       4.17058
_cell_length_c       17.1946
_cell_angle_alpha    96.9658
_cell_angle_beta     90.0046
_cell_angle_gamma    120

_space_group_name_H-M_alt    "P 1"
_space_group_IT_number       1

loop_
  _space_group_symop_operation_xyz
  'x, y, z'

loop_
  _atom_site_type_symbol
  _atom_site_label
  _atom_site_symmetry_multiplicity
  _atom_site_fract_x
  _atom_site_fract_y
  _atom_site_fract_z
  _atom_site_occupancy
  Al  Al1       1.0  0.68200  0.36400  0.04620  1.0000
  Al  Al2       1.0  0.05000  0.10000  0.15000  1.0000
  Al  Al3       1.0  0.81500  0.63000  0.44500  1.0000
  Al  Al4       1.0  0.18500  0.37000  0.55500  1.0000
  Al  Al5       1.0  0.95000  0.90000  0.85000  1.0000
  Al  Al6       1.0  0.31800  0.63600  0.95400  1.0000
  Gd  Gd1       1.0  0.43400  0.86800  0.30100  1.0000
  Gd  Gd2       1.0  0.56600  0.13300  0.69900  1.0000
  Pt  Pt1       1.0  0.00000  0.00000  0.00000  1.0000
  Si  Si1       1.0  0.73300  0.46700  0.20000  1.0000
  Si  Si2       1.0  0.13500  0.27000  0.40500  1.0000
  Si  Si3       1.0  0.86500  0.73000  0.59500  1.0000
  Si  Si4       1.0  0.26700  0.53300  0.80000  1.0000
