data_image0
_chemical_formula_structural       Bi6In10S24
_chemical_formula_sum              "Bi6 In10 S24"
_cell_length_a       3.91739
_cell_length_b       14.5076
_cell_length_c       16.8369
_cell_angle_alpha    90.4845
_cell_angle_beta     96.6805
_cell_angle_gamma    90

_space_group_name_H-M_alt    "P 1"
_space_group_IT_number       1

loop_
  _space_group_symop_operation_xyz
  'x, y, z'

loop_
  _atom_site_type_symbol
  _atom_site_label
  _atom_site_symmetry_multiplicity
  _atom_site_fract_x
  _atom_site_fract_y
  _atom_site_fract_z
  _atom_site_occupancy
  Bi  Bi1       1.0  0.55300  0.21100  0.10600  1.0000
  Bi  Bi2       1.0  0.13400  0.98500  0.26800  1.0000
  Bi  Bi3       1.0  0.67900  0.73200  0.35800  1.0000
  Bi  Bi4       1.0  0.32100  0.26800  0.64200  1.0000
  Bi  Bi5       1.0  0.86600  0.01540  0.73200  1.0000
  Bi  Bi6       1.0  0.44700  0.78900  0.89400  1.0000
  In  In1       1.0  0.00000  0.00000  0.00000  1.0000
  In  In2       1.0  0.00000  0.50000  0.00000  1.0000
  In  In3       1.0  0.07090  0.72200  0.14200  1.0000
  In  In4       1.0  0.59800  0.49600  0.19600  1.0000
  In  In5       1.0  0.67400  0.21900  0.34700  1.0000
  In  In6       1.0  0.21700  0.41700  0.43400  1.0000
  In  In7       1.0  0.78300  0.58300  0.56600  1.0000
  In  In8       1.0  0.32600  0.78100  0.65300  1.0000
  In  In9       1.0  0.40200  0.50400  0.80400  1.0000
  In  In10      1.0  0.92900  0.27800  0.85800  1.0000
  S   S1        1.0  0.00567  0.81800  0.01130  1.0000
  S   S2        1.0  0.53400  0.60600  0.06850  1.0000
  S   S3        1.0  0.55300  0.02750  0.10600  1.0000
  S   S4        1.0  0.06230  0.40100  0.12500  1.0000
  S   S5        1.0  0.60400  0.81300  0.20800  1.0000
  S   S6        1.0  0.11400  0.18200  0.22900  1.0000
  S   S7        1.0  0.12600  0.60500  0.25300  1.0000
  S   S8        1.0  0.66200  0.39800  0.32400  1.0000
  S   S9        1.0  0.68200  0.04000  0.36400  1.0000
  S   S10       1.0  0.19400  0.85100  0.38900  1.0000
  S   S11       1.0  0.22200  0.23800  0.44500  1.0000
  S   S12       1.0  0.22800  0.59100  0.45500  1.0000
  S   S13       1.0  0.77200  0.40900  0.54500  1.0000
  S   S14       1.0  0.77800  0.76200  0.55500  1.0000
  S   S15       1.0  0.80600  0.14900  0.61100  1.0000
  S   S16       1.0  0.31800  0.96000  0.63600  1.0000
  S   S17       1.0  0.33800  0.60200  0.67600  1.0000
  S   S18       1.0  0.87400  0.39500  0.74700  1.0000
  S   S19       1.0  0.88600  0.81800  0.77100  1.0000
  S   S20       1.0  0.39600  0.18700  0.79200  1.0000
  S   S21       1.0  0.93800  0.59900  0.87500  1.0000
  S   S22       1.0  0.44700  0.97200  0.89400  1.0000
  S   S23       1.0  0.46600  0.39400  0.93100  1.0000
  S   S24       1.0  0.99400  0.18200  0.98900  1.0000
