data_image0
_chemical_formula_structural       CuLi2O8W2
_chemical_formula_sum              "Cu1 Li2 O8 W2"
_cell_length_a       4.94319
_cell_length_b       5.48826
_cell_length_c       5.8557
_cell_angle_alpha    70.9952
_cell_angle_beta     86.1824
_cell_angle_gamma    65.5558

_space_group_name_H-M_alt    "P 1"
_space_group_IT_number       1

loop_
  _space_group_symop_operation_xyz
  'x, y, z'

loop_
  _atom_site_type_symbol
  _atom_site_label
  _atom_site_symmetry_multiplicity
  _atom_site_fract_x
  _atom_site_fract_y
  _atom_site_fract_z
  _atom_site_occupancy
  Cu  Cu1       1.0  0.50000  0.50000  0.00000  1.0000
  Li  Li1       1.0  0.94800  0.57100  0.23800  1.0000
  Li  Li2       1.0  0.05150  0.42900  0.76200  1.0000
  O   O1        1.0  0.28000  0.26800  0.08180  1.0000
  O   O2        1.0  0.23700  0.74700  0.17700  1.0000
  O   O3        1.0  0.84600  0.22400  0.34800  1.0000
  O   O4        1.0  0.67200  0.78200  0.44200  1.0000
  O   O5        1.0  0.32800  0.21800  0.55800  1.0000
  O   O6        1.0  0.15400  0.77600  0.65200  1.0000
  O   O7        1.0  0.76300  0.25300  0.82300  1.0000
  O   O8        1.0  0.72000  0.73200  0.91800  1.0000
  W   W1        1.0  0.27500  0.96200  0.33600  1.0000
  W   W2        1.0  0.72500  0.03790  0.66400  1.0000
