data_image0
_chemical_formula_structural       Na2O8PdSe2
_chemical_formula_sum              "Na2 O8 Pd1 Se2"
_cell_length_a       4.90457
_cell_length_b       5.94745
_cell_length_c       7.08861
_cell_angle_alpha    73.862
_cell_angle_beta     85.5589
_cell_angle_gamma    70.5066

_space_group_name_H-M_alt    "P 1"
_space_group_IT_number       1

loop_
  _space_group_symop_operation_xyz
  'x, y, z'

loop_
  _atom_site_type_symbol
  _atom_site_label
  _atom_site_symmetry_multiplicity
  _atom_site_fract_x
  _atom_site_fract_y
  _atom_site_fract_z
  _atom_site_occupancy
  Na  Na1       1.0  0.20000  0.73300  0.18700  1.0000
  Na  Na2       1.0  0.80000  0.26700  0.81300  1.0000
  O   O1        1.0  0.89200  0.13400  0.14400  1.0000
  O   O2        1.0  0.71100  0.61500  0.17300  1.0000
  O   O3        1.0  0.21500  0.31700  0.33800  1.0000
  O   O4        1.0  0.26200  0.78100  0.49600  1.0000
  O   O5        1.0  0.73800  0.21900  0.50400  1.0000
  O   O6        1.0  0.78500  0.68300  0.66200  1.0000
  O   O7        1.0  0.28900  0.38500  0.82700  1.0000
  O   O8        1.0  0.10800  0.86600  0.85600  1.0000
  Pd  Pd1       1.0  0.50000  0.00000  0.50000  1.0000
  Se  Se1       1.0  0.88100  0.32100  0.28100  1.0000
  Se  Se2       1.0  0.11900  0.67900  0.71900  1.0000
