data_image0
_chemical_formula_structural       Cr4Se24Tb12
_chemical_formula_sum              "Cr4 Se24 Tb12"
_cell_length_a       13.9568
_cell_length_b       16.7646
_cell_length_c       3.94747
_cell_angle_alpha    90
_cell_angle_beta     90
_cell_angle_gamma    90

_space_group_name_H-M_alt    "P 1"
_space_group_IT_number       1

loop_
  _space_group_symop_operation_xyz
  'x, y, z'

loop_
  _atom_site_type_symbol
  _atom_site_label
  _atom_site_symmetry_multiplicity
  _atom_site_fract_x
  _atom_site_fract_y
  _atom_site_fract_z
  _atom_site_occupancy
  Cr  Cr1       1.0  0.00000  0.00000  0.00000  1.0000
  Cr  Cr2       1.0  0.00000  0.50000  0.00000  1.0000
  Cr  Cr3       1.0  0.50000  0.00000  0.50000  1.0000
  Cr  Cr4       1.0  0.50000  0.50000  0.50000  1.0000
  Se  Se1       1.0  0.52400  0.09750  0.00000  1.0000
  Se  Se2       1.0  0.12100  0.10800  0.00000  1.0000
  Se  Se3       1.0  0.89700  0.24400  0.00000  1.0000
  Se  Se4       1.0  0.19000  0.29000  0.00000  1.0000
  Se  Se5       1.0  0.42000  0.42300  0.00000  1.0000
  Se  Se6       1.0  0.81900  0.48000  0.00000  1.0000
  Se  Se7       1.0  0.18100  0.52000  0.00000  1.0000
  Se  Se8       1.0  0.58000  0.57700  0.00000  1.0000
  Se  Se9       1.0  0.81000  0.71000  0.00000  1.0000
  Se  Se10      1.0  0.10300  0.75600  0.00000  1.0000
  Se  Se11      1.0  0.87900  0.89200  0.00000  1.0000
  Se  Se12      1.0  0.47600  0.90300  0.00000  1.0000
  Se  Se13      1.0  0.31900  0.02040  0.50000  1.0000
  Se  Se14      1.0  0.92000  0.07680  0.50000  1.0000
  Se  Se15      1.0  0.69000  0.21000  0.50000  1.0000
  Se  Se16      1.0  0.39700  0.25600  0.50000  1.0000
  Se  Se17      1.0  0.62100  0.39200  0.50000  1.0000
  Se  Se18      1.0  0.02370  0.40300  0.50000  1.0000
  Se  Se19      1.0  0.97600  0.59700  0.50000  1.0000
  Se  Se20      1.0  0.37900  0.60800  0.50000  1.0000
  Se  Se21      1.0  0.60300  0.74400  0.50000  1.0000
  Se  Se22      1.0  0.31000  0.79000  0.50000  1.0000
  Se  Se23      1.0  0.08030  0.92300  0.50000  1.0000
  Se  Se24      1.0  0.68100  0.98000  0.50000  1.0000
  Tb  Tb1       1.0  0.75800  0.09610  0.00000  1.0000
  Tb  Tb2       1.0  0.32000  0.14800  0.00000  1.0000
  Tb  Tb3       1.0  0.55200  0.27800  0.00000  1.0000
  Tb  Tb4       1.0  0.44800  0.72200  0.00000  1.0000
  Tb  Tb5       1.0  0.68000  0.85200  0.00000  1.0000
  Tb  Tb6       1.0  0.24200  0.90400  0.00000  1.0000
  Tb  Tb7       1.0  0.05180  0.22200  0.50000  1.0000
  Tb  Tb8       1.0  0.82000  0.35200  0.50000  1.0000
  Tb  Tb9       1.0  0.25800  0.40400  0.50000  1.0000
  Tb  Tb10      1.0  0.74200  0.59600  0.50000  1.0000
  Tb  Tb11      1.0  0.18000  0.64800  0.50000  1.0000
  Tb  Tb12      1.0  0.94800  0.77800  0.50000  1.0000
