data_image0
_chemical_formula_structural       BaNi2O8V2
_chemical_formula_sum              "Ba1 Ni2 O8 V2"
_cell_length_a       5.01638
_cell_length_b       5.01638
_cell_length_c       7.95179
_cell_angle_alpha    71.6135
_cell_angle_beta     108.386
_cell_angle_gamma    120

_space_group_name_H-M_alt    "P 1"
_space_group_IT_number       1

loop_
  _space_group_symop_operation_xyz
  'x, y, z'

loop_
  _atom_site_type_symbol
  _atom_site_label
  _atom_site_symmetry_multiplicity
  _atom_site_fract_x
  _atom_site_fract_y
  _atom_site_fract_z
  _atom_site_occupancy
  Ba  Ba1       1.0  0.00000  0.00000  0.00000  1.0000
  Ni  Ni1       1.0  0.83000  0.17000  0.49000  1.0000
  Ni  Ni2       1.0  0.17000  0.83000  0.51000  1.0000
  O   O1        1.0  0.34900  0.65100  0.04590  1.0000
  O   O2        1.0  0.11700  0.56500  0.34100  1.0000
  O   O3        1.0  0.43500  0.21200  0.34100  1.0000
  O   O4        1.0  0.78800  0.88300  0.34100  1.0000
  O   O5        1.0  0.21200  0.11700  0.65900  1.0000
  O   O6        1.0  0.56500  0.78800  0.65900  1.0000
  O   O7        1.0  0.88300  0.43500  0.65900  1.0000
  O   O8        1.0  0.65100  0.34900  0.95400  1.0000
  V   V1        1.0  0.42400  0.57600  0.27300  1.0000
  V   V2        1.0  0.57600  0.42400  0.72700  1.0000
