data_image0
_chemical_formula_structural       Cr4Se24Sm12
_chemical_formula_sum              "Cr4 Se24 Sm12"
_cell_length_a       14.1347
_cell_length_b       16.8881
_cell_length_c       4.00978
_cell_angle_alpha    90
_cell_angle_beta     90
_cell_angle_gamma    90

_space_group_name_H-M_alt    "P 1"
_space_group_IT_number       1

loop_
  _space_group_symop_operation_xyz
  'x, y, z'

loop_
  _atom_site_type_symbol
  _atom_site_label
  _atom_site_symmetry_multiplicity
  _atom_site_fract_x
  _atom_site_fract_y
  _atom_site_fract_z
  _atom_site_occupancy
  Cr  Cr1       1.0  0.00000  0.00000  0.00000  1.0000
  Cr  Cr2       1.0  0.00000  0.50000  0.00000  1.0000
  Cr  Cr3       1.0  0.50000  0.00000  0.50000  1.0000
  Cr  Cr4       1.0  0.50000  0.50000  0.50000  1.0000
  Se  Se1       1.0  0.52500  0.09640  0.00000  1.0000
  Se  Se2       1.0  0.12300  0.10500  0.00000  1.0000
  Se  Se3       1.0  0.89900  0.24300  0.00000  1.0000
  Se  Se4       1.0  0.19100  0.29000  0.00000  1.0000
  Se  Se5       1.0  0.42200  0.42500  0.00000  1.0000
  Se  Se6       1.0  0.82200  0.48000  0.00000  1.0000
  Se  Se7       1.0  0.17800  0.52000  0.00000  1.0000
  Se  Se8       1.0  0.57800  0.57500  0.00000  1.0000
  Se  Se9       1.0  0.80900  0.71000  0.00000  1.0000
  Se  Se10      1.0  0.10100  0.75700  0.00000  1.0000
  Se  Se11      1.0  0.87700  0.89500  0.00000  1.0000
  Se  Se12      1.0  0.47500  0.90400  0.00000  1.0000
  Se  Se13      1.0  0.32200  0.02030  0.50000  1.0000
  Se  Se14      1.0  0.92200  0.07540  0.50000  1.0000
  Se  Se15      1.0  0.69100  0.21000  0.50000  1.0000
  Se  Se16      1.0  0.39900  0.25700  0.50000  1.0000
  Se  Se17      1.0  0.62300  0.39500  0.50000  1.0000
  Se  Se18      1.0  0.02480  0.40400  0.50000  1.0000
  Se  Se19      1.0  0.97500  0.59600  0.50000  1.0000
  Se  Se20      1.0  0.37700  0.60500  0.50000  1.0000
  Se  Se21      1.0  0.60100  0.74300  0.50000  1.0000
  Se  Se22      1.0  0.30900  0.79000  0.50000  1.0000
  Se  Se23      1.0  0.07850  0.92500  0.50000  1.0000
  Se  Se24      1.0  0.67800  0.98000  0.50000  1.0000
  Sm  Sm1       1.0  0.75900  0.09480  0.00000  1.0000
  Sm  Sm2       1.0  0.32100  0.14900  0.00000  1.0000
  Sm  Sm3       1.0  0.55400  0.27900  0.00000  1.0000
  Sm  Sm4       1.0  0.44600  0.72100  0.00000  1.0000
  Sm  Sm5       1.0  0.67900  0.85100  0.00000  1.0000
  Sm  Sm6       1.0  0.24100  0.90500  0.00000  1.0000
  Sm  Sm7       1.0  0.05360  0.22100  0.50000  1.0000
  Sm  Sm8       1.0  0.82100  0.35100  0.50000  1.0000
  Sm  Sm9       1.0  0.25900  0.40500  0.50000  1.0000
  Sm  Sm10      1.0  0.74100  0.59500  0.50000  1.0000
  Sm  Sm11      1.0  0.17900  0.64900  0.50000  1.0000
  Sm  Sm12      1.0  0.94600  0.77900  0.50000  1.0000
