data_image0
_chemical_formula_structural       H8O24S4Th4
_chemical_formula_sum              "H8 O24 S4 Th4"
_cell_length_a       11.5305
_cell_length_b       6.06333
_cell_length_c       6.98445
_cell_angle_alpha    90
_cell_angle_beta     90
_cell_angle_gamma    90

_space_group_name_H-M_alt    "P 1"
_space_group_IT_number       1

loop_
  _space_group_symop_operation_xyz
  'x, y, z'

loop_
  _atom_site_type_symbol
  _atom_site_label
  _atom_site_symmetry_multiplicity
  _atom_site_fract_x
  _atom_site_fract_y
  _atom_site_fract_z
  _atom_site_occupancy
  H   H1        1.0  0.83700  0.00845  0.18000  1.0000
  H   H2        1.0  0.83700  0.49200  0.18000  1.0000
  H   H3        1.0  0.33700  0.00845  0.32000  1.0000
  H   H4        1.0  0.33700  0.49200  0.32000  1.0000
  H   H5        1.0  0.66300  0.50800  0.68000  1.0000
  H   H6        1.0  0.66300  0.99200  0.68000  1.0000
  H   H7        1.0  0.16300  0.50800  0.82000  1.0000
  H   H8        1.0  0.16300  0.99200  0.82000  1.0000
  O   O1        1.0  0.48100  0.25000  0.01900  1.0000
  O   O2        1.0  0.27800  0.25000  0.10500  1.0000
  O   O3        1.0  0.91000  0.50300  0.11000  1.0000
  O   O4        1.0  0.91000  0.99700  0.11000  1.0000
  O   O5        1.0  0.66000  0.55100  0.17500  1.0000
  O   O6        1.0  0.66000  0.94900  0.17500  1.0000
  O   O7        1.0  0.16000  0.55100  0.32500  1.0000
  O   O8        1.0  0.16000  0.94900  0.32500  1.0000
  O   O9        1.0  0.41000  0.50300  0.39000  1.0000
  O   O10       1.0  0.41000  0.99700  0.39000  1.0000
  O   O11       1.0  0.77800  0.25000  0.39500  1.0000
  O   O12       1.0  0.98100  0.25000  0.48100  1.0000
  O   O13       1.0  0.01910  0.75000  0.51900  1.0000
  O   O14       1.0  0.22200  0.75000  0.60500  1.0000
  O   O15       1.0  0.59000  0.00300  0.61000  1.0000
  O   O16       1.0  0.59000  0.49700  0.61000  1.0000
  O   O17       1.0  0.84000  0.05150  0.67500  1.0000
  O   O18       1.0  0.84000  0.44900  0.67500  1.0000
  O   O19       1.0  0.34000  0.05150  0.82500  1.0000
  O   O20       1.0  0.34000  0.44900  0.82500  1.0000
  O   O21       1.0  0.08950  0.00300  0.89000  1.0000
  O   O22       1.0  0.08950  0.49700  0.89000  1.0000
  O   O23       1.0  0.72200  0.75000  0.89500  1.0000
  O   O24       1.0  0.51900  0.75000  0.98100  1.0000
  S   S1        1.0  0.63800  0.75000  0.05650  1.0000
  S   S2        1.0  0.13800  0.75000  0.44400  1.0000
  S   S3        1.0  0.86200  0.25000  0.55600  1.0000
  S   S4        1.0  0.36200  0.25000  0.94400  1.0000
  Th  Th1       1.0  0.06380  0.25000  0.15000  1.0000
  Th  Th2       1.0  0.56400  0.25000  0.35000  1.0000
  Th  Th3       1.0  0.43600  0.75000  0.65000  1.0000
  Th  Th4       1.0  0.93600  0.75000  0.85000  1.0000
