data_image0
_chemical_formula_structural       Gd4O4Se4Ti
_chemical_formula_sum              "Gd4 O4 Se4 Ti1"
_cell_length_a       3.74677
_cell_length_b       8.13054
_cell_length_c       9.40203
_cell_angle_alpha    107.774
_cell_angle_beta     101.493
_cell_angle_gamma    103.321

_space_group_name_H-M_alt    "P 1"
_space_group_IT_number       1

loop_
  _space_group_symop_operation_xyz
  'x, y, z'

loop_
  _atom_site_type_symbol
  _atom_site_label
  _atom_site_symmetry_multiplicity
  _atom_site_fract_x
  _atom_site_fract_y
  _atom_site_fract_z
  _atom_site_occupancy
  Gd  Gd1       1.0  0.10300  0.88000  0.32600  1.0000
  Gd  Gd2       1.0  0.80700  0.28200  0.33100  1.0000
  Gd  Gd3       1.0  0.19300  0.71800  0.66900  1.0000
  Gd  Gd4       1.0  0.89700  0.12000  0.67400  1.0000
  O   O1        1.0  0.17000  0.11800  0.22300  1.0000
  O   O2        1.0  0.72800  0.04490  0.41100  1.0000
  O   O3        1.0  0.27200  0.95500  0.58900  1.0000
  O   O4        1.0  0.83000  0.88200  0.77700  1.0000
  Se  Se1       1.0  0.39400  0.77200  0.01560  1.0000
  Se  Se2       1.0  0.48300  0.59900  0.36700  1.0000
  Se  Se3       1.0  0.51700  0.40100  0.63300  1.0000
  Se  Se4       1.0  0.60600  0.22800  0.98400  1.0000
  Ti  Ti1       1.0  0.00000  0.00000  0.00000  1.0000
