data_image0
_chemical_formula_structural       BaBi4Br2O6
_chemical_formula_sum              "Ba1 Bi4 Br2 O6"
_cell_length_a       4.00615
_cell_length_b       4.00615
_cell_length_c       16.2472
_cell_angle_alpha    97.0818
_cell_angle_beta     97.0818
_cell_angle_gamma    90

_space_group_name_H-M_alt    "P 1"
_space_group_IT_number       1

loop_
  _space_group_symop_operation_xyz
  'x, y, z'

loop_
  _atom_site_type_symbol
  _atom_site_label
  _atom_site_symmetry_multiplicity
  _atom_site_fract_x
  _atom_site_fract_y
  _atom_site_fract_z
  _atom_site_occupancy
  Ba  Ba1       1.0  0.50000  0.50000  0.00000  1.0000
  Bi  Bi1       1.0  0.08710  0.08710  0.17400  1.0000
  Bi  Bi2       1.0  0.21200  0.21200  0.42300  1.0000
  Bi  Bi3       1.0  0.78800  0.78800  0.57700  1.0000
  Bi  Bi4       1.0  0.91300  0.91300  0.82600  1.0000
  Br  Br1       1.0  0.66300  0.66300  0.32600  1.0000
  Br  Br2       1.0  0.33700  0.33700  0.67400  1.0000
  O   O1        1.0  0.55800  0.05770  0.11500  1.0000
  O   O2        1.0  0.05770  0.55800  0.11500  1.0000
  O   O3        1.0  0.75000  0.25000  0.50000  1.0000
  O   O4        1.0  0.25000  0.75000  0.50000  1.0000
  O   O5        1.0  0.94200  0.44200  0.88500  1.0000
  O   O6        1.0  0.44200  0.94200  0.88500  1.0000
