data_image0
_chemical_formula_structural       Be12Pt
_chemical_formula_sum              "Be12 Pt1"
_cell_length_a       4.18802
_cell_length_b       5.53048
_cell_length_c       5.53048
_cell_angle_alpha    98.2424
_cell_angle_beta     67.7511
_cell_angle_gamma    112.249

_space_group_name_H-M_alt    "P 1"
_space_group_IT_number       1

loop_
  _space_group_symop_operation_xyz
  'x, y, z'

loop_
  _atom_site_type_symbol
  _atom_site_label
  _atom_site_symmetry_multiplicity
  _atom_site_fract_x
  _atom_site_fract_y
  _atom_site_fract_z
  _atom_site_occupancy
  Be  Be1       1.0  0.00000  0.50000  0.00000  1.0000
  Be  Be2       1.0  0.50000  0.50000  0.00000  1.0000
  Be  Be3       1.0  0.27500  0.77500  0.22500  1.0000
  Be  Be4       1.0  0.50000  0.22500  0.22500  1.0000
  Be  Be5       1.0  0.65100  0.65100  0.34900  1.0000
  Be  Be6       1.0  0.00000  0.34900  0.34900  1.0000
  Be  Be7       1.0  0.00000  0.00000  0.50000  1.0000
  Be  Be8       1.0  0.50000  0.00000  0.50000  1.0000
  Be  Be9       1.0  0.00000  0.65100  0.65100  1.0000
  Be  Be10      1.0  0.34900  0.34900  0.65100  1.0000
  Be  Be11      1.0  0.50000  0.77500  0.77500  1.0000
  Be  Be12      1.0  0.72500  0.22500  0.77500  1.0000
  Pt  Pt1       1.0  0.00000  0.00000  0.00000  1.0000
