data_image0
_chemical_formula_structural       Hf12P12Pd16
_chemical_formula_sum              "Hf12 P12 Pd16"
_cell_length_a       16.4604
_cell_length_b       3.80578
_cell_length_c       10.0525
_cell_angle_alpha    90
_cell_angle_beta     90
_cell_angle_gamma    90

_space_group_name_H-M_alt    "P 1"
_space_group_IT_number       1

loop_
  _space_group_symop_operation_xyz
  'x, y, z'

loop_
  _atom_site_type_symbol
  _atom_site_label
  _atom_site_symmetry_multiplicity
  _atom_site_fract_x
  _atom_site_fract_y
  _atom_site_fract_z
  _atom_site_occupancy
  Hf  Hf1       1.0  0.26000  0.25000  0.02130  1.0000
  Hf  Hf2       1.0  0.93900  0.75000  0.08800  1.0000
  Hf  Hf3       1.0  0.54800  0.75000  0.11800  1.0000
  Hf  Hf4       1.0  0.04780  0.75000  0.38200  1.0000
  Hf  Hf5       1.0  0.43900  0.75000  0.41200  1.0000
  Hf  Hf6       1.0  0.76000  0.25000  0.47900  1.0000
  Hf  Hf7       1.0  0.24000  0.75000  0.52100  1.0000
  Hf  Hf8       1.0  0.56100  0.25000  0.58800  1.0000
  Hf  Hf9       1.0  0.95200  0.25000  0.61800  1.0000
  Hf  Hf10      1.0  0.45200  0.25000  0.88200  1.0000
  Hf  Hf11      1.0  0.06100  0.25000  0.91200  1.0000
  Hf  Hf12      1.0  0.74000  0.75000  0.97900  1.0000
  P   P1        1.0  0.38600  0.75000  0.03330  1.0000
  P   P2        1.0  0.82300  0.25000  0.11000  1.0000
  P   P3        1.0  0.04320  0.25000  0.17900  1.0000
  P   P4        1.0  0.54300  0.25000  0.32100  1.0000
  P   P5        1.0  0.32300  0.25000  0.39000  1.0000
  P   P6        1.0  0.88600  0.75000  0.46700  1.0000
  P   P7        1.0  0.11400  0.25000  0.53300  1.0000
  P   P8        1.0  0.67700  0.75000  0.61000  1.0000
  P   P9        1.0  0.45700  0.75000  0.67900  1.0000
  P   P10       1.0  0.95700  0.75000  0.82100  1.0000
  P   P11       1.0  0.17700  0.75000  0.89000  1.0000
  P   P12       1.0  0.61400  0.25000  0.96700  1.0000
  Pd  Pd1       1.0  0.12800  0.75000  0.11700  1.0000
  Pd  Pd2       1.0  0.42000  0.25000  0.18100  1.0000
  Pd  Pd3       1.0  0.67600  0.25000  0.18900  1.0000
  Pd  Pd4       1.0  0.29400  0.75000  0.23200  1.0000
  Pd  Pd5       1.0  0.79400  0.75000  0.26800  1.0000
  Pd  Pd6       1.0  0.17600  0.25000  0.31100  1.0000
  Pd  Pd7       1.0  0.92000  0.25000  0.31900  1.0000
  Pd  Pd8       1.0  0.62800  0.75000  0.38300  1.0000
  Pd  Pd9       1.0  0.37200  0.25000  0.61700  1.0000
  Pd  Pd10      1.0  0.08030  0.75000  0.68100  1.0000
  Pd  Pd11      1.0  0.82400  0.75000  0.68900  1.0000
  Pd  Pd12      1.0  0.20600  0.25000  0.73200  1.0000
  Pd  Pd13      1.0  0.70600  0.25000  0.76800  1.0000
  Pd  Pd14      1.0  0.32400  0.75000  0.81100  1.0000
  Pd  Pd15      1.0  0.58000  0.75000  0.81900  1.0000
  Pd  Pd16      1.0  0.87200  0.25000  0.88300  1.0000
