data_image0
_chemical_formula_structural       P12Pd16Zr12
_chemical_formula_sum              "P12 Pd16 Zr12"
_cell_length_a       16.5253
_cell_length_b       3.85455
_cell_length_c       10.0735
_cell_angle_alpha    90
_cell_angle_beta     90
_cell_angle_gamma    90

_space_group_name_H-M_alt    "P 1"
_space_group_IT_number       1

loop_
  _space_group_symop_operation_xyz
  'x, y, z'

loop_
  _atom_site_type_symbol
  _atom_site_label
  _atom_site_symmetry_multiplicity
  _atom_site_fract_x
  _atom_site_fract_y
  _atom_site_fract_z
  _atom_site_occupancy
  P   P1        1.0  0.38600  0.75000  0.03710  1.0000
  P   P2        1.0  0.82300  0.25000  0.11100  1.0000
  P   P3        1.0  0.04510  0.25000  0.18100  1.0000
  P   P4        1.0  0.54500  0.25000  0.31900  1.0000
  P   P5        1.0  0.32300  0.25000  0.38900  1.0000
  P   P6        1.0  0.88600  0.75000  0.46300  1.0000
  P   P7        1.0  0.11400  0.25000  0.53700  1.0000
  P   P8        1.0  0.67700  0.75000  0.61100  1.0000
  P   P9        1.0  0.45500  0.75000  0.68100  1.0000
  P   P10       1.0  0.95500  0.75000  0.81900  1.0000
  P   P11       1.0  0.17700  0.75000  0.88900  1.0000
  P   P12       1.0  0.61400  0.25000  0.96300  1.0000
  Pd  Pd1       1.0  0.12800  0.75000  0.11700  1.0000
  Pd  Pd2       1.0  0.41900  0.25000  0.18300  1.0000
  Pd  Pd3       1.0  0.67600  0.25000  0.18900  1.0000
  Pd  Pd4       1.0  0.29400  0.75000  0.23600  1.0000
  Pd  Pd5       1.0  0.79400  0.75000  0.26400  1.0000
  Pd  Pd6       1.0  0.17600  0.25000  0.31100  1.0000
  Pd  Pd7       1.0  0.91900  0.25000  0.31700  1.0000
  Pd  Pd8       1.0  0.62800  0.75000  0.38300  1.0000
  Pd  Pd9       1.0  0.37200  0.25000  0.61700  1.0000
  Pd  Pd10      1.0  0.08130  0.75000  0.68300  1.0000
  Pd  Pd11      1.0  0.82400  0.75000  0.68900  1.0000
  Pd  Pd12      1.0  0.20600  0.25000  0.73600  1.0000
  Pd  Pd13      1.0  0.70600  0.25000  0.76400  1.0000
  Pd  Pd14      1.0  0.32400  0.75000  0.81100  1.0000
  Pd  Pd15      1.0  0.58100  0.75000  0.81700  1.0000
  Pd  Pd16      1.0  0.87200  0.25000  0.88300  1.0000
  Zr  Zr1       1.0  0.26100  0.25000  0.02310  1.0000
  Zr  Zr2       1.0  0.93900  0.75000  0.08900  1.0000
  Zr  Zr3       1.0  0.54800  0.75000  0.11700  1.0000
  Zr  Zr4       1.0  0.04820  0.75000  0.38300  1.0000
  Zr  Zr5       1.0  0.43900  0.75000  0.41100  1.0000
  Zr  Zr6       1.0  0.76100  0.25000  0.47700  1.0000
  Zr  Zr7       1.0  0.23900  0.75000  0.52300  1.0000
  Zr  Zr8       1.0  0.56100  0.25000  0.58900  1.0000
  Zr  Zr9       1.0  0.95200  0.25000  0.61700  1.0000
  Zr  Zr10      1.0  0.45200  0.25000  0.88300  1.0000
  Zr  Zr11      1.0  0.06060  0.25000  0.91100  1.0000
  Zr  Zr12      1.0  0.73900  0.75000  0.97700  1.0000
