data_image0
_chemical_formula_structural       Ba3Nb2O8
_chemical_formula_sum              "Ba3 Nb2 O8"
_cell_length_a       6.03562
_cell_length_b       6.03577
_cell_length_c       7.94223
_cell_angle_alpha    112.332
_cell_angle_beta     112.333
_cell_angle_gamma    59.9992

_space_group_name_H-M_alt    "P 1"
_space_group_IT_number       1

loop_
  _space_group_symop_operation_xyz
  'x, y, z'

loop_
  _atom_site_type_symbol
  _atom_site_label
  _atom_site_symmetry_multiplicity
  _atom_site_fract_x
  _atom_site_fract_y
  _atom_site_fract_z
  _atom_site_occupancy
  Ba  Ba1       1.0  0.00000  0.00000  0.00000  1.0000
  Ba  Ba2       1.0  0.80100  0.80100  0.40300  1.0000
  Ba  Ba3       1.0  0.19900  0.19900  0.59700  1.0000
  Nb  Nb1       1.0  0.40500  0.40500  0.21600  1.0000
  Nb  Nb2       1.0  0.59500  0.59500  0.78400  1.0000
  O   O1        1.0  0.68100  0.68200  0.04450  1.0000
  O   O2        1.0  0.26600  0.26600  0.30500  1.0000
  O   O3        1.0  0.26600  0.77200  0.30500  1.0000
  O   O4        1.0  0.77200  0.26600  0.30500  1.0000
  O   O5        1.0  0.22800  0.73400  0.69500  1.0000
  O   O6        1.0  0.73400  0.22800  0.69500  1.0000
  O   O7        1.0  0.73400  0.73400  0.69500  1.0000
  O   O8        1.0  0.31900  0.31800  0.95600  1.0000
