data_image0
_chemical_formula_structural       Al6AuDy2Si4
_chemical_formula_sum              "Al6 Au1 Dy2 Si4"
_cell_length_a       4.20501
_cell_length_b       4.20488
_cell_length_c       16.9539
_cell_angle_alpha    82.88
_cell_angle_beta     97.1238
_cell_angle_gamma    120.001

_space_group_name_H-M_alt    "P 1"
_space_group_IT_number       1

loop_
  _space_group_symop_operation_xyz
  'x, y, z'

loop_
  _atom_site_type_symbol
  _atom_site_label
  _atom_site_symmetry_multiplicity
  _atom_site_fract_x
  _atom_site_fract_y
  _atom_site_fract_z
  _atom_site_occupancy
  Al  Al1       1.0  0.68300  0.31700  0.05000  1.0000
  Al  Al2       1.0  0.05230  0.94800  0.15700  1.0000
  Al  Al3       1.0  0.81400  0.18600  0.44300  1.0000
  Al  Al4       1.0  0.18600  0.81400  0.55700  1.0000
  Al  Al5       1.0  0.94800  0.05230  0.84300  1.0000
  Al  Al6       1.0  0.31700  0.68300  0.95000  1.0000
  Au  Au1       1.0  0.00000  0.00000  0.00000  1.0000
  Dy  Dy1       1.0  0.43400  0.56600  0.30300  1.0000
  Dy  Dy2       1.0  0.56600  0.43400  0.69700  1.0000
  Si  Si1       1.0  0.73400  0.26600  0.20300  1.0000
  Si  Si2       1.0  0.13500  0.86500  0.40500  1.0000
  Si  Si3       1.0  0.86500  0.13500  0.59500  1.0000
  Si  Si4       1.0  0.26600  0.73400  0.79700  1.0000
