data_image0
_chemical_formula_structural       B12S
_chemical_formula_sum              "B12 S1"
_cell_length_a       5.1066
_cell_length_b       5.1066
_cell_length_c       5.1066
_cell_angle_alpha    69.2412
_cell_angle_beta     110.759
_cell_angle_gamma    110.759

_space_group_name_H-M_alt    "P 1"
_space_group_IT_number       1

loop_
  _space_group_symop_operation_xyz
  'x, y, z'

loop_
  _atom_site_type_symbol
  _atom_site_label
  _atom_site_symmetry_multiplicity
  _atom_site_fract_x
  _atom_site_fract_y
  _atom_site_fract_z
  _atom_site_occupancy
  B   B1        1.0  0.67000  0.00987  0.00987  1.0000
  B   B2        1.0  0.99000  0.33000  0.00987  1.0000
  B   B3        1.0  0.81100  0.71200  0.18900  1.0000
  B   B4        1.0  0.28800  0.18900  0.18900  1.0000
  B   B5        1.0  0.18900  0.81100  0.28800  1.0000
  B   B6        1.0  0.99000  0.00987  0.33000  1.0000
  B   B7        1.0  0.00987  0.99000  0.67000  1.0000
  B   B8        1.0  0.81100  0.18900  0.71200  1.0000
  B   B9        1.0  0.71200  0.81100  0.81100  1.0000
  B   B10       1.0  0.18900  0.28800  0.81100  1.0000
  B   B11       1.0  0.00987  0.67000  0.99000  1.0000
  B   B12       1.0  0.33000  0.99000  0.99000  1.0000
  S   S1        1.0  0.50000  0.50000  0.50000  1.0000
