data_image0
_chemical_formula_structural       Be12Nb
_chemical_formula_sum              "Be12 Nb1"
_cell_length_a       4.19613
_cell_length_b       5.58842
_cell_length_c       5.58842
_cell_angle_alpha    98.1028
_cell_angle_beta     67.949
_cell_angle_gamma    112.051

_space_group_name_H-M_alt    "P 1"
_space_group_IT_number       1

loop_
  _space_group_symop_operation_xyz
  'x, y, z'

loop_
  _atom_site_type_symbol
  _atom_site_label
  _atom_site_symmetry_multiplicity
  _atom_site_fract_x
  _atom_site_fract_y
  _atom_site_fract_z
  _atom_site_occupancy
  Be  Be1       1.0  0.00000  0.50000  0.00000  1.0000
  Be  Be2       1.0  0.50000  0.50000  0.00000  1.0000
  Be  Be3       1.0  0.28200  0.78200  0.21800  1.0000
  Be  Be4       1.0  0.50000  0.21800  0.21800  1.0000
  Be  Be5       1.0  0.00000  0.35200  0.35200  1.0000
  Be  Be6       1.0  0.64800  0.64800  0.35200  1.0000
  Be  Be7       1.0  0.00000  0.00000  0.50000  1.0000
  Be  Be8       1.0  0.50000  0.00000  0.50000  1.0000
  Be  Be9       1.0  0.35200  0.35200  0.64800  1.0000
  Be  Be10      1.0  0.00000  0.64800  0.64800  1.0000
  Be  Be11      1.0  0.71800  0.21800  0.78200  1.0000
  Be  Be12      1.0  0.50000  0.78200  0.78200  1.0000
  Nb  Nb1       1.0  0.00000  0.00000  0.00000  1.0000
