data_image0
_chemical_formula_structural       Ca2O8Pt3
_chemical_formula_sum              "Ca2 O8 Pt3"
_cell_length_a       6.24265
_cell_length_b       6.24265
_cell_length_c       6.2225
_cell_angle_alpha    59.8928
_cell_angle_beta     120.107
_cell_angle_gamma    120

_space_group_name_H-M_alt    "P 1"
_space_group_IT_number       1

loop_
  _space_group_symop_operation_xyz
  'x, y, z'

loop_
  _atom_site_type_symbol
  _atom_site_label
  _atom_site_symmetry_multiplicity
  _atom_site_fract_x
  _atom_site_fract_y
  _atom_site_fract_z
  _atom_site_occupancy
  Ca  Ca1       1.0  0.14500  0.85500  0.43500  1.0000
  Ca  Ca2       1.0  0.85500  0.14500  0.56500  1.0000
  O   O1        1.0  0.39700  0.60300  0.19200  1.0000
  O   O2        1.0  0.43900  0.11100  0.21700  1.0000
  O   O3        1.0  0.88900  0.11100  0.21700  1.0000
  O   O4        1.0  0.88900  0.56100  0.21700  1.0000
  O   O5        1.0  0.11100  0.43900  0.78300  1.0000
  O   O6        1.0  0.11100  0.88900  0.78300  1.0000
  O   O7        1.0  0.56100  0.88900  0.78300  1.0000
  O   O8        1.0  0.60300  0.39700  0.80800  1.0000
  Pt  Pt1       1.0  0.50000  0.00000  0.00000  1.0000
  Pt  Pt2       1.0  0.00000  0.50000  0.00000  1.0000
  Pt  Pt3       1.0  0.50000  0.50000  0.00000  1.0000
