data_image0
_chemical_formula_structural       Al2O7Rb2Sb2
_chemical_formula_sum              "Al2 O7 Rb2 Sb2"
_cell_length_a       5.67805
_cell_length_b       5.67815
_cell_length_c       8.29158
_cell_angle_alpha    90
_cell_angle_beta     89.999
_cell_angle_gamma    120.001

_space_group_name_H-M_alt    "P 1"
_space_group_IT_number       1

loop_
  _space_group_symop_operation_xyz
  'x, y, z'

loop_
  _atom_site_type_symbol
  _atom_site_label
  _atom_site_symmetry_multiplicity
  _atom_site_fract_x
  _atom_site_fract_y
  _atom_site_fract_z
  _atom_site_occupancy
  Al  Al1       1.0  0.00001  0.00000  0.20600  1.0000
  Al  Al2       1.0  1.00000  1.00000  0.79400  1.0000
  O   O1        1.0  0.00000  0.00000  0.00000  1.0000
  O   O2        1.0  0.16800  0.83200  0.28400  1.0000
  O   O3        1.0  0.16800  0.33600  0.28400  1.0000
  O   O4        1.0  0.66400  0.83200  0.28500  1.0000
  O   O5        1.0  0.33600  0.16800  0.71500  1.0000
  O   O6        1.0  0.83200  0.16800  0.71600  1.0000
  O   O7        1.0  0.83200  0.66400  0.71600  1.0000
  Rb  Rb1       1.0  0.66700  0.33300  0.40700  1.0000
  Rb  Rb2       1.0  0.33300  0.66700  0.59300  1.0000
  Sb  Sb1       1.0  0.33300  0.66700  0.15100  1.0000
  Sb  Sb2       1.0  0.66700  0.33300  0.84900  1.0000
