data_image0
_chemical_formula_structural       GaSe8Ta4
_chemical_formula_sum              "Ga1 Se8 Ta4"
_cell_length_a       7.41935
_cell_length_b       7.41935
_cell_length_c       7.41935
_cell_angle_alpha    120
_cell_angle_beta     90
_cell_angle_gamma    120

_space_group_name_H-M_alt    "P 1"
_space_group_IT_number       1

loop_
  _space_group_symop_operation_xyz
  'x, y, z'

loop_
  _atom_site_type_symbol
  _atom_site_label
  _atom_site_symmetry_multiplicity
  _atom_site_fract_x
  _atom_site_fract_y
  _atom_site_fract_z
  _atom_site_occupancy
  Ga  Ga1       1.0  0.00000  0.00000  0.00000  1.0000
  Se  Se1       1.0  0.63600  0.27100  0.36400  1.0000
  Se  Se2       1.0  0.09280  0.72900  0.36400  1.0000
  Se  Se3       1.0  0.63600  0.72900  0.36400  1.0000
  Se  Se4       1.0  0.13600  0.27200  0.40700  1.0000
  Se  Se5       1.0  0.13600  0.27200  0.86400  1.0000
  Se  Se6       1.0  0.13600  0.72800  0.86400  1.0000
  Se  Se7       1.0  0.59300  0.72800  0.86400  1.0000
  Se  Se8       1.0  0.63600  0.27100  0.90700  1.0000
  Ta  Ta1       1.0  0.39800  0.79500  0.19300  1.0000
  Ta  Ta2       1.0  0.39800  0.20500  0.60200  1.0000
  Ta  Ta3       1.0  0.80700  0.20500  0.60200  1.0000
  Ta  Ta4       1.0  0.39800  0.79500  0.60200  1.0000
