data_image0
_chemical_formula_structural       Ba8Ca8Sn24
_chemical_formula_sum              "Ba8 Ca8 Sn24"
_cell_length_a       9.31332
_cell_length_b       9.31332
_cell_length_c       17.331
_cell_angle_alpha    90
_cell_angle_beta     90
_cell_angle_gamma    61.3194

_space_group_name_H-M_alt    "P 1"
_space_group_IT_number       1

loop_
  _space_group_symop_operation_xyz
  'x, y, z'

loop_
  _atom_site_type_symbol
  _atom_site_label
  _atom_site_symmetry_multiplicity
  _atom_site_fract_x
  _atom_site_fract_y
  _atom_site_fract_z
  _atom_site_occupancy
  Ba  Ba1       1.0  0.21600  0.21600  0.00000  1.0000
  Ba  Ba2       1.0  0.78400  0.78400  0.00000  1.0000
  Ba  Ba3       1.0  0.67600  0.32400  0.08610  1.0000
  Ba  Ba4       1.0  0.17600  0.82400  0.41400  1.0000
  Ba  Ba5       1.0  0.28400  0.28400  0.50000  1.0000
  Ba  Ba6       1.0  0.71600  0.71600  0.50000  1.0000
  Ba  Ba7       1.0  0.82400  0.17600  0.58600  1.0000
  Ba  Ba8       1.0  0.32400  0.67600  0.91400  1.0000
  Ca  Ca1       1.0  0.14400  0.12400  0.22800  1.0000
  Ca  Ca2       1.0  0.87600  0.85600  0.22800  1.0000
  Ca  Ca3       1.0  0.37600  0.35600  0.27200  1.0000
  Ca  Ca4       1.0  0.64400  0.62400  0.27200  1.0000
  Ca  Ca5       1.0  0.35600  0.37600  0.72800  1.0000
  Ca  Ca6       1.0  0.62400  0.64400  0.72800  1.0000
  Ca  Ca7       1.0  0.12400  0.14400  0.77200  1.0000
  Ca  Ca8       1.0  0.85600  0.87600  0.77200  1.0000
  Sn  Sn1       1.0  0.06500  0.93500  0.08500  1.0000
  Sn  Sn2       1.0  0.19800  0.56600  0.09190  1.0000
  Sn  Sn3       1.0  0.43400  0.80200  0.09190  1.0000
  Sn  Sn4       1.0  0.51200  0.04160  0.16400  1.0000
  Sn  Sn5       1.0  0.95800  0.48800  0.16400  1.0000
  Sn  Sn6       1.0  0.28000  0.72000  0.22000  1.0000
  Sn  Sn7       1.0  0.78000  0.22000  0.28000  1.0000
  Sn  Sn8       1.0  0.01200  0.54200  0.33600  1.0000
  Sn  Sn9       1.0  0.45800  0.98800  0.33600  1.0000
  Sn  Sn10      1.0  0.69800  0.06570  0.40800  1.0000
  Sn  Sn11      1.0  0.93400  0.30200  0.40800  1.0000
  Sn  Sn12      1.0  0.56500  0.43500  0.41500  1.0000
  Sn  Sn13      1.0  0.43500  0.56500  0.58500  1.0000
  Sn  Sn14      1.0  0.06570  0.69800  0.59200  1.0000
  Sn  Sn15      1.0  0.30200  0.93400  0.59200  1.0000
  Sn  Sn16      1.0  0.54200  0.01200  0.66400  1.0000
  Sn  Sn17      1.0  0.98800  0.45800  0.66400  1.0000
  Sn  Sn18      1.0  0.22000  0.78000  0.72000  1.0000
  Sn  Sn19      1.0  0.72000  0.28000  0.78000  1.0000
  Sn  Sn20      1.0  0.04160  0.51200  0.83600  1.0000
  Sn  Sn21      1.0  0.48800  0.95800  0.83600  1.0000
  Sn  Sn22      1.0  0.56600  0.19800  0.90800  1.0000
  Sn  Sn23      1.0  0.80200  0.43400  0.90800  1.0000
  Sn  Sn24      1.0  0.93500  0.06500  0.91500  1.0000
