data_image0
_chemical_formula_structural       BaBi4Cl2O6
_chemical_formula_sum              "Ba1 Bi4 Cl2 O6"
_cell_length_a       3.97308
_cell_length_b       3.97308
_cell_length_c       15.8893
_cell_angle_alpha    97.1821
_cell_angle_beta     97.1821
_cell_angle_gamma    90

_space_group_name_H-M_alt    "P 1"
_space_group_IT_number       1

loop_
  _space_group_symop_operation_xyz
  'x, y, z'

loop_
  _atom_site_type_symbol
  _atom_site_label
  _atom_site_symmetry_multiplicity
  _atom_site_fract_x
  _atom_site_fract_y
  _atom_site_fract_z
  _atom_site_occupancy
  Ba  Ba1       1.0  0.50000  0.50000  0.00000  1.0000
  Bi  Bi1       1.0  0.08990  0.08990  0.18000  1.0000
  Bi  Bi2       1.0  0.21000  0.21000  0.42100  1.0000
  Bi  Bi3       1.0  0.79000  0.79000  0.57900  1.0000
  Bi  Bi4       1.0  0.91000  0.91000  0.82000  1.0000
  Cl  Cl1       1.0  0.66700  0.66700  0.33400  1.0000
  Cl  Cl2       1.0  0.33300  0.33300  0.66600  1.0000
  O   O1        1.0  0.55900  0.05940  0.11900  1.0000
  O   O2        1.0  0.05940  0.55900  0.11900  1.0000
  O   O3        1.0  0.75000  0.25000  0.50000  1.0000
  O   O4        1.0  0.25000  0.75000  0.50000  1.0000
  O   O5        1.0  0.94100  0.44100  0.88100  1.0000
  O   O6        1.0  0.44100  0.94100  0.88100  1.0000
