data_image0
_chemical_formula_structural       Al2Cs2O7Sb2
_chemical_formula_sum              "Al2 Cs2 O7 Sb2"
_cell_length_a       5.72053
_cell_length_b       5.72051
_cell_length_c       8.80967
_cell_angle_alpha    90
_cell_angle_beta     89.9991
_cell_angle_gamma    120

_space_group_name_H-M_alt    "P 1"
_space_group_IT_number       1

loop_
  _space_group_symop_operation_xyz
  'x, y, z'

loop_
  _atom_site_type_symbol
  _atom_site_label
  _atom_site_symmetry_multiplicity
  _atom_site_fract_x
  _atom_site_fract_y
  _atom_site_fract_z
  _atom_site_occupancy
  Al  Al1       1.0  0.00001  0.00001  0.19300  1.0000
  Al  Al2       1.0  0.00000  0.00000  0.80700  1.0000
  Cs  Cs1       1.0  0.66700  0.33300  0.40400  1.0000
  Cs  Cs2       1.0  0.33300  0.66700  0.59600  1.0000
  O   O1        1.0  0.00000  0.00000  0.00000  1.0000
  O   O2        1.0  0.16700  0.33500  0.26800  1.0000
  O   O3        1.0  0.16700  0.83300  0.26800  1.0000
  O   O4        1.0  0.66500  0.83300  0.26800  1.0000
  O   O5        1.0  0.33500  0.16700  0.73200  1.0000
  O   O6        1.0  0.83300  0.66500  0.73200  1.0000
  O   O7        1.0  0.83300  0.16700  0.73200  1.0000
  Sb  Sb1       1.0  0.33300  0.66700  0.14500  1.0000
  Sb  Sb2       1.0  0.66700  0.33300  0.85500  1.0000
