data_image0
_chemical_formula_structural       Al8Fe4Sc
_chemical_formula_sum              "Al8 Fe4 Sc1"
_cell_length_a       4.98349
_cell_length_b       6.56389
_cell_length_c       6.56389
_cell_angle_alpha    98.2856
_cell_angle_beta     67.6902
_cell_angle_gamma    112.31

_space_group_name_H-M_alt    "P 1"
_space_group_IT_number       1

loop_
  _space_group_symop_operation_xyz
  'x, y, z'

loop_
  _atom_site_type_symbol
  _atom_site_label
  _atom_site_symmetry_multiplicity
  _atom_site_fract_x
  _atom_site_fract_y
  _atom_site_fract_z
  _atom_site_occupancy
  Al  Al1       1.0  0.50000  0.21800  0.21800  1.0000
  Al  Al2       1.0  0.28200  0.78200  0.21800  1.0000
  Al  Al3       1.0  0.00000  0.33600  0.33600  1.0000
  Al  Al4       1.0  0.66400  0.66400  0.33600  1.0000
  Al  Al5       1.0  0.33600  0.33600  0.66400  1.0000
  Al  Al6       1.0  0.00000  0.66400  0.66400  1.0000
  Al  Al7       1.0  0.71800  0.21800  0.78200  1.0000
  Al  Al8       1.0  0.50000  0.78200  0.78200  1.0000
  Fe  Fe1       1.0  0.00000  0.50000  0.00000  1.0000
  Fe  Fe2       1.0  0.50000  0.50000  0.00000  1.0000
  Fe  Fe3       1.0  0.00000  0.00000  0.50000  1.0000
  Fe  Fe4       1.0  0.50000  0.00000  0.50000  1.0000
  Sc  Sc1       1.0  0.00000  0.00000  0.00000  1.0000
