data_image0
_chemical_formula_structural       Nb5P4Pd4
_chemical_formula_sum              "Nb5 P4 Pd4"
_cell_length_a       3.647
_cell_length_b       7.59431
_cell_length_c       7.59431
_cell_angle_alpha    93.3052
_cell_angle_beta     76.1067
_cell_angle_gamma    103.893

_space_group_name_H-M_alt    "P 1"
_space_group_IT_number       1

loop_
  _space_group_symop_operation_xyz
  'x, y, z'

loop_
  _atom_site_type_symbol
  _atom_site_label
  _atom_site_symmetry_multiplicity
  _atom_site_fract_x
  _atom_site_fract_y
  _atom_site_fract_z
  _atom_site_occupancy
  Nb  Nb1       1.0  0.00000  0.00000  0.00000  1.0000
  Nb  Nb2       1.0  0.31200  0.69000  0.06570  1.0000
  Nb  Nb3       1.0  0.37800  0.06570  0.31000  1.0000
  Nb  Nb4       1.0  0.62200  0.93400  0.69000  1.0000
  Nb  Nb5       1.0  0.68800  0.31000  0.93400  1.0000
  P   P1        1.0  0.05990  0.30300  0.18300  1.0000
  P   P2        1.0  0.75700  0.81700  0.30300  1.0000
  P   P3        1.0  0.24300  0.18300  0.69700  1.0000
  P   P4        1.0  0.94000  0.69700  0.81700  1.0000
  Pd  Pd1       1.0  0.59500  0.48000  0.28900  1.0000
  Pd  Pd2       1.0  0.11600  0.71100  0.48000  1.0000
  Pd  Pd3       1.0  0.88400  0.28900  0.52000  1.0000
  Pd  Pd4       1.0  0.40500  0.52000  0.71100  1.0000
