data_image0
_chemical_formula_structural       Br2Cu3O6Te2
_chemical_formula_sum              "Br2 Cu3 O6 Te2"
_cell_length_a       5.63573
_cell_length_b       5.63573
_cell_length_c       8.01432
_cell_angle_alpha    104.346
_cell_angle_beta     104.346
_cell_angle_gamma    67.1605

_space_group_name_H-M_alt    "P 1"
_space_group_IT_number       1

loop_
  _space_group_symop_operation_xyz
  'x, y, z'

loop_
  _atom_site_type_symbol
  _atom_site_label
  _atom_site_symmetry_multiplicity
  _atom_site_fract_x
  _atom_site_fract_y
  _atom_site_fract_z
  _atom_site_occupancy
  Br  Br1       1.0  0.20600  0.20600  0.13300  1.0000
  Br  Br2       1.0  0.79400  0.79400  0.86700  1.0000
  Cu  Cu1       1.0  0.08560  0.08560  0.36100  1.0000
  Cu  Cu2       1.0  0.50000  0.50000  0.50000  1.0000
  Cu  Cu3       1.0  0.91400  0.91400  0.63900  1.0000
  O   O1        1.0  0.77400  0.38500  0.36300  1.0000
  O   O2        1.0  0.38500  0.77400  0.36300  1.0000
  O   O3        1.0  0.86000  0.86000  0.36800  1.0000
  O   O4        1.0  0.14000  0.14000  0.63200  1.0000
  O   O5        1.0  0.61500  0.22600  0.63700  1.0000
  O   O6        1.0  0.22600  0.61500  0.63700  1.0000
  Te  Te1       1.0  0.66400  0.66400  0.22800  1.0000
  Te  Te2       1.0  0.33600  0.33600  0.77200  1.0000
