data_image0
_chemical_formula_structural       GaS8V4
_chemical_formula_sum              "Ga1 S8 V4"
_cell_length_a       6.85806
_cell_length_b       6.85806
_cell_length_c       6.85806
_cell_angle_alpha    59.9953
_cell_angle_beta     59.9953
_cell_angle_gamma    59.9953

_space_group_name_H-M_alt    "P 1"
_space_group_IT_number       1

loop_
  _space_group_symop_operation_xyz
  'x, y, z'

loop_
  _atom_site_type_symbol
  _atom_site_label
  _atom_site_symmetry_multiplicity
  _atom_site_fract_x
  _atom_site_fract_y
  _atom_site_fract_z
  _atom_site_occupancy
  Ga  Ga1       1.0  0.99900  0.99900  0.99900  1.0000
  S   S1        1.0  0.62800  0.62800  0.11200  1.0000
  S   S2        1.0  0.58900  0.13600  0.13600  1.0000
  S   S3        1.0  0.13600  0.58900  0.13600  1.0000
  S   S4        1.0  0.13600  0.13600  0.13600  1.0000
  S   S5        1.0  0.13600  0.13600  0.58900  1.0000
  S   S6        1.0  0.11200  0.62800  0.62800  1.0000
  S   S7        1.0  0.62800  0.11200  0.62800  1.0000
  S   S8        1.0  0.62800  0.62800  0.62800  1.0000
  V   V1        1.0  0.39300  0.81800  0.39300  1.0000
  V   V2        1.0  0.81800  0.39300  0.39300  1.0000
  V   V3        1.0  0.39300  0.39300  0.39300  1.0000
  V   V4        1.0  0.39300  0.39300  0.81800  1.0000
