data_image0
_chemical_formula_structural       Cl8Hg2PdRb2
_chemical_formula_sum              "Cl8 Hg2 Pd1 Rb2"
_cell_length_a       6.75629
_cell_length_b       6.75629
_cell_length_c       9.95677
_cell_angle_alpha    106.558
_cell_angle_beta     106.558
_cell_angle_gamma    61.3314

_space_group_name_H-M_alt    "P 1"
_space_group_IT_number       1

loop_
  _space_group_symop_operation_xyz
  'x, y, z'

loop_
  _atom_site_type_symbol
  _atom_site_label
  _atom_site_symmetry_multiplicity
  _atom_site_fract_x
  _atom_site_fract_y
  _atom_site_fract_z
  _atom_site_occupancy
  Cl  Cl1       1.0  0.89300  0.36800  0.13500  1.0000
  Cl  Cl2       1.0  0.36800  0.89300  0.13500  1.0000
  Cl  Cl3       1.0  0.91700  0.91700  0.30900  1.0000
  Cl  Cl4       1.0  0.65300  0.65300  0.50000  1.0000
  Cl  Cl5       1.0  0.34700  0.34700  0.50000  1.0000
  Cl  Cl6       1.0  0.08290  0.08290  0.69100  1.0000
  Cl  Cl7       1.0  0.63200  0.10700  0.86500  1.0000
  Cl  Cl8       1.0  0.10700  0.63200  0.86500  1.0000
  Hg  Hg1       1.0  0.13300  0.13300  0.39800  1.0000
  Hg  Hg2       1.0  0.86700  0.86700  0.60200  1.0000
  Pd  Pd1       1.0  0.00000  0.00000  0.00000  1.0000
  Rb  Rb1       1.0  0.39200  0.39200  0.16700  1.0000
  Rb  Rb2       1.0  0.60800  0.60800  0.83300  1.0000
