data_image0
_chemical_formula_structural       Al4Pr3Si6
_chemical_formula_sum              "Al4 Pr3 Si6"
_cell_length_a       4.20279
_cell_length_b       4.20326
_cell_length_c       18.0457
_cell_angle_alpha    90
_cell_angle_beta     89.9919
_cell_angle_gamma    120.004

_space_group_name_H-M_alt    "P 1"
_space_group_IT_number       1

loop_
  _space_group_symop_operation_xyz
  'x, y, z'

loop_
  _atom_site_type_symbol
  _atom_site_label
  _atom_site_symmetry_multiplicity
  _atom_site_fract_x
  _atom_site_fract_y
  _atom_site_fract_z
  _atom_site_occupancy
  Al  Al1       1.0  0.66700  0.33300  0.13900  1.0000
  Al  Al2       1.0  0.33300  0.66700  0.24500  1.0000
  Al  Al3       1.0  0.66700  0.33300  0.75500  1.0000
  Al  Al4       1.0  0.33300  0.66700  0.86100  1.0000
  Pr  Pr1       1.0  0.00000  0.00000  0.00000  1.0000
  Pr  Pr2       1.0  0.00000  0.00000  0.38800  1.0000
  Pr  Pr3       1.0  0.00001  0.00000  0.61200  1.0000
  Si  Si1       1.0  0.33300  0.66700  0.10400  1.0000
  Si  Si2       1.0  0.66700  0.33300  0.28100  1.0000
  Si  Si3       1.0  0.33300  0.66700  0.49700  1.0000
  Si  Si4       1.0  0.66700  0.33300  0.50300  1.0000
  Si  Si5       1.0  0.33300  0.66700  0.71900  1.0000
  Si  Si6       1.0  0.66700  0.33300  0.89600  1.0000
