data_image0
_chemical_formula_structural       Cr2Ge4Li2O12
_chemical_formula_sum              "Cr2 Ge4 Li2 O12"
_cell_length_a       5.44661
_cell_length_b       6.56555
_cell_length_c       6.56555
_cell_angle_alpha    97.6077
_cell_angle_beta     104.251
_cell_angle_gamma    75.7493

_space_group_name_H-M_alt    "P 1"
_space_group_IT_number       1

loop_
  _space_group_symop_operation_xyz
  'x, y, z'

loop_
  _atom_site_type_symbol
  _atom_site_label
  _atom_site_symmetry_multiplicity
  _atom_site_fract_x
  _atom_site_fract_y
  _atom_site_fract_z
  _atom_site_occupancy
  Cr  Cr1       1.0  0.75000  0.08650  0.08650  1.0000
  Cr  Cr2       1.0  0.25000  0.91300  0.91300  1.0000
  Ge  Ge1       1.0  0.75500  0.60700  0.19900  1.0000
  Ge  Ge2       1.0  0.25500  0.80100  0.39300  1.0000
  Ge  Ge3       1.0  0.74500  0.19900  0.60700  1.0000
  Ge  Ge4       1.0  0.24500  0.39300  0.80100  1.0000
  Li  Li1       1.0  0.25000  0.27000  0.27000  1.0000
  Li  Li2       1.0  0.75000  0.73000  0.73000  1.0000
  O   O1        1.0  0.63800  0.80300  0.01530  1.0000
  O   O2        1.0  0.84000  0.35600  0.08190  1.0000
  O   O3        1.0  0.13800  0.98500  0.19700  1.0000
  O   O4        1.0  0.66000  0.08190  0.35600  1.0000
  O   O5        1.0  0.53900  0.61500  0.35900  1.0000
  O   O6        1.0  0.03850  0.64100  0.38500  1.0000
  O   O7        1.0  0.96100  0.35900  0.61500  1.0000
  O   O8        1.0  0.46100  0.38500  0.64100  1.0000
  O   O9        1.0  0.34000  0.91800  0.64400  1.0000
  O   O10       1.0  0.86200  0.01530  0.80300  1.0000
  O   O11       1.0  0.16000  0.64400  0.91800  1.0000
  O   O12       1.0  0.36200  0.19700  0.98500  1.0000
