data_image0
_chemical_formula_structural       Ba8Ga16Sb16
_chemical_formula_sum              "Ba8 Ga16 Sb16"
_cell_length_a       25.7675
_cell_length_b       4.50135
_cell_length_c       10.3712
_cell_angle_alpha    90
_cell_angle_beta     90
_cell_angle_gamma    90

_space_group_name_H-M_alt    "P 1"
_space_group_IT_number       1

loop_
  _space_group_symop_operation_xyz
  'x, y, z'

loop_
  _atom_site_type_symbol
  _atom_site_label
  _atom_site_symmetry_multiplicity
  _atom_site_fract_x
  _atom_site_fract_y
  _atom_site_fract_z
  _atom_site_occupancy
  Ba  Ba1       1.0  0.29200  0.75000  0.04920  1.0000
  Ba  Ba2       1.0  0.96200  0.25000  0.22200  1.0000
  Ba  Ba3       1.0  0.46200  0.25000  0.27800  1.0000
  Ba  Ba4       1.0  0.79200  0.75000  0.45100  1.0000
  Ba  Ba5       1.0  0.20800  0.25000  0.54900  1.0000
  Ba  Ba6       1.0  0.53800  0.75000  0.72200  1.0000
  Ba  Ba7       1.0  0.03820  0.75000  0.77800  1.0000
  Ba  Ba8       1.0  0.70800  0.25000  0.95100  1.0000
  Ga  Ga1       1.0  0.81800  0.75000  0.03310  1.0000
  Ga  Ga2       1.0  0.53400  0.75000  0.10300  1.0000
  Ga  Ga3       1.0  0.07850  0.75000  0.17700  1.0000
  Ga  Ga4       1.0  0.21500  0.25000  0.20300  1.0000
  Ga  Ga5       1.0  0.71500  0.25000  0.29700  1.0000
  Ga  Ga6       1.0  0.57800  0.75000  0.32300  1.0000
  Ga  Ga7       1.0  0.03430  0.75000  0.39700  1.0000
  Ga  Ga8       1.0  0.31800  0.75000  0.46700  1.0000
  Ga  Ga9       1.0  0.68200  0.25000  0.53300  1.0000
  Ga  Ga10      1.0  0.96600  0.25000  0.60300  1.0000
  Ga  Ga11      1.0  0.42200  0.25000  0.67700  1.0000
  Ga  Ga12      1.0  0.28500  0.75000  0.70300  1.0000
  Ga  Ga13      1.0  0.78500  0.75000  0.79700  1.0000
  Ga  Ga14      1.0  0.92200  0.25000  0.82300  1.0000
  Ga  Ga15      1.0  0.46600  0.25000  0.89700  1.0000
  Ga  Ga16      1.0  0.18200  0.25000  0.96700  1.0000
  Sb  Sb1       1.0  0.42900  0.75000  0.01780  1.0000
  Sb  Sb2       1.0  0.07810  0.25000  0.02540  1.0000
  Sb  Sb3       1.0  0.81500  0.25000  0.18700  1.0000
  Sb  Sb4       1.0  0.67100  0.75000  0.19900  1.0000
  Sb  Sb5       1.0  0.17100  0.75000  0.30100  1.0000
  Sb  Sb6       1.0  0.31500  0.25000  0.31300  1.0000
  Sb  Sb7       1.0  0.57800  0.25000  0.47500  1.0000
  Sb  Sb8       1.0  0.92900  0.75000  0.48200  1.0000
  Sb  Sb9       1.0  0.07100  0.25000  0.51800  1.0000
  Sb  Sb10      1.0  0.42200  0.75000  0.52500  1.0000
  Sb  Sb11      1.0  0.68500  0.75000  0.68700  1.0000
  Sb  Sb12      1.0  0.82900  0.25000  0.69900  1.0000
  Sb  Sb13      1.0  0.32900  0.25000  0.80100  1.0000
  Sb  Sb14      1.0  0.18500  0.75000  0.81300  1.0000
  Sb  Sb15      1.0  0.92200  0.75000  0.97500  1.0000
  Sb  Sb16      1.0  0.57100  0.25000  0.98200  1.0000
