data_image0
_chemical_formula_structural       Ga4Sm9
_chemical_formula_sum              "Ga4 Sm9"
_cell_length_a       5.10959
_cell_length_b       8.81398
_cell_length_c       8.81398
_cell_angle_alpha    94.8195
_cell_angle_beta     106.849
_cell_angle_gamma    73.1506

_space_group_name_H-M_alt    "P 1"
_space_group_IT_number       1

loop_
  _space_group_symop_operation_xyz
  'x, y, z'

loop_
  _atom_site_type_symbol
  _atom_site_label
  _atom_site_symmetry_multiplicity
  _atom_site_fract_x
  _atom_site_fract_y
  _atom_site_fract_z
  _atom_site_occupancy
  Ga  Ga1       1.0  0.38700  0.34500  0.11900  1.0000
  Ga  Ga2       1.0  0.73200  0.88100  0.34500  1.0000
  Ga  Ga3       1.0  0.26800  0.11900  0.65500  1.0000
  Ga  Ga4       1.0  0.61300  0.65500  0.88100  1.0000
  Sm  Sm1       1.0  0.50000  0.00000  0.00000  1.0000
  Sm  Sm2       1.0  0.18400  0.70600  0.07470  1.0000
  Sm  Sm3       1.0  0.87600  0.52800  0.28000  1.0000
  Sm  Sm4       1.0  0.10900  0.07470  0.29400  1.0000
  Sm  Sm5       1.0  0.59600  0.28000  0.47200  1.0000
  Sm  Sm6       1.0  0.40400  0.72000  0.52800  1.0000
  Sm  Sm7       1.0  0.89100  0.92500  0.70600  1.0000
  Sm  Sm8       1.0  0.12400  0.47200  0.72000  1.0000
  Sm  Sm9       1.0  0.81600  0.29400  0.92500  1.0000
