data_image0
_chemical_formula_structural       Al6AuSi4Tb2
_chemical_formula_sum              "Al6 Au1 Si4 Tb2"
_cell_length_a       4.20611
_cell_length_b       4.20879
_cell_length_c       17.0023
_cell_angle_alpha    90.0142
_cell_angle_beta     97.1052
_cell_angle_gamma    119.979

_space_group_name_H-M_alt    "P 1"
_space_group_IT_number       1

loop_
  _space_group_symop_operation_xyz
  'x, y, z'

loop_
  _atom_site_type_symbol
  _atom_site_label
  _atom_site_symmetry_multiplicity
  _atom_site_fract_x
  _atom_site_fract_y
  _atom_site_fract_z
  _atom_site_occupancy
  Al  Al1       1.0  0.36600  0.68300  0.04970  1.0000
  Al  Al2       1.0  0.10400  0.05230  0.15700  1.0000
  Al  Al3       1.0  0.62900  0.81400  0.44400  1.0000
  Al  Al4       1.0  0.37100  0.18600  0.55600  1.0000
  Al  Al5       1.0  0.89600  0.94800  0.84300  1.0000
  Al  Al6       1.0  0.63400  0.31700  0.95000  1.0000
  Au  Au1       1.0  0.00000  0.00000  0.00000  1.0000
  Si  Si1       1.0  0.46800  0.73400  0.20200  1.0000
  Si  Si2       1.0  0.27100  0.13500  0.40600  1.0000
  Si  Si3       1.0  0.72900  0.86500  0.59400  1.0000
  Si  Si4       1.0  0.53200  0.26600  0.79800  1.0000
  Tb  Tb1       1.0  0.86900  0.43400  0.30300  1.0000
  Tb  Tb2       1.0  0.13100  0.56600  0.69700  1.0000
