data_image0
_chemical_formula_structural       Mg5Yb
_chemical_formula_sum              "Mg5 Yb1"
_cell_length_a       3.36149
_cell_length_b       8.85383
_cell_length_c       5.27766
_cell_angle_alpha    90
_cell_angle_beta     90
_cell_angle_gamma    79.057

_space_group_name_H-M_alt    "P 1"
_space_group_IT_number       1

loop_
  _space_group_symop_operation_xyz
  'x, y, z'

loop_
  _atom_site_type_symbol
  _atom_site_label
  _atom_site_symmetry_multiplicity
  _atom_site_fract_x
  _atom_site_fract_y
  _atom_site_fract_z
  _atom_site_occupancy
  Mg  Mg1       1.0  0.99800  0.00320  0.00000  1.0000
  Mg  Mg2       1.0  0.34300  0.31400  0.00000  1.0000
  Mg  Mg3       1.0  0.66100  0.67900  0.00000  1.0000
  Mg  Mg4       1.0  0.44900  0.10200  0.50000  1.0000
  Mg  Mg5       1.0  0.10400  0.79100  0.50000  1.0000
  Yb  Yb1       1.0  0.77800  0.44400  0.50000  1.0000
