data_image0
_chemical_formula_structural       Ba3Cr2O8
_chemical_formula_sum              "Ba3 Cr2 O8"
_cell_length_a       5.73227
_cell_length_b       5.73227
_cell_length_c       7.86572
_cell_angle_alpha    90
_cell_angle_beta     111.37
_cell_angle_gamma    60

_space_group_name_H-M_alt    "P 1"
_space_group_IT_number       1

loop_
  _space_group_symop_operation_xyz
  'x, y, z'

loop_
  _atom_site_type_symbol
  _atom_site_label
  _atom_site_symmetry_multiplicity
  _atom_site_fract_x
  _atom_site_fract_y
  _atom_site_fract_z
  _atom_site_occupancy
  Ba  Ba1       1.0  0.00000  0.00000  0.00000  1.0000
  Ba  Ba2       1.0  0.58800  0.20600  0.38200  1.0000
  Ba  Ba3       1.0  0.41200  0.79400  0.61800  1.0000
  Cr  Cr1       1.0  0.81400  0.59300  0.22200  1.0000
  Cr  Cr2       1.0  0.18600  0.40700  0.77800  1.0000
  O   O1        1.0  0.34500  0.32700  0.01770  1.0000
  O   O2        1.0  0.03340  0.23800  0.30500  1.0000
  O   O3        1.0  0.54300  0.72800  0.30500  1.0000
  O   O4        1.0  0.03340  0.72800  0.30500  1.0000
  O   O5        1.0  0.45700  0.27200  0.69500  1.0000
  O   O6        1.0  0.96700  0.27200  0.69500  1.0000
  O   O7        1.0  0.96700  0.76200  0.69500  1.0000
  O   O8        1.0  0.65500  0.67300  0.98200  1.0000
