data_image0
_chemical_formula_structural       Ba3O8V2
_chemical_formula_sum              "Ba3 O8 V2"
_cell_length_a       7.86388
_cell_length_b       7.86388
_cell_length_c       7.86388
_cell_angle_alpha    43.0283
_cell_angle_beta     43.0283
_cell_angle_gamma    43.0283

_space_group_name_H-M_alt    "P 1"
_space_group_IT_number       1

loop_
  _space_group_symop_operation_xyz
  'x, y, z'

loop_
  _atom_site_type_symbol
  _atom_site_label
  _atom_site_symmetry_multiplicity
  _atom_site_fract_x
  _atom_site_fract_y
  _atom_site_fract_z
  _atom_site_occupancy
  Ba  Ba1       1.0  0.00000  0.00000  0.00000  1.0000
  Ba  Ba2       1.0  0.20500  0.20500  0.20500  1.0000
  Ba  Ba3       1.0  0.79500  0.79500  0.79500  1.0000
  O   O1        1.0  0.72900  0.72900  0.23800  1.0000
  O   O2        1.0  0.76200  0.27100  0.27100  1.0000
  O   O3        1.0  0.27100  0.76200  0.27100  1.0000
  O   O4        1.0  0.32700  0.32700  0.32700  1.0000
  O   O5        1.0  0.67300  0.67300  0.67300  1.0000
  O   O6        1.0  0.72900  0.23800  0.72900  1.0000
  O   O7        1.0  0.23800  0.72900  0.72900  1.0000
  O   O8        1.0  0.27100  0.27100  0.76200  1.0000
  V   V1        1.0  0.40700  0.40700  0.40700  1.0000
  V   V2        1.0  0.59300  0.59300  0.59300  1.0000
