data_image0
_chemical_formula_structural       Al2Cu4MgNi
_chemical_formula_sum              "Al2 Cu4 Mg1 Ni1"
_cell_length_a       4.16737
_cell_length_b       4.16737
_cell_length_c       5.93759
_cell_angle_alpha    90
_cell_angle_beta     90
_cell_angle_gamma    90

_space_group_name_H-M_alt    "P 1"
_space_group_IT_number       1

loop_
  _space_group_symop_operation_xyz
  'x, y, z'

loop_
  _atom_site_type_symbol
  _atom_site_label
  _atom_site_symmetry_multiplicity
  _atom_site_fract_x
  _atom_site_fract_y
  _atom_site_fract_z
  _atom_site_occupancy
  Al  Al1       1.0  0.00000  0.00000  0.00000  1.0000
  Al  Al2       1.0  0.50000  0.50000  0.50000  1.0000
  Cu  Cu1       1.0  0.50000  0.00000  0.23900  1.0000
  Cu  Cu2       1.0  0.00000  0.50000  0.23900  1.0000
  Cu  Cu3       1.0  0.50000  0.00000  0.76100  1.0000
  Cu  Cu4       1.0  0.00000  0.50000  0.76100  1.0000
  Mg  Mg1       1.0  0.00000  0.00000  0.50000  1.0000
  Ni  Ni1       1.0  0.50000  0.50000  0.00000  1.0000
