data_image0
_chemical_formula_structural       Ba9In4
_chemical_formula_sum              "Ba9 In4"
_cell_length_a       5.98676
_cell_length_b       10.4028
_cell_length_c       10.4028
_cell_angle_alpha    94.7494
_cell_angle_beta     106.723
_cell_angle_gamma    73.2769

_space_group_name_H-M_alt    "P 1"
_space_group_IT_number       1

loop_
  _space_group_symop_operation_xyz
  'x, y, z'

loop_
  _atom_site_type_symbol
  _atom_site_label
  _atom_site_symmetry_multiplicity
  _atom_site_fract_x
  _atom_site_fract_y
  _atom_site_fract_z
  _atom_site_occupancy
  Ba  Ba1       1.0  0.50000  0.00000  0.00000  1.0000
  Ba  Ba2       1.0  0.89000  0.29600  0.07570  1.0000
  Ba  Ba3       1.0  0.38800  0.48800  0.26300  1.0000
  Ba  Ba4       1.0  0.18600  0.92400  0.29600  1.0000
  Ba  Ba5       1.0  0.87500  0.73700  0.48800  1.0000
  Ba  Ba6       1.0  0.12500  0.26300  0.51200  1.0000
  Ba  Ba7       1.0  0.81400  0.07570  0.70400  1.0000
  Ba  Ba8       1.0  0.61200  0.51200  0.73700  1.0000
  Ba  Ba9       1.0  0.11000  0.70400  0.92400  1.0000
  In  In1       1.0  0.73800  0.66100  0.13800  1.0000
  In  In2       1.0  0.60000  0.13800  0.33900  1.0000
  In  In3       1.0  0.40000  0.86200  0.66100  1.0000
  In  In4       1.0  0.26200  0.33900  0.86200  1.0000
