data_image0
_chemical_formula_structural       F2O7Te2V2
_chemical_formula_sum              "F2 O7 Te2 V2"
_cell_length_a       4.85318
_cell_length_b       4.96249
_cell_length_c       7.14965
_cell_angle_alpha    108.159
_cell_angle_beta     90.3398
_cell_angle_gamma    92.461

_space_group_name_H-M_alt    "P 1"
_space_group_IT_number       1

loop_
  _space_group_symop_operation_xyz
  'x, y, z'

loop_
  _atom_site_type_symbol
  _atom_site_label
  _atom_site_symmetry_multiplicity
  _atom_site_fract_x
  _atom_site_fract_y
  _atom_site_fract_z
  _atom_site_occupancy
  F   F1        1.0  0.41900  0.24700  0.48600  1.0000
  F   F2        1.0  0.58100  0.75300  0.51400  1.0000
  O   O1        1.0  1.00000  0.50000  0.00000  1.0000
  O   O2        1.0  0.51500  0.38900  0.14000  1.0000
  O   O3        1.0  0.85800  0.03270  0.22300  1.0000
  O   O4        1.0  0.08280  0.60700  0.37500  1.0000
  O   O5        1.0  0.91700  0.39300  0.62500  1.0000
  O   O6        1.0  0.14200  0.96700  0.77700  1.0000
  O   O7        1.0  0.48500  0.61100  0.86000  1.0000
  Te  Te1       1.0  0.28800  0.71300  0.16600  1.0000
  Te  Te2       1.0  0.71200  0.28700  0.83400  1.0000
  V   V1        1.0  0.75800  0.34600  0.36400  1.0000
  V   V2        1.0  0.24200  0.65400  0.63600  1.0000
