data_image0
_chemical_formula_structural       As4Nb5Pd4
_chemical_formula_sum              "As4 Nb5 Pd4"
_cell_length_a       3.80904
_cell_length_b       7.71813
_cell_length_c       7.71813
_cell_angle_alpha    93.4909
_cell_angle_beta     75.7142
_cell_angle_gamma    104.286

_space_group_name_H-M_alt    "P 1"
_space_group_IT_number       1

loop_
  _space_group_symop_operation_xyz
  'x, y, z'

loop_
  _atom_site_type_symbol
  _atom_site_label
  _atom_site_symmetry_multiplicity
  _atom_site_fract_x
  _atom_site_fract_y
  _atom_site_fract_z
  _atom_site_occupancy
  As  As1       1.0  0.06610  0.31000  0.17800  1.0000
  As  As2       1.0  0.75600  0.82200  0.31000  1.0000
  As  As3       1.0  0.24400  0.17800  0.69000  1.0000
  As  As4       1.0  0.93400  0.69000  0.82200  1.0000
  Nb  Nb1       1.0  0.00000  0.00000  0.00000  1.0000
  Nb  Nb2       1.0  0.31200  0.69300  0.07010  1.0000
  Nb  Nb3       1.0  0.38200  0.07010  0.30700  1.0000
  Nb  Nb4       1.0  0.61800  0.93000  0.69300  1.0000
  Nb  Nb5       1.0  0.68800  0.30700  0.93000  1.0000
  Pd  Pd1       1.0  0.59600  0.48400  0.29300  1.0000
  Pd  Pd2       1.0  0.11200  0.70700  0.48400  1.0000
  Pd  Pd3       1.0  0.88800  0.29300  0.51600  1.0000
  Pd  Pd4       1.0  0.40400  0.51600  0.70700  1.0000
