data_image0
_chemical_formula_structural       Mg6Tl3
_chemical_formula_sum              "Mg6 Tl3"
_cell_length_a       8.18623
_cell_length_b       8.18623
_cell_length_c       3.62411
_cell_angle_alpha    90
_cell_angle_beta     90
_cell_angle_gamma    120

_space_group_name_H-M_alt    "P 1"
_space_group_IT_number       1

loop_
  _space_group_symop_operation_xyz
  'x, y, z'

loop_
  _atom_site_type_symbol
  _atom_site_label
  _atom_site_symmetry_multiplicity
  _atom_site_fract_x
  _atom_site_fract_y
  _atom_site_fract_z
  _atom_site_occupancy
  Mg  Mg1       1.0  0.28500  0.00001  0.00000  1.0000
  Mg  Mg2       1.0  0.00001  0.28500  0.00000  1.0000
  Mg  Mg3       1.0  0.71500  0.71500  0.00000  1.0000
  Mg  Mg4       1.0  0.62700  0.00002  0.50000  1.0000
  Mg  Mg5       1.0  0.37300  0.37300  0.50000  1.0000
  Mg  Mg6       1.0  0.00002  0.62700  0.50000  1.0000
  Tl  Tl1       1.0  0.66700  0.33300  0.00000  1.0000
  Tl  Tl2       1.0  0.33300  0.66700  0.00000  1.0000
  Tl  Tl3       1.0  0.00001  0.00001  0.50000  1.0000
