data_image0
_chemical_formula_structural       Al8Cr4Lu
_chemical_formula_sum              "Al8 Cr4 Lu1"
_cell_length_a       5.04853
_cell_length_b       6.7556
_cell_length_c       6.7556
_cell_angle_alpha    98.0258
_cell_angle_beta     68.0588
_cell_angle_gamma    111.941

_space_group_name_H-M_alt    "P 1"
_space_group_IT_number       1

loop_
  _space_group_symop_operation_xyz
  'x, y, z'

loop_
  _atom_site_type_symbol
  _atom_site_label
  _atom_site_symmetry_multiplicity
  _atom_site_fract_x
  _atom_site_fract_y
  _atom_site_fract_z
  _atom_site_occupancy
  Al  Al1       1.0  0.50000  0.22100  0.22100  1.0000
  Al  Al2       1.0  0.27900  0.77900  0.22100  1.0000
  Al  Al3       1.0  0.00000  0.33500  0.33500  1.0000
  Al  Al4       1.0  0.66500  0.66500  0.33500  1.0000
  Al  Al5       1.0  0.00000  0.66500  0.66500  1.0000
  Al  Al6       1.0  0.33500  0.33500  0.66500  1.0000
  Al  Al7       1.0  0.50000  0.77900  0.77900  1.0000
  Al  Al8       1.0  0.72100  0.22100  0.77900  1.0000
  Cr  Cr1       1.0  0.00000  0.50000  0.00000  1.0000
  Cr  Cr2       1.0  0.50000  0.50000  0.00000  1.0000
  Cr  Cr3       1.0  0.00000  0.00000  0.50000  1.0000
  Cr  Cr4       1.0  0.50000  0.00000  0.50000  1.0000
  Lu  Lu1       1.0  0.00000  0.00000  0.00000  1.0000
