data_image0
_chemical_formula_structural       Al4Fe8U
_chemical_formula_sum              "Al4 Fe8 U1"
_cell_length_a       4.79971
_cell_length_b       6.4633
_cell_length_c       6.4633
_cell_angle_alpha    97.9245
_cell_angle_beta     68.2039
_cell_angle_gamma    111.796

_space_group_name_H-M_alt    "P 1"
_space_group_IT_number       1

loop_
  _space_group_symop_operation_xyz
  'x, y, z'

loop_
  _atom_site_type_symbol
  _atom_site_label
  _atom_site_symmetry_multiplicity
  _atom_site_fract_x
  _atom_site_fract_y
  _atom_site_fract_z
  _atom_site_occupancy
  Al  Al1       1.0  0.65300  0.65300  0.34700  1.0000
  Al  Al2       1.0  0.00000  0.34700  0.34700  1.0000
  Al  Al3       1.0  0.34700  0.34700  0.65300  1.0000
  Al  Al4       1.0  0.00000  0.65300  0.65300  1.0000
  Fe  Fe1       1.0  0.00000  0.50000  0.00000  1.0000
  Fe  Fe2       1.0  0.50000  0.50000  0.00000  1.0000
  Fe  Fe3       1.0  0.27300  0.77300  0.22700  1.0000
  Fe  Fe4       1.0  0.50000  0.22700  0.22700  1.0000
  Fe  Fe5       1.0  0.00000  0.00000  0.50000  1.0000
  Fe  Fe6       1.0  0.50000  0.00000  0.50000  1.0000
  Fe  Fe7       1.0  0.50000  0.77300  0.77300  1.0000
  Fe  Fe8       1.0  0.72700  0.22700  0.77300  1.0000
  U   U1        1.0  0.00000  0.00000  0.00000  1.0000
