data_image0
_chemical_formula_structural       Ce4Na4P8Se24
_chemical_formula_sum              "Ce4 Na4 P8 Se24"
_cell_length_a       12.2815
_cell_length_b       7.7814
_cell_length_c       11.8223
_cell_angle_alpha    90
_cell_angle_beta     111.415
_cell_angle_gamma    90

_space_group_name_H-M_alt    "P 1"
_space_group_IT_number       1

loop_
  _space_group_symop_operation_xyz
  'x, y, z'

loop_
  _atom_site_type_symbol
  _atom_site_label
  _atom_site_symmetry_multiplicity
  _atom_site_fract_x
  _atom_site_fract_y
  _atom_site_fract_z
  _atom_site_occupancy
  Ce  Ce1       1.0  0.34400  0.39500  0.08850  1.0000
  Ce  Ce2       1.0  0.65600  0.89500  0.41100  1.0000
  Ce  Ce3       1.0  0.34400  0.10500  0.58900  1.0000
  Ce  Ce4       1.0  0.65600  0.60500  0.91100  1.0000
  Na  Na1       1.0  0.85900  0.10700  0.12300  1.0000
  Na  Na2       1.0  0.14100  0.60700  0.37700  1.0000
  Na  Na3       1.0  0.85900  0.39300  0.62300  1.0000
  Na  Na4       1.0  0.14100  0.89300  0.87700  1.0000
  P   P1        1.0  0.31900  0.90100  0.24700  1.0000
  P   P2        1.0  0.19400  0.11300  0.24900  1.0000
  P   P3        1.0  0.80600  0.61300  0.25100  1.0000
  P   P4        1.0  0.68100  0.40100  0.25300  1.0000
  P   P5        1.0  0.31900  0.59900  0.74700  1.0000
  P   P6        1.0  0.19400  0.38700  0.74900  1.0000
  P   P7        1.0  0.80600  0.88700  0.75100  1.0000
  P   P8        1.0  0.68100  0.09870  0.75300  1.0000
  Se  Se1       1.0  0.11400  0.20300  0.05890  1.0000
  Se  Se2       1.0  0.59300  0.30400  0.06420  1.0000
  Se  Se3       1.0  0.20400  0.70900  0.12600  1.0000
  Se  Se4       1.0  0.69100  0.82100  0.14600  1.0000
  Se  Se5       1.0  0.91200  0.50400  0.15500  1.0000
  Se  Se6       1.0  0.44900  0.02580  0.18200  1.0000
  Se  Se7       1.0  0.55100  0.52600  0.31800  1.0000
  Se  Se8       1.0  0.08790  0.00379  0.34500  1.0000
  Se  Se9       1.0  0.30900  0.32100  0.35400  1.0000
  Se  Se10      1.0  0.79600  0.20900  0.37400  1.0000
  Se  Se11      1.0  0.40700  0.80400  0.43600  1.0000
  Se  Se12      1.0  0.88600  0.70300  0.44100  1.0000
  Se  Se13      1.0  0.11400  0.29700  0.55900  1.0000
  Se  Se14      1.0  0.59300  0.19600  0.56400  1.0000
  Se  Se15      1.0  0.20400  0.79100  0.62600  1.0000
  Se  Se16      1.0  0.69100  0.67900  0.64600  1.0000
  Se  Se17      1.0  0.91200  0.99600  0.65500  1.0000
  Se  Se18      1.0  0.44900  0.47400  0.68200  1.0000
  Se  Se19      1.0  0.55100  0.97400  0.81800  1.0000
  Se  Se20      1.0  0.08790  0.49600  0.84500  1.0000
  Se  Se21      1.0  0.30900  0.17900  0.85400  1.0000
  Se  Se22      1.0  0.79600  0.29100  0.87400  1.0000
  Se  Se23      1.0  0.40700  0.69600  0.93600  1.0000
  Se  Se24      1.0  0.88600  0.79700  0.94100  1.0000
