data_image0
_chemical_formula_structural       Mg5Mn
_chemical_formula_sum              "Mg5 Mn1"
_cell_length_a       5.37897
_cell_length_b       5.37897
_cell_length_c       4.95039
_cell_angle_alpha    90
_cell_angle_beta     90
_cell_angle_gamma    59.9708

_space_group_name_H-M_alt    "P 1"
_space_group_IT_number       1

loop_
  _space_group_symop_operation_xyz
  'x, y, z'

loop_
  _atom_site_type_symbol
  _atom_site_label
  _atom_site_symmetry_multiplicity
  _atom_site_fract_x
  _atom_site_fract_y
  _atom_site_fract_z
  _atom_site_occupancy
  Mg  Mg1       1.0  0.33300  0.33400  0.00000  1.0000
  Mg  Mg2       1.0  0.66600  0.66700  0.00000  1.0000
  Mg  Mg3       1.0  0.00022  0.32100  0.50000  1.0000
  Mg  Mg4       1.0  0.32100  0.67900  0.50000  1.0000
  Mg  Mg5       1.0  0.67900  1.00000  0.50000  1.0000
  Mn  Mn1       1.0  0.00000  0.00020  0.00000  1.0000
