data_image0
_chemical_formula_structural       O24Se8Sr4Zn4
_chemical_formula_sum              "O24 Se8 Sr4 Zn4"
_cell_length_a       4.41967
_cell_length_b       14.6354
_cell_length_c       9.38404
_cell_angle_alpha    90
_cell_angle_beta     94.461
_cell_angle_gamma    90

_space_group_name_H-M_alt    "P 1"
_space_group_IT_number       1

loop_
  _space_group_symop_operation_xyz
  'x, y, z'

loop_
  _atom_site_type_symbol
  _atom_site_label
  _atom_site_symmetry_multiplicity
  _atom_site_fract_x
  _atom_site_fract_y
  _atom_site_fract_z
  _atom_site_occupancy
  O   O1        1.0  0.65000  0.79600  0.02590  1.0000
  O   O2        1.0  0.79700  0.31100  0.07400  1.0000
  O   O3        1.0  0.26500  0.53500  0.11300  1.0000
  O   O4        1.0  0.64800  0.98700  0.20800  1.0000
  O   O5        1.0  0.18800  0.88300  0.23100  1.0000
  O   O6        1.0  0.59500  0.19100  0.24000  1.0000
  O   O7        1.0  0.90500  0.69100  0.26000  1.0000
  O   O8        1.0  0.31200  0.38300  0.26900  1.0000
  O   O9        1.0  0.85200  0.48700  0.29200  1.0000
  O   O10       1.0  0.23500  0.03510  0.38700  1.0000
  O   O11       1.0  0.70300  0.81100  0.42600  1.0000
  O   O12       1.0  0.85000  0.29600  0.47400  1.0000
  O   O13       1.0  0.15000  0.70400  0.52600  1.0000
  O   O14       1.0  0.29700  0.18900  0.57400  1.0000
  O   O15       1.0  0.76500  0.96500  0.61300  1.0000
  O   O16       1.0  0.14800  0.51300  0.70800  1.0000
  O   O17       1.0  0.68800  0.61700  0.73100  1.0000
  O   O18       1.0  0.09470  0.30900  0.74000  1.0000
  O   O19       1.0  0.40500  0.80900  0.76000  1.0000
  O   O20       1.0  0.81200  0.11700  0.76900  1.0000
  O   O21       1.0  0.35200  0.01290  0.79200  1.0000
  O   O22       1.0  0.73500  0.46500  0.88700  1.0000
  O   O23       1.0  0.20300  0.68900  0.92600  1.0000
  O   O24       1.0  0.35000  0.20400  0.97400  1.0000
  Se  Se1       1.0  0.70100  0.19400  0.07020  1.0000
  Se  Se2       1.0  0.26000  0.00039  0.21300  1.0000
  Se  Se3       1.0  0.24000  0.50000  0.28700  1.0000
  Se  Se4       1.0  0.79900  0.69400  0.43000  1.0000
  Se  Se5       1.0  0.20100  0.30600  0.57000  1.0000
  Se  Se6       1.0  0.76000  0.50000  0.71300  1.0000
  Se  Se7       1.0  0.74000  0.00000  0.78700  1.0000
  Se  Se8       1.0  0.29900  0.80600  0.93000  1.0000
  Sr  Sr1       1.0  0.74500  0.61700  0.03360  1.0000
  Sr  Sr2       1.0  0.75500  0.11700  0.46600  1.0000
  Sr  Sr3       1.0  0.24500  0.88300  0.53400  1.0000
  Sr  Sr4       1.0  0.25500  0.38300  0.96600  1.0000
  Zn  Zn1       1.0  0.73900  0.84800  0.21800  1.0000
  Zn  Zn2       1.0  0.76100  0.34800  0.28200  1.0000
  Zn  Zn3       1.0  0.23900  0.65200  0.71800  1.0000
  Zn  Zn4       1.0  0.26100  0.15200  0.78200  1.0000
