data_image0
_chemical_formula_structural       Al8CeCr4
_chemical_formula_sum              "Al8 Ce1 Cr4"
_cell_length_a       5.03245
_cell_length_b       6.87417
_cell_length_c       6.87417
_cell_angle_alpha    97.7
_cell_angle_beta     68.5283
_cell_angle_gamma    111.472

_space_group_name_H-M_alt    "P 1"
_space_group_IT_number       1

loop_
  _space_group_symop_operation_xyz
  'x, y, z'

loop_
  _atom_site_type_symbol
  _atom_site_label
  _atom_site_symmetry_multiplicity
  _atom_site_fract_x
  _atom_site_fract_y
  _atom_site_fract_z
  _atom_site_occupancy
  Al  Al1       1.0  0.50000  0.22700  0.22700  1.0000
  Al  Al2       1.0  0.27300  0.77300  0.22700  1.0000
  Al  Al3       1.0  0.65800  0.65800  0.34200  1.0000
  Al  Al4       1.0  0.00000  0.34200  0.34200  1.0000
  Al  Al5       1.0  0.34200  0.34200  0.65800  1.0000
  Al  Al6       1.0  0.00000  0.65800  0.65800  1.0000
  Al  Al7       1.0  0.72700  0.22700  0.77300  1.0000
  Al  Al8       1.0  0.50000  0.77300  0.77300  1.0000
  Ce  Ce1       1.0  0.00000  0.00000  0.00000  1.0000
  Cr  Cr1       1.0  0.00000  0.50000  0.00000  1.0000
  Cr  Cr2       1.0  0.50000  0.50000  0.00000  1.0000
  Cr  Cr3       1.0  0.00000  0.00000  0.50000  1.0000
  Cr  Cr4       1.0  0.50000  0.00000  0.50000  1.0000
