data_image0
_chemical_formula_structural       Ge2K2O7Pb2
_chemical_formula_sum              "Ge2 K2 O7 Pb2"
_cell_length_a       5.78155
_cell_length_b       5.78116
_cell_length_c       7.79181
_cell_angle_alpha    90.0026
_cell_angle_beta     89.9973
_cell_angle_gamma    120.006

_space_group_name_H-M_alt    "P 1"
_space_group_IT_number       1

loop_
  _space_group_symop_operation_xyz
  'x, y, z'

loop_
  _atom_site_type_symbol
  _atom_site_label
  _atom_site_symmetry_multiplicity
  _atom_site_fract_x
  _atom_site_fract_y
  _atom_site_fract_z
  _atom_site_occupancy
  Ge  Ge1       1.0  0.00004  0.00000  0.27000  1.0000
  Ge  Ge2       1.0  0.00000  0.00006  0.73000  1.0000
  K   K1        1.0  0.33300  0.66700  0.08210  1.0000
  K   K2        1.0  0.66700  0.33300  0.91800  1.0000
  O   O1        1.0  0.79300  0.12400  0.20200  1.0000
  O   O2        1.0  0.87600  0.66900  0.20200  1.0000
  O   O3        1.0  0.33100  0.20700  0.20200  1.0000
  O   O4        1.0  0.00000  0.00000  0.50000  1.0000
  O   O5        1.0  0.66900  0.79300  0.79800  1.0000
  O   O6        1.0  0.12400  0.33100  0.79800  1.0000
  O   O7        1.0  0.20700  0.87600  0.79800  1.0000
  Pb  Pb1       1.0  0.66700  0.33300  0.38500  1.0000
  Pb  Pb2       1.0  0.33300  0.66700  0.61500  1.0000
