data_image0
_chemical_formula_structural       Al8Fe4Hf
_chemical_formula_sum              "Al8 Fe4 Hf1"
_cell_length_a       4.96037
_cell_length_b       6.5381
_cell_length_c       6.5381
_cell_angle_alpha    98.2737
_cell_angle_beta     67.707
_cell_angle_gamma    112.293

_space_group_name_H-M_alt    "P 1"
_space_group_IT_number       1

loop_
  _space_group_symop_operation_xyz
  'x, y, z'

loop_
  _atom_site_type_symbol
  _atom_site_label
  _atom_site_symmetry_multiplicity
  _atom_site_fract_x
  _atom_site_fract_y
  _atom_site_fract_z
  _atom_site_occupancy
  Al  Al1       1.0  0.50000  0.21600  0.21600  1.0000
  Al  Al2       1.0  0.28400  0.78400  0.21600  1.0000
  Al  Al3       1.0  0.00000  0.33800  0.33800  1.0000
  Al  Al4       1.0  0.66200  0.66200  0.33800  1.0000
  Al  Al5       1.0  0.00000  0.66200  0.66200  1.0000
  Al  Al6       1.0  0.33800  0.33800  0.66200  1.0000
  Al  Al7       1.0  0.71600  0.21600  0.78400  1.0000
  Al  Al8       1.0  0.50000  0.78400  0.78400  1.0000
  Fe  Fe1       1.0  0.00000  0.50000  0.00000  1.0000
  Fe  Fe2       1.0  0.50000  0.50000  0.00000  1.0000
  Fe  Fe3       1.0  0.00000  0.00000  0.50000  1.0000
  Fe  Fe4       1.0  0.50000  0.00000  0.50000  1.0000
  Hf  Hf1       1.0  0.00000  0.00000  0.00000  1.0000
