data_image0
_chemical_formula_structural       Cs4N12O16S8
_chemical_formula_sum              "Cs4 N12 O16 S8"
_cell_length_a       8.80128
_cell_length_b       10.292
_cell_length_c       7.98548
_cell_angle_alpha    90
_cell_angle_beta     108.509
_cell_angle_gamma    90

_space_group_name_H-M_alt    "P 1"
_space_group_IT_number       1

loop_
  _space_group_symop_operation_xyz
  'x, y, z'

loop_
  _atom_site_type_symbol
  _atom_site_label
  _atom_site_symmetry_multiplicity
  _atom_site_fract_x
  _atom_site_fract_y
  _atom_site_fract_z
  _atom_site_occupancy
  Cs  Cs1       1.0  0.79600  0.92100  0.10300  1.0000
  Cs  Cs2       1.0  0.20400  0.42100  0.39700  1.0000
  Cs  Cs3       1.0  0.79600  0.57900  0.60300  1.0000
  Cs  Cs4       1.0  0.20400  0.07850  0.89700  1.0000
  N   N1        1.0  0.13200  0.72100  0.02060  1.0000
  N   N2        1.0  0.96100  0.21600  0.08260  1.0000
  N   N3        1.0  0.23000  0.65200  0.12300  1.0000
  N   N4        1.0  0.77000  0.15200  0.37700  1.0000
  N   N5        1.0  0.03900  0.71600  0.41700  1.0000
  N   N6        1.0  0.86800  0.22100  0.47900  1.0000
  N   N7        1.0  0.13200  0.77900  0.52100  1.0000
  N   N8        1.0  0.96100  0.28400  0.58300  1.0000
  N   N9        1.0  0.23000  0.84800  0.62300  1.0000
  N   N10       1.0  0.77000  0.34800  0.87700  1.0000
  N   N11       1.0  0.03900  0.78400  0.91700  1.0000
  N   N12       1.0  0.86800  0.27900  0.97900  1.0000
  O   O1        1.0  0.23000  0.38100  0.01460  1.0000
  O   O2        1.0  0.43500  0.86100  0.09590  1.0000
  O   O3        1.0  0.83700  0.46100  0.23000  1.0000
  O   O4        1.0  0.56600  0.66100  0.24500  1.0000
  O   O5        1.0  0.43400  0.16100  0.25500  1.0000
  O   O6        1.0  0.16300  0.96100  0.27000  1.0000
  O   O7        1.0  0.56500  0.36100  0.40400  1.0000
  O   O8        1.0  0.77000  0.88100  0.48500  1.0000
  O   O9        1.0  0.23000  0.11900  0.51500  1.0000
  O   O10       1.0  0.43500  0.63900  0.59600  1.0000
  O   O11       1.0  0.83700  0.03880  0.73000  1.0000
  O   O12       1.0  0.56600  0.83900  0.74500  1.0000
  O   O13       1.0  0.43400  0.33900  0.75500  1.0000
  O   O14       1.0  0.16300  0.53900  0.77000  1.0000
  O   O15       1.0  0.56500  0.13900  0.90400  1.0000
  O   O16       1.0  0.77000  0.61900  0.98500  1.0000
  S   S1        1.0  0.71800  0.50800  0.06770  1.0000
  S   S2        1.0  0.45100  0.76600  0.23900  1.0000
  S   S3        1.0  0.54900  0.26600  0.26100  1.0000
  S   S4        1.0  0.28200  0.00815  0.43200  1.0000
  S   S5        1.0  0.71800  0.99200  0.56800  1.0000
  S   S6        1.0  0.45100  0.73400  0.73900  1.0000
  S   S7        1.0  0.54900  0.23400  0.76100  1.0000
  S   S8        1.0  0.28200  0.49200  0.93200  1.0000
