data_image0
_chemical_formula_structural       B4Ge8K4O24
_chemical_formula_sum              "B4 Ge8 K4 O24"
_cell_length_a       4.76667
_cell_length_b       10.1246
_cell_length_c       10.6885
_cell_angle_alpha    90
_cell_angle_beta     90
_cell_angle_gamma    90

_space_group_name_H-M_alt    "P 1"
_space_group_IT_number       1

loop_
  _space_group_symop_operation_xyz
  'x, y, z'

loop_
  _atom_site_type_symbol
  _atom_site_label
  _atom_site_symmetry_multiplicity
  _atom_site_fract_x
  _atom_site_fract_y
  _atom_site_fract_z
  _atom_site_occupancy
  B   B1        1.0  0.80600  0.76600  0.15900  1.0000
  B   B2        1.0  0.19400  0.26600  0.34100  1.0000
  B   B3        1.0  0.69400  0.23400  0.65900  1.0000
  B   B4        1.0  0.30600  0.73400  0.84100  1.0000
  Ge  Ge1       1.0  0.30000  0.88500  0.06740  1.0000
  Ge  Ge2       1.0  0.23000  0.19900  0.08070  1.0000
  Ge  Ge3       1.0  0.77000  0.69900  0.41900  1.0000
  Ge  Ge4       1.0  0.70000  0.38500  0.43300  1.0000
  Ge  Ge5       1.0  0.20000  0.11500  0.56700  1.0000
  Ge  Ge6       1.0  0.27000  0.80100  0.58100  1.0000
  Ge  Ge7       1.0  0.73000  0.30100  0.91900  1.0000
  Ge  Ge8       1.0  0.80000  0.61500  0.93300  1.0000
  K   K1        1.0  0.30800  0.52900  0.18700  1.0000
  K   K2        1.0  0.69200  0.02920  0.31300  1.0000
  K   K3        1.0  0.19200  0.47100  0.68700  1.0000
  K   K4        1.0  0.80800  0.97100  0.81300  1.0000
  O   O1        1.0  0.47300  0.32400  0.03630  1.0000
  O   O2        1.0  0.86100  0.63900  0.09340  1.0000
  O   O3        1.0  0.41700  0.05070  0.09430  1.0000
  O   O4        1.0  0.93700  0.88000  0.09560  1.0000
  O   O5        1.0  0.50100  0.78900  0.17100  1.0000
  O   O6        1.0  0.06520  0.25400  0.21600  1.0000
  O   O7        1.0  0.93500  0.75400  0.28400  1.0000
  O   O8        1.0  0.49900  0.28900  0.32900  1.0000
  O   O9        1.0  0.06310  0.38000  0.40400  1.0000
  O   O10       1.0  0.58300  0.55100  0.40600  1.0000
  O   O11       1.0  0.13900  0.13900  0.40700  1.0000
  O   O12       1.0  0.52700  0.82400  0.46400  1.0000
  O   O13       1.0  0.02730  0.67600  0.53600  1.0000
  O   O14       1.0  0.63900  0.36100  0.59300  1.0000
  O   O15       1.0  0.08270  0.94900  0.59400  1.0000
  O   O16       1.0  0.56300  0.12000  0.59600  1.0000
  O   O17       1.0  0.99900  0.21100  0.67100  1.0000
  O   O18       1.0  0.43500  0.74600  0.71600  1.0000
  O   O19       1.0  0.56500  0.24600  0.78400  1.0000
  O   O20       1.0  0.00060  0.71100  0.82900  1.0000
  O   O21       1.0  0.43700  0.62000  0.90400  1.0000
  O   O22       1.0  0.91700  0.44900  0.90600  1.0000
  O   O23       1.0  0.36100  0.86100  0.90700  1.0000
  O   O24       1.0  0.97300  0.17600  0.96400  1.0000
