data_image0
_chemical_formula_structural       K3Mn2O8
_chemical_formula_sum              "K3 Mn2 O8"
_cell_length_a       5.68244
_cell_length_b       5.68244
_cell_length_c       7.76213
_cell_angle_alpha    90
_cell_angle_beta     111.471
_cell_angle_gamma    60

_space_group_name_H-M_alt    "P 1"
_space_group_IT_number       1

loop_
  _space_group_symop_operation_xyz
  'x, y, z'

loop_
  _atom_site_type_symbol
  _atom_site_label
  _atom_site_symmetry_multiplicity
  _atom_site_fract_x
  _atom_site_fract_y
  _atom_site_fract_z
  _atom_site_occupancy
  K   K1        1.0  0.00000  0.00000  0.00000  1.0000
  K   K2        1.0  0.59000  0.20500  0.38600  1.0000
  K   K3        1.0  0.41000  0.79500  0.61400  1.0000
  Mn  Mn1       1.0  0.81700  0.59100  0.22600  1.0000
  Mn  Mn2       1.0  0.18300  0.40900  0.77400  1.0000
  O   O1        1.0  0.66200  0.66900  0.99300  1.0000
  O   O2        1.0  0.33800  0.33100  0.00656  1.0000
  O   O3        1.0  0.55500  0.72200  0.30400  1.0000
  O   O4        1.0  0.02660  0.25100  0.30400  1.0000
  O   O5        1.0  0.02660  0.72200  0.30400  1.0000
  O   O6        1.0  0.97300  0.27800  0.69600  1.0000
  O   O7        1.0  0.97300  0.74900  0.69600  1.0000
  O   O8        1.0  0.44500  0.27800  0.69600  1.0000
