data_image0
_chemical_formula_structural       Al4Ba4Ca4F28
_chemical_formula_sum              "Al4 Ba4 Ca4 F28"
_cell_length_a       5.26673
_cell_length_b       5.28184
_cell_length_c       18.5841
_cell_angle_alpha    90
_cell_angle_beta     92.3182
_cell_angle_gamma    90

_space_group_name_H-M_alt    "P 1"
_space_group_IT_number       1

loop_
  _space_group_symop_operation_xyz
  'x, y, z'

loop_
  _atom_site_type_symbol
  _atom_site_label
  _atom_site_symmetry_multiplicity
  _atom_site_fract_x
  _atom_site_fract_y
  _atom_site_fract_z
  _atom_site_occupancy
  Al  Al1       1.0  0.30000  0.22500  0.11900  1.0000
  Al  Al2       1.0  0.20000  0.22500  0.38100  1.0000
  Al  Al3       1.0  0.80000  0.77500  0.61900  1.0000
  Al  Al4       1.0  0.70000  0.77500  0.88100  1.0000
  Ba  Ba1       1.0  0.74600  0.76500  0.06700  1.0000
  Ba  Ba2       1.0  0.75400  0.76500  0.43300  1.0000
  Ba  Ba3       1.0  0.24600  0.23500  0.56700  1.0000
  Ba  Ba4       1.0  0.25400  0.23500  0.93300  1.0000
  Ca  Ca1       1.0  0.25000  0.79400  0.25000  1.0000
  Ca  Ca2       1.0  0.75000  0.31900  0.25000  1.0000
  Ca  Ca3       1.0  0.25000  0.68100  0.75000  1.0000
  Ca  Ca4       1.0  0.75000  0.20600  0.75000  1.0000
  F   F1        1.0  0.56300  0.28100  0.05950  1.0000
  F   F2        1.0  0.09570  0.40800  0.06260  1.0000
  F   F3        1.0  0.22700  0.94500  0.06420  1.0000
  F   F4        1.0  0.41300  0.48900  0.17400  1.0000
  F   F5        1.0  0.52100  0.02650  0.17600  1.0000
  F   F6        1.0  0.05950  0.13500  0.18100  1.0000
  F   F7        1.0  0.91500  0.63700  0.19200  1.0000
  F   F8        1.0  0.58500  0.63700  0.30800  1.0000
  F   F9        1.0  0.44100  0.13500  0.31900  1.0000
  F   F10       1.0  0.97900  0.02650  0.32400  1.0000
  F   F11       1.0  0.08710  0.48900  0.32600  1.0000
  F   F12       1.0  0.27300  0.94500  0.43600  1.0000
  F   F13       1.0  0.40400  0.40800  0.43700  1.0000
  F   F14       1.0  0.93700  0.28100  0.44000  1.0000
  F   F15       1.0  0.06310  0.71900  0.56000  1.0000
  F   F16       1.0  0.59600  0.59200  0.56300  1.0000
  F   F17       1.0  0.72700  0.05450  0.56400  1.0000
  F   F18       1.0  0.91300  0.51100  0.67400  1.0000
  F   F19       1.0  0.02060  0.97400  0.67600  1.0000
  F   F20       1.0  0.55900  0.86500  0.68100  1.0000
  F   F21       1.0  0.41500  0.36300  0.69200  1.0000
  F   F22       1.0  0.08460  0.36300  0.80800  1.0000
  F   F23       1.0  0.94100  0.86500  0.81900  1.0000
  F   F24       1.0  0.47900  0.97400  0.82400  1.0000
  F   F25       1.0  0.58700  0.51100  0.82600  1.0000
  F   F26       1.0  0.77300  0.05450  0.93600  1.0000
  F   F27       1.0  0.90400  0.59200  0.93700  1.0000
  F   F28       1.0  0.43700  0.71900  0.94000  1.0000
