data_image0
_chemical_formula_structural       Cs6Fe2O5
_chemical_formula_sum              "Cs6 Fe2 O5"
_cell_length_a       7.18328
_cell_length_b       7.18328
_cell_length_c       7.28793
_cell_angle_alpha    92.3913
_cell_angle_beta     92.3913
_cell_angle_gamma    117.667

_space_group_name_H-M_alt    "P 1"
_space_group_IT_number       1

loop_
  _space_group_symop_operation_xyz
  'x, y, z'

loop_
  _atom_site_type_symbol
  _atom_site_label
  _atom_site_symmetry_multiplicity
  _atom_site_fract_x
  _atom_site_fract_y
  _atom_site_fract_z
  _atom_site_occupancy
  Cs  Cs1       1.0  0.78900  0.21100  0.00000  1.0000
  Cs  Cs2       1.0  0.21100  0.78900  0.00000  1.0000
  Cs  Cs3       1.0  0.34900  0.34900  0.19000  1.0000
  Cs  Cs4       1.0  0.75600  0.24400  0.50000  1.0000
  Cs  Cs5       1.0  0.24400  0.75600  0.50000  1.0000
  Cs  Cs6       1.0  0.65100  0.65100  0.81000  1.0000
  Fe  Fe1       1.0  0.80100  0.80100  0.31300  1.0000
  Fe  Fe2       1.0  0.19900  0.19900  0.68700  1.0000
  O   O1        1.0  0.83000  0.56700  0.22300  1.0000
  O   O2        1.0  0.56700  0.83000  0.22300  1.0000
  O   O3        1.0  0.00000  0.00000  0.50000  1.0000
  O   O4        1.0  0.43300  0.17000  0.77700  1.0000
  O   O5        1.0  0.17000  0.43300  0.77700  1.0000
