data_image0
_chemical_formula_structural       Fe2K6O5
_chemical_formula_sum              "Fe2 K6 O5"
_cell_length_a       6.62956
_cell_length_b       6.63017
_cell_length_c       6.63017
_cell_angle_alpha    117.686
_cell_angle_beta     91.4424
_cell_angle_gamma    91.4424

_space_group_name_H-M_alt    "P 1"
_space_group_IT_number       1

loop_
  _space_group_symop_operation_xyz
  'x, y, z'

loop_
  _atom_site_type_symbol
  _atom_site_label
  _atom_site_symmetry_multiplicity
  _atom_site_fract_x
  _atom_site_fract_y
  _atom_site_fract_z
  _atom_site_occupancy
  Fe  Fe1       1.0  0.51600  0.43700  0.43700  1.0000
  Fe  Fe2       1.0  0.87800  0.84000  0.84000  1.0000
  K   K1        1.0  0.36400  0.00437  0.00437  1.0000
  K   K2        1.0  0.01830  0.29000  0.29000  1.0000
  K   K3        1.0  0.68300  0.89700  0.41300  1.0000
  K   K4        1.0  0.17400  0.85300  0.43700  1.0000
  K   K5        1.0  0.17400  0.43700  0.85300  1.0000
  K   K6        1.0  0.68300  0.41300  0.89700  1.0000
  O   O1        1.0  0.94900  0.81600  0.10100  1.0000
  O   O2        1.0  0.39900  0.48700  0.20600  1.0000
  O   O3        1.0  0.39900  0.20600  0.48700  1.0000
  O   O4        1.0  0.77500  0.57500  0.57500  1.0000
  O   O5        1.0  0.94900  0.10100  0.81600  1.0000
