data_image0
_chemical_formula_structural       C12Cu4F12O12
_chemical_formula_sum              "C12 Cu4 F12 O12"
_cell_length_a       7.57604
_cell_length_b       7.57604
_cell_length_c       9.76459
_cell_angle_alpha    111.397
_cell_angle_beta     68.6033
_cell_angle_gamma    114.611

_space_group_name_H-M_alt    "P 1"
_space_group_IT_number       1

loop_
  _space_group_symop_operation_xyz
  'x, y, z'

loop_
  _atom_site_type_symbol
  _atom_site_label
  _atom_site_symmetry_multiplicity
  _atom_site_fract_x
  _atom_site_fract_y
  _atom_site_fract_z
  _atom_site_occupancy
  C   C1        1.0  0.90100  0.79600  0.08430  1.0000
  C   C2        1.0  0.52000  0.05310  0.22000  1.0000
  C   C3        1.0  0.57600  0.27500  0.22800  1.0000
  C   C4        1.0  0.27500  0.57600  0.27200  1.0000
  C   C5        1.0  0.05310  0.52000  0.28000  1.0000
  C   C6        1.0  0.79600  0.90100  0.41600  1.0000
  C   C7        1.0  0.20400  0.09920  0.58400  1.0000
  C   C8        1.0  0.94700  0.48000  0.72000  1.0000
  C   C9        1.0  0.72500  0.42400  0.72800  1.0000
  C   C10       1.0  0.42400  0.72500  0.77200  1.0000
  C   C11       1.0  0.48000  0.94700  0.78000  1.0000
  C   C12       1.0  0.09920  0.20400  0.91600  1.0000
  Cu  Cu1       1.0  0.68400  0.58300  0.07670  1.0000
  Cu  Cu2       1.0  0.58300  0.68400  0.42300  1.0000
  Cu  Cu3       1.0  0.41700  0.31600  0.57700  1.0000
  Cu  Cu4       1.0  0.31600  0.41700  0.92300  1.0000
  F   F1        1.0  0.60300  0.95200  0.08350  1.0000
  F   F2        1.0  0.03030  0.57900  0.17300  1.0000
  F   F3        1.0  0.31700  0.96500  0.24800  1.0000
  F   F4        1.0  0.96500  0.31700  0.25200  1.0000
  F   F5        1.0  0.57900  0.03030  0.32700  1.0000
  F   F6        1.0  0.95200  0.60300  0.41700  1.0000
  F   F7        1.0  0.04830  0.39700  0.58300  1.0000
  F   F8        1.0  0.42100  0.97000  0.67300  1.0000
  F   F9        1.0  0.03470  0.68300  0.74800  1.0000
  F   F10       1.0  0.68300  0.03470  0.75200  1.0000
  F   F11       1.0  0.97000  0.42100  0.82700  1.0000
  F   F12       1.0  0.39700  0.04830  0.91700  1.0000
  O   O1        1.0  0.04480  0.93100  0.09330  1.0000
  O   O2        1.0  0.64200  0.32100  0.10400  1.0000
  O   O3        1.0  0.38700  0.54500  0.13800  1.0000
  O   O4        1.0  0.54500  0.38700  0.36200  1.0000
  O   O5        1.0  0.32100  0.64200  0.39600  1.0000
  O   O6        1.0  0.93100  0.04480  0.40700  1.0000
  O   O7        1.0  0.06940  0.95500  0.59300  1.0000
  O   O8        1.0  0.67900  0.35800  0.60400  1.0000
  O   O9        1.0  0.45500  0.61300  0.63800  1.0000
  O   O10       1.0  0.61300  0.45500  0.86200  1.0000
  O   O11       1.0  0.35800  0.67900  0.89600  1.0000
  O   O12       1.0  0.95500  0.06940  0.90700  1.0000
