data_image0
_chemical_formula_structural       Au24Ca8Ga8
_chemical_formula_sum              "Au24 Ca8 Ga8"
_cell_length_a       9.25651
_cell_length_b       9.25651
_cell_length_c       9.25651
_cell_angle_alpha    90
_cell_angle_beta     90
_cell_angle_gamma    90

_space_group_name_H-M_alt    "P 1"
_space_group_IT_number       1

loop_
  _space_group_symop_operation_xyz
  'x, y, z'

loop_
  _atom_site_type_symbol
  _atom_site_label
  _atom_site_symmetry_multiplicity
  _atom_site_fract_x
  _atom_site_fract_y
  _atom_site_fract_z
  _atom_site_occupancy
  Au  Au1       1.0  0.26100  0.35800  0.07860  1.0000
  Au  Au2       1.0  0.23900  0.85800  0.07860  1.0000
  Au  Au3       1.0  0.57900  0.26100  0.14200  1.0000
  Au  Au4       1.0  0.92100  0.76100  0.14200  1.0000
  Au  Au5       1.0  0.85800  0.07860  0.23900  1.0000
  Au  Au6       1.0  0.64200  0.57900  0.23900  1.0000
  Au  Au7       1.0  0.35800  0.07860  0.26100  1.0000
  Au  Au8       1.0  0.14200  0.57900  0.26100  1.0000
  Au  Au9       1.0  0.07860  0.26100  0.35800  1.0000
  Au  Au10      1.0  0.42100  0.76100  0.35800  1.0000
  Au  Au11      1.0  0.76100  0.35800  0.42100  1.0000
  Au  Au12      1.0  0.73900  0.85800  0.42100  1.0000
  Au  Au13      1.0  0.26100  0.14200  0.57900  1.0000
  Au  Au14      1.0  0.23900  0.64200  0.57900  1.0000
  Au  Au15      1.0  0.57900  0.23900  0.64200  1.0000
  Au  Au16      1.0  0.92100  0.73900  0.64200  1.0000
  Au  Au17      1.0  0.85800  0.42100  0.73900  1.0000
  Au  Au18      1.0  0.64200  0.92100  0.73900  1.0000
  Au  Au19      1.0  0.35800  0.42100  0.76100  1.0000
  Au  Au20      1.0  0.14200  0.92100  0.76100  1.0000
  Au  Au21      1.0  0.07860  0.23900  0.85800  1.0000
  Au  Au22      1.0  0.42100  0.73900  0.85800  1.0000
  Au  Au23      1.0  0.76100  0.14200  0.92100  1.0000
  Au  Au24      1.0  0.73900  0.64200  0.92100  1.0000
  Ca  Ca1       1.0  0.89200  0.39200  0.10800  1.0000
  Ca  Ca2       1.0  0.60800  0.89200  0.10800  1.0000
  Ca  Ca3       1.0  0.39200  0.39200  0.39200  1.0000
  Ca  Ca4       1.0  0.10800  0.89200  0.39200  1.0000
  Ca  Ca5       1.0  0.89200  0.10800  0.60800  1.0000
  Ca  Ca6       1.0  0.60800  0.60800  0.60800  1.0000
  Ca  Ca7       1.0  0.39200  0.10800  0.89200  1.0000
  Ca  Ca8       1.0  0.10800  0.60800  0.89200  1.0000
  Ga  Ga1       1.0  0.10400  0.10400  0.10400  1.0000
  Ga  Ga2       1.0  0.39600  0.60400  0.10400  1.0000
  Ga  Ga3       1.0  0.60400  0.10400  0.39600  1.0000
  Ga  Ga4       1.0  0.89600  0.60400  0.39600  1.0000
  Ga  Ga5       1.0  0.10400  0.39600  0.60400  1.0000
  Ga  Ga6       1.0  0.39600  0.89600  0.60400  1.0000
  Ga  Ga7       1.0  0.60400  0.39600  0.89600  1.0000
  Ga  Ga8       1.0  0.89600  0.89600  0.89600  1.0000
