data_image0
_chemical_formula_structural       Ce8Ni8Sb24
_chemical_formula_sum              "Ce8 Ni8 Sb24"
_cell_length_a       12.9152
_cell_length_b       6.27988
_cell_length_c       12.2512
_cell_angle_alpha    90
_cell_angle_beta     90
_cell_angle_gamma    90

_space_group_name_H-M_alt    "P 1"
_space_group_IT_number       1

loop_
  _space_group_symop_operation_xyz
  'x, y, z'

loop_
  _atom_site_type_symbol
  _atom_site_label
  _atom_site_symmetry_multiplicity
  _atom_site_fract_x
  _atom_site_fract_y
  _atom_site_fract_z
  _atom_site_occupancy
  Ce  Ce1       1.0  0.70100  0.25000  0.00000  1.0000
  Ce  Ce2       1.0  0.29900  0.75000  0.00000  1.0000
  Ce  Ce3       1.0  0.30300  0.22200  0.25000  1.0000
  Ce  Ce4       1.0  0.69700  0.72200  0.25000  1.0000
  Ce  Ce5       1.0  0.70100  0.25000  0.50000  1.0000
  Ce  Ce6       1.0  0.29900  0.75000  0.50000  1.0000
  Ce  Ce7       1.0  0.30300  0.27800  0.75000  1.0000
  Ce  Ce8       1.0  0.69700  0.77800  0.75000  1.0000
  Ni  Ni1       1.0  0.09730  0.45400  0.13600  1.0000
  Ni  Ni2       1.0  0.90300  0.95400  0.13600  1.0000
  Ni  Ni3       1.0  0.09730  0.45400  0.36400  1.0000
  Ni  Ni4       1.0  0.90300  0.95400  0.36400  1.0000
  Ni  Ni5       1.0  0.09730  0.04580  0.63600  1.0000
  Ni  Ni6       1.0  0.90300  0.54600  0.63600  1.0000
  Ni  Ni7       1.0  0.09730  0.04580  0.86400  1.0000
  Ni  Ni8       1.0  0.90300  0.54600  0.86400  1.0000
  Sb  Sb1       1.0  0.22000  0.25000  0.00000  1.0000
  Sb  Sb2       1.0  0.97200  0.25000  0.00000  1.0000
  Sb  Sb3       1.0  0.02760  0.75000  0.00000  1.0000
  Sb  Sb4       1.0  0.78000  0.75000  0.00000  1.0000
  Sb  Sb5       1.0  0.49700  0.48500  0.12400  1.0000
  Sb  Sb6       1.0  0.50300  0.98500  0.12400  1.0000
  Sb  Sb7       1.0  0.05530  0.09680  0.25000  1.0000
  Sb  Sb8       1.0  0.78600  0.22400  0.25000  1.0000
  Sb  Sb9       1.0  0.94500  0.59700  0.25000  1.0000
  Sb  Sb10      1.0  0.21400  0.72400  0.25000  1.0000
  Sb  Sb11      1.0  0.49700  0.48500  0.37600  1.0000
  Sb  Sb12      1.0  0.50300  0.98500  0.37600  1.0000
  Sb  Sb13      1.0  0.22000  0.25000  0.50000  1.0000
  Sb  Sb14      1.0  0.97200  0.25000  0.50000  1.0000
  Sb  Sb15      1.0  0.02760  0.75000  0.50000  1.0000
  Sb  Sb16      1.0  0.78000  0.75000  0.50000  1.0000
  Sb  Sb17      1.0  0.49700  0.01550  0.62400  1.0000
  Sb  Sb18      1.0  0.50300  0.51500  0.62400  1.0000
  Sb  Sb19      1.0  0.78600  0.27600  0.75000  1.0000
  Sb  Sb20      1.0  0.05530  0.40300  0.75000  1.0000
  Sb  Sb21      1.0  0.21400  0.77600  0.75000  1.0000
  Sb  Sb22      1.0  0.94500  0.90300  0.75000  1.0000
  Sb  Sb23      1.0  0.49700  0.01550  0.87600  1.0000
  Sb  Sb24      1.0  0.50300  0.51500  0.87600  1.0000
