data_image0
_chemical_formula_structural       N22Pr6Si12
_chemical_formula_sum              "N22 Pr6 Si12"
_cell_length_a       10.1155
_cell_length_b       10.1155
_cell_length_c       4.85547
_cell_angle_alpha    90
_cell_angle_beta     90
_cell_angle_gamma    90

_space_group_name_H-M_alt    "P 1"
_space_group_IT_number       1

loop_
  _space_group_symop_operation_xyz
  'x, y, z'

loop_
  _atom_site_type_symbol
  _atom_site_label
  _atom_site_symmetry_multiplicity
  _atom_site_fract_x
  _atom_site_fract_y
  _atom_site_fract_z
  _atom_site_occupancy
  N   N1        1.0  0.18000  0.08040  0.00503  1.0000
  N   N2        1.0  0.92000  0.18000  0.00503  1.0000
  N   N3        1.0  0.42000  0.32000  0.00503  1.0000
  N   N4        1.0  0.68000  0.42000  0.00503  1.0000
  N   N5        1.0  0.32000  0.58000  0.00503  1.0000
  N   N6        1.0  0.58000  0.68000  0.00503  1.0000
  N   N7        1.0  0.08040  0.82000  0.00503  1.0000
  N   N8        1.0  0.82000  0.92000  0.00503  1.0000
  N   N9        1.0  0.65200  0.15200  0.05730  1.0000
  N   N10       1.0  0.15200  0.34800  0.05730  1.0000
  N   N11       1.0  0.84800  0.65200  0.05730  1.0000
  N   N12       1.0  0.34800  0.84800  0.05730  1.0000
  N   N13       1.0  0.50000  0.00000  0.43800  1.0000
  N   N14       1.0  0.00000  0.50000  0.43800  1.0000
  N   N15       1.0  0.77000  0.07540  0.54000  1.0000
  N   N16       1.0  0.07540  0.23000  0.54000  1.0000
  N   N17       1.0  0.57500  0.27000  0.54000  1.0000
  N   N18       1.0  0.27000  0.42500  0.54000  1.0000
  N   N19       1.0  0.73000  0.57500  0.54000  1.0000
  N   N20       1.0  0.42500  0.73000  0.54000  1.0000
  N   N21       1.0  0.92500  0.77000  0.54000  1.0000
  N   N22       1.0  0.23000  0.92500  0.54000  1.0000
  Pr  Pr1       1.0  0.00000  0.00000  0.35300  1.0000
  Pr  Pr2       1.0  0.50000  0.50000  0.35300  1.0000
  Pr  Pr3       1.0  0.31800  0.18200  0.37200  1.0000
  Pr  Pr4       1.0  0.81800  0.31800  0.37200  1.0000
  Pr  Pr5       1.0  0.18200  0.68200  0.37200  1.0000
  Pr  Pr6       1.0  0.68200  0.81800  0.37200  1.0000
  Si  Si1       1.0  0.61700  0.11700  0.40500  1.0000
  Si  Si2       1.0  0.11700  0.38300  0.40500  1.0000
  Si  Si3       1.0  0.88300  0.61700  0.40500  1.0000
  Si  Si4       1.0  0.38300  0.88300  0.40500  1.0000
  Si  Si5       1.0  0.79100  0.07860  0.89500  1.0000
  Si  Si6       1.0  0.07860  0.20900  0.89500  1.0000
  Si  Si7       1.0  0.57900  0.29100  0.89500  1.0000
  Si  Si8       1.0  0.29100  0.42100  0.89500  1.0000
  Si  Si9       1.0  0.70900  0.57900  0.89500  1.0000
  Si  Si10      1.0  0.42100  0.70900  0.89500  1.0000
  Si  Si11      1.0  0.92100  0.79100  0.89500  1.0000
  Si  Si12      1.0  0.20900  0.92100  0.89500  1.0000
