data_image0
_chemical_formula_structural       Al8Cr4Yb
_chemical_formula_sum              "Al8 Cr4 Yb1"
_cell_length_a       5.06748
_cell_length_b       6.81261
_cell_length_c       6.81261
_cell_angle_alpha    97.9509
_cell_angle_beta     68.166
_cell_angle_gamma    111.834

_space_group_name_H-M_alt    "P 1"
_space_group_IT_number       1

loop_
  _space_group_symop_operation_xyz
  'x, y, z'

loop_
  _atom_site_type_symbol
  _atom_site_label
  _atom_site_symmetry_multiplicity
  _atom_site_fract_x
  _atom_site_fract_y
  _atom_site_fract_z
  _atom_site_occupancy
  Al  Al1       1.0  0.50000  0.22900  0.22900  1.0000
  Al  Al2       1.0  0.27100  0.77100  0.22900  1.0000
  Al  Al3       1.0  0.00000  0.33300  0.33300  1.0000
  Al  Al4       1.0  0.66700  0.66700  0.33300  1.0000
  Al  Al5       1.0  0.00000  0.66700  0.66700  1.0000
  Al  Al6       1.0  0.33300  0.33300  0.66700  1.0000
  Al  Al7       1.0  0.72900  0.22900  0.77100  1.0000
  Al  Al8       1.0  0.50000  0.77100  0.77100  1.0000
  Cr  Cr1       1.0  0.00000  0.50000  0.00000  1.0000
  Cr  Cr2       1.0  0.50000  0.50000  0.00000  1.0000
  Cr  Cr3       1.0  0.00000  0.00000  0.50000  1.0000
  Cr  Cr4       1.0  0.50000  0.00000  0.50000  1.0000
  Yb  Yb1       1.0  0.00000  0.00000  0.00000  1.0000
