data_image0
_chemical_formula_structural       Ga8K16P16
_chemical_formula_sum              "Ga8 K16 P16"
_cell_length_a       10.2292
_cell_length_b       14.075
_cell_length_c       8.65946
_cell_angle_alpha    90
_cell_angle_beta     109.345
_cell_angle_gamma    90

_space_group_name_H-M_alt    "P 1"
_space_group_IT_number       1

loop_
  _space_group_symop_operation_xyz
  'x, y, z'

loop_
  _atom_site_type_symbol
  _atom_site_label
  _atom_site_symmetry_multiplicity
  _atom_site_fract_x
  _atom_site_fract_y
  _atom_site_fract_z
  _atom_site_occupancy
  Ga  Ga1       1.0  0.25200  0.71500  0.11000  1.0000
  Ga  Ga2       1.0  0.24200  0.43900  0.23400  1.0000
  Ga  Ga3       1.0  0.25800  0.93900  0.26600  1.0000
  Ga  Ga4       1.0  0.24800  0.21500  0.39000  1.0000
  Ga  Ga5       1.0  0.75200  0.78500  0.61000  1.0000
  Ga  Ga6       1.0  0.74200  0.06050  0.73400  1.0000
  Ga  Ga7       1.0  0.75800  0.56100  0.76600  1.0000
  Ga  Ga8       1.0  0.74800  0.28500  0.89000  1.0000
  K   K1        1.0  0.04000  0.12900  0.02030  1.0000
  K   K2        1.0  0.56700  0.61600  0.06150  1.0000
  K   K3        1.0  0.60200  0.86700  0.17400  1.0000
  K   K4        1.0  0.97200  0.61100  0.18900  1.0000
  K   K5        1.0  0.52800  0.11100  0.31100  1.0000
  K   K6        1.0  0.89800  0.36700  0.32600  1.0000
  K   K7        1.0  0.93300  0.11600  0.43900  1.0000
  K   K8        1.0  0.46000  0.62900  0.48000  1.0000
  K   K9        1.0  0.54000  0.37100  0.52000  1.0000
  K   K10       1.0  0.06710  0.88400  0.56100  1.0000
  K   K11       1.0  0.10200  0.63300  0.67400  1.0000
  K   K12       1.0  0.47200  0.88900  0.68900  1.0000
  K   K13       1.0  0.02760  0.38900  0.81100  1.0000
  K   K14       1.0  0.39800  0.13300  0.82600  1.0000
  K   K15       1.0  0.43300  0.38400  0.93900  1.0000
  K   K16       1.0  0.96000  0.87100  0.98000  1.0000
  P   P1        1.0  0.27900  0.96100  0.01200  1.0000
  P   P2        1.0  0.25500  0.55400  0.04610  1.0000
  P   P3        1.0  0.71800  0.18400  0.08410  1.0000
  P   P4        1.0  0.27800  0.28500  0.16300  1.0000
  P   P5        1.0  0.22200  0.78500  0.33700  1.0000
  P   P6        1.0  0.78200  0.68400  0.41600  1.0000
  P   P7        1.0  0.24500  0.05420  0.45400  1.0000
  P   P8        1.0  0.22100  0.46100  0.48800  1.0000
  P   P9        1.0  0.77900  0.53900  0.51200  1.0000
  P   P10       1.0  0.75500  0.94600  0.54600  1.0000
  P   P11       1.0  0.21800  0.31600  0.58400  1.0000
  P   P12       1.0  0.77800  0.21500  0.66300  1.0000
  P   P13       1.0  0.72200  0.71500  0.83700  1.0000
  P   P14       1.0  0.28200  0.81600  0.91600  1.0000
  P   P15       1.0  0.74500  0.44600  0.95400  1.0000
  P   P16       1.0  0.72100  0.03850  0.98800  1.0000
