data_image0
_chemical_formula_structural       Cl24Rb12Tl4
_chemical_formula_sum              "Cl24 Rb12 Tl4"
_cell_length_a       13.3408
_cell_length_b       7.99129
_cell_length_c       12.6632
_cell_angle_alpha    90
_cell_angle_beta     107.997
_cell_angle_gamma    90

_space_group_name_H-M_alt    "P 1"
_space_group_IT_number       1

loop_
  _space_group_symop_operation_xyz
  'x, y, z'

loop_
  _atom_site_type_symbol
  _atom_site_label
  _atom_site_symmetry_multiplicity
  _atom_site_fract_x
  _atom_site_fract_y
  _atom_site_fract_z
  _atom_site_occupancy
  Cl  Cl1       1.0  0.84600  0.69900  0.00659  1.0000
  Cl  Cl2       1.0  0.60100  0.27500  0.10400  1.0000
  Cl  Cl3       1.0  0.15100  0.70800  0.10700  1.0000
  Cl  Cl4       1.0  0.37900  0.00246  0.12500  1.0000
  Cl  Cl5       1.0  0.62800  0.80900  0.14900  1.0000
  Cl  Cl6       1.0  0.00123  0.35800  0.19000  1.0000
  Cl  Cl7       1.0  0.99900  0.85800  0.31000  1.0000
  Cl  Cl8       1.0  0.37200  0.30900  0.35100  1.0000
  Cl  Cl9       1.0  0.62100  0.50200  0.37500  1.0000
  Cl  Cl10      1.0  0.84900  0.20800  0.39300  1.0000
  Cl  Cl11      1.0  0.39900  0.77500  0.39600  1.0000
  Cl  Cl12      1.0  0.15400  0.19900  0.49300  1.0000
  Cl  Cl13      1.0  0.84600  0.80100  0.50700  1.0000
  Cl  Cl14      1.0  0.60100  0.22500  0.60400  1.0000
  Cl  Cl15      1.0  0.15100  0.79200  0.60700  1.0000
  Cl  Cl16      1.0  0.37900  0.49800  0.62500  1.0000
  Cl  Cl17      1.0  0.62800  0.69100  0.64900  1.0000
  Cl  Cl18      1.0  0.00123  0.14200  0.69000  1.0000
  Cl  Cl19      1.0  0.99900  0.64200  0.81000  1.0000
  Cl  Cl20      1.0  0.37200  0.19100  0.85100  1.0000
  Cl  Cl21      1.0  0.62100  0.99800  0.87500  1.0000
  Cl  Cl22      1.0  0.84900  0.29200  0.89300  1.0000
  Cl  Cl23      1.0  0.39900  0.72500  0.89600  1.0000
  Cl  Cl24      1.0  0.15400  0.30100  0.99300  1.0000
  Rb  Rb1       1.0  0.82000  0.06630  0.11600  1.0000
  Rb  Rb2       1.0  0.40300  0.53700  0.13900  1.0000
  Rb  Rb3       1.0  0.18300  0.06240  0.23800  1.0000
  Rb  Rb4       1.0  0.81700  0.56200  0.26200  1.0000
  Rb  Rb5       1.0  0.59700  0.03690  0.36100  1.0000
  Rb  Rb6       1.0  0.18000  0.56600  0.38400  1.0000
  Rb  Rb7       1.0  0.82000  0.43400  0.61600  1.0000
  Rb  Rb8       1.0  0.40300  0.96300  0.63900  1.0000
  Rb  Rb9       1.0  0.18300  0.43800  0.73800  1.0000
  Rb  Rb10      1.0  0.81700  0.93800  0.76200  1.0000
  Rb  Rb11      1.0  0.59700  0.46300  0.86100  1.0000
  Rb  Rb12      1.0  0.18000  0.93400  0.88400  1.0000
  Tl  Tl1       1.0  0.50000  0.00000  0.00000  1.0000
  Tl  Tl2       1.0  0.00000  0.50000  0.00000  1.0000
  Tl  Tl3       1.0  0.50000  0.50000  0.50000  1.0000
  Tl  Tl4       1.0  0.00000  0.00000  0.50000  1.0000
