data_image0
_chemical_formula_structural       K6P2Se32
_chemical_formula_sum              "K6 P2 Se32"
_cell_length_a       11.8628
_cell_length_b       11.8627
_cell_length_c       11.8628
_cell_angle_alpha    120
_cell_angle_beta     89.9998
_cell_angle_gamma    120

_space_group_name_H-M_alt    "P 1"
_space_group_IT_number       1

loop_
  _space_group_symop_operation_xyz
  'x, y, z'

loop_
  _atom_site_type_symbol
  _atom_site_label
  _atom_site_symmetry_multiplicity
  _atom_site_fract_x
  _atom_site_fract_y
  _atom_site_fract_z
  _atom_site_occupancy
  K   K1        1.0  0.00000  0.00000  0.00000  1.0000
  K   K2        1.0  0.50000  0.00000  0.00000  1.0000
  K   K3        1.0  0.50000  0.50000  0.00000  1.0000
  K   K4        1.0  0.12500  0.75000  0.37500  1.0000
  K   K5        1.0  0.50000  0.50000  0.50000  1.0000
  K   K6        1.0  0.87500  0.25000  0.62500  1.0000
  P   P1        1.0  0.37500  0.25000  0.12500  1.0000
  P   P2        1.0  0.62500  0.75000  0.87500  1.0000
  Se  Se1       1.0  0.03530  0.72800  0.05270  1.0000
  Se  Se2       1.0  0.19300  0.51700  0.05270  1.0000
  Se  Se3       1.0  0.82500  0.36000  0.05270  1.0000
  Se  Se4       1.0  0.70200  0.90400  0.10600  1.0000
  Se  Se5       1.0  0.29800  0.09600  0.20200  1.0000
  Se  Se6       1.0  0.29800  0.40400  0.20200  1.0000
  Se  Se7       1.0  0.60600  0.40400  0.20200  1.0000
  Se  Se8       1.0  0.82500  0.77200  0.30700  1.0000
  Se  Se9       1.0  0.44700  0.98300  0.30700  1.0000
  Se  Se10      1.0  0.03530  0.36000  0.30700  1.0000
  Se  Se11      1.0  0.55300  0.86000  0.32500  1.0000
  Se  Se12      1.0  0.96500  0.01750  0.32500  1.0000
  Se  Se13      1.0  0.80700  0.27200  0.32500  1.0000
  Se  Se14      1.0  0.19300  0.14000  0.46500  1.0000
  Se  Se15      1.0  0.82500  0.51700  0.46500  1.0000
  Se  Se16      1.0  0.44700  0.77200  0.46500  1.0000
  Se  Se17      1.0  0.55300  0.22800  0.53500  1.0000
  Se  Se18      1.0  0.17500  0.48300  0.53500  1.0000
  Se  Se19      1.0  0.80700  0.86000  0.53500  1.0000
  Se  Se20      1.0  0.19300  0.72800  0.67500  1.0000
  Se  Se21      1.0  0.03530  0.98300  0.67500  1.0000
  Se  Se22      1.0  0.44700  0.14000  0.67500  1.0000
  Se  Se23      1.0  0.96500  0.64000  0.69300  1.0000
  Se  Se24      1.0  0.55300  0.01750  0.69300  1.0000
  Se  Se25      1.0  0.17500  0.22800  0.69300  1.0000
  Se  Se26      1.0  0.39400  0.59600  0.79800  1.0000
  Se  Se27      1.0  0.70200  0.59600  0.79800  1.0000
  Se  Se28      1.0  0.70200  0.90400  0.79800  1.0000
  Se  Se29      1.0  0.29800  0.09600  0.89400  1.0000
  Se  Se30      1.0  0.17500  0.64000  0.94700  1.0000
  Se  Se31      1.0  0.80700  0.48300  0.94700  1.0000
  Se  Se32      1.0  0.96500  0.27200  0.94700  1.0000
