data_image0
_chemical_formula_structural       B4K4O24Si8
_chemical_formula_sum              "B4 K4 O24 Si8"
_cell_length_a       4.66841
_cell_length_b       9.89733
_cell_length_c       10.3956
_cell_angle_alpha    90
_cell_angle_beta     90
_cell_angle_gamma    90

_space_group_name_H-M_alt    "P 1"
_space_group_IT_number       1

loop_
  _space_group_symop_operation_xyz
  'x, y, z'

loop_
  _atom_site_type_symbol
  _atom_site_label
  _atom_site_symmetry_multiplicity
  _atom_site_fract_x
  _atom_site_fract_y
  _atom_site_fract_z
  _atom_site_occupancy
  B   B1        1.0  0.79100  0.76900  0.15800  1.0000
  B   B2        1.0  0.20900  0.26900  0.34200  1.0000
  B   B3        1.0  0.70900  0.23100  0.65800  1.0000
  B   B4        1.0  0.29100  0.73100  0.84200  1.0000
  K   K1        1.0  0.29900  0.53300  0.18800  1.0000
  K   K2        1.0  0.70100  0.03270  0.31200  1.0000
  K   K3        1.0  0.20100  0.46700  0.68800  1.0000
  K   K4        1.0  0.79900  0.96700  0.81200  1.0000
  O   O1        1.0  0.47500  0.31000  0.03030  1.0000
  O   O2        1.0  0.38700  0.05130  0.08270  1.0000
  O   O3        1.0  0.83700  0.64200  0.08570  1.0000
  O   O4        1.0  0.94800  0.88300  0.10200  1.0000
  O   O5        1.0  0.48200  0.80200  0.16300  1.0000
  O   O6        1.0  0.10000  0.24700  0.21100  1.0000
  O   O7        1.0  0.90000  0.74700  0.28900  1.0000
  O   O8        1.0  0.51800  0.30200  0.33700  1.0000
  O   O9        1.0  0.05170  0.38300  0.39800  1.0000
  O   O10       1.0  0.16300  0.14200  0.41400  1.0000
  O   O11       1.0  0.61300  0.55100  0.41700  1.0000
  O   O12       1.0  0.52500  0.81000  0.47000  1.0000
  O   O13       1.0  0.02490  0.69000  0.53000  1.0000
  O   O14       1.0  0.11300  0.94900  0.58300  1.0000
  O   O15       1.0  0.66300  0.35800  0.58600  1.0000
  O   O16       1.0  0.55200  0.11700  0.60200  1.0000
  O   O17       1.0  0.01780  0.19800  0.66300  1.0000
  O   O18       1.0  0.40000  0.75300  0.71100  1.0000
  O   O19       1.0  0.60000  0.25300  0.78900  1.0000
  O   O20       1.0  0.98200  0.69800  0.83700  1.0000
  O   O21       1.0  0.44800  0.61700  0.89800  1.0000
  O   O22       1.0  0.33700  0.85800  0.91400  1.0000
  O   O23       1.0  0.88700  0.44900  0.91700  1.0000
  O   O24       1.0  0.97500  0.19000  0.97000  1.0000
  Si  Si1       1.0  0.28700  0.89200  0.06610  1.0000
  Si  Si2       1.0  0.23300  0.19900  0.07610  1.0000
  Si  Si3       1.0  0.76700  0.69900  0.42400  1.0000
  Si  Si4       1.0  0.71300  0.39200  0.43400  1.0000
  Si  Si5       1.0  0.21300  0.10800  0.56600  1.0000
  Si  Si6       1.0  0.26700  0.80100  0.57600  1.0000
  Si  Si7       1.0  0.73300  0.30100  0.92400  1.0000
  Si  Si8       1.0  0.78700  0.60800  0.93400  1.0000
