data_image0
_chemical_formula_structural       As16Ga8Rb16
_chemical_formula_sum              "As16 Ga8 Rb16"
_cell_length_a       10.9981
_cell_length_b       14.9163
_cell_length_c       9.11572
_cell_angle_alpha    90
_cell_angle_beta     108.504
_cell_angle_gamma    90

_space_group_name_H-M_alt    "P 1"
_space_group_IT_number       1

loop_
  _space_group_symop_operation_xyz
  'x, y, z'

loop_
  _atom_site_type_symbol
  _atom_site_label
  _atom_site_symmetry_multiplicity
  _atom_site_fract_x
  _atom_site_fract_y
  _atom_site_fract_z
  _atom_site_occupancy
  As  As1       1.0  0.27900  0.96200  0.00649  1.0000
  As  As2       1.0  0.25700  0.55400  0.05510  1.0000
  As  As3       1.0  0.71200  0.19400  0.08490  1.0000
  As  As4       1.0  0.27400  0.28700  0.16100  1.0000
  As  As5       1.0  0.22600  0.78700  0.33900  1.0000
  As  As6       1.0  0.78800  0.69400  0.41500  1.0000
  As  As7       1.0  0.24300  0.05380  0.44500  1.0000
  As  As8       1.0  0.22100  0.46200  0.49400  1.0000
  As  As9       1.0  0.77900  0.53800  0.50600  1.0000
  As  As10      1.0  0.75700  0.94600  0.55500  1.0000
  As  As11      1.0  0.21200  0.30600  0.58500  1.0000
  As  As12      1.0  0.77400  0.21300  0.66100  1.0000
  As  As13      1.0  0.72600  0.71300  0.83900  1.0000
  As  As14      1.0  0.28800  0.80600  0.91500  1.0000
  As  As15      1.0  0.74300  0.44600  0.94500  1.0000
  As  As16      1.0  0.72100  0.03800  0.99400  1.0000
  Ga  Ga1       1.0  0.25500  0.71400  0.11600  1.0000
  Ga  Ga2       1.0  0.24300  0.43900  0.24100  1.0000
  Ga  Ga3       1.0  0.25700  0.93900  0.25900  1.0000
  Ga  Ga4       1.0  0.24500  0.21400  0.38400  1.0000
  Ga  Ga5       1.0  0.75500  0.78600  0.61600  1.0000
  Ga  Ga6       1.0  0.74300  0.06070  0.74100  1.0000
  Ga  Ga7       1.0  0.75700  0.56100  0.75900  1.0000
  Ga  Ga8       1.0  0.74500  0.28600  0.88400  1.0000
  Rb  Rb1       1.0  0.03840  0.12900  0.01370  1.0000
  Rb  Rb2       1.0  0.57000  0.61500  0.07100  1.0000
  Rb  Rb3       1.0  0.59500  0.86700  0.18000  1.0000
  Rb  Rb4       1.0  0.97500  0.61100  0.18500  1.0000
  Rb  Rb5       1.0  0.52500  0.11100  0.31500  1.0000
  Rb  Rb6       1.0  0.90500  0.36700  0.32000  1.0000
  Rb  Rb7       1.0  0.93000  0.11500  0.42900  1.0000
  Rb  Rb8       1.0  0.46200  0.62900  0.48600  1.0000
  Rb  Rb9       1.0  0.53800  0.37100  0.51400  1.0000
  Rb  Rb10      1.0  0.07040  0.88500  0.57100  1.0000
  Rb  Rb11      1.0  0.09470  0.63300  0.68000  1.0000
  Rb  Rb12      1.0  0.47500  0.88900  0.68500  1.0000
  Rb  Rb13      1.0  0.02480  0.38900  0.81500  1.0000
  Rb  Rb14      1.0  0.40500  0.13300  0.82000  1.0000
  Rb  Rb15      1.0  0.43000  0.38500  0.92900  1.0000
  Rb  Rb16      1.0  0.96200  0.87100  0.98600  1.0000
