data_image0
_chemical_formula_structural       As8Na16Te16
_chemical_formula_sum              "As8 Na16 Te16"
_cell_length_a       13.8691
_cell_length_b       9.81502
_cell_length_c       8.71097
_cell_angle_alpha    90
_cell_angle_beta     90
_cell_angle_gamma    90

_space_group_name_H-M_alt    "P 1"
_space_group_IT_number       1

loop_
  _space_group_symop_operation_xyz
  'x, y, z'

loop_
  _atom_site_type_symbol
  _atom_site_label
  _atom_site_symmetry_multiplicity
  _atom_site_fract_x
  _atom_site_fract_y
  _atom_site_fract_z
  _atom_site_occupancy
  As  As1       1.0  0.88500  0.60000  0.02470  1.0000
  As  As2       1.0  0.30900  0.72500  0.15100  1.0000
  As  As3       1.0  0.69100  0.22500  0.34900  1.0000
  As  As4       1.0  0.11500  0.10000  0.47500  1.0000
  As  As5       1.0  0.61500  0.40000  0.52500  1.0000
  As  As6       1.0  0.19100  0.27500  0.65100  1.0000
  As  As7       1.0  0.80900  0.77500  0.84900  1.0000
  As  As8       1.0  0.38500  0.90000  0.97500  1.0000
  Na  Na1       1.0  0.55900  0.50200  0.01880  1.0000
  Na  Na2       1.0  0.81300  0.31000  0.07110  1.0000
  Na  Na3       1.0  0.12000  0.39000  0.16200  1.0000
  Na  Na4       1.0  0.62600  0.87700  0.17600  1.0000
  Na  Na5       1.0  0.37400  0.37700  0.32400  1.0000
  Na  Na6       1.0  0.88000  0.89000  0.33800  1.0000
  Na  Na7       1.0  0.18700  0.81000  0.42900  1.0000
  Na  Na8       1.0  0.44100  0.00246  0.48100  1.0000
  Na  Na9       1.0  0.94100  0.49800  0.51900  1.0000
  Na  Na10      1.0  0.68700  0.69000  0.57100  1.0000
  Na  Na11      1.0  0.38000  0.61000  0.66200  1.0000
  Na  Na12      1.0  0.87400  0.12300  0.67600  1.0000
  Na  Na13      1.0  0.12600  0.62300  0.82400  1.0000
  Na  Na14      1.0  0.62000  0.11000  0.83800  1.0000
  Na  Na15      1.0  0.31300  0.19000  0.92900  1.0000
  Na  Na16      1.0  0.05880  0.99800  0.98100  1.0000
  Te  Te1       1.0  0.81700  0.99600  0.01480  1.0000
  Te  Te2       1.0  0.03860  0.71000  0.14800  1.0000
  Te  Te3       1.0  0.54100  0.20000  0.16500  1.0000
  Te  Te4       1.0  0.74800  0.58900  0.23500  1.0000
  Te  Te5       1.0  0.25200  0.08950  0.26500  1.0000
  Te  Te6       1.0  0.45900  0.70000  0.33500  1.0000
  Te  Te7       1.0  0.96100  0.21000  0.35200  1.0000
  Te  Te8       1.0  0.18300  0.49600  0.48500  1.0000
  Te  Te9       1.0  0.68300  0.00379  0.51500  1.0000
  Te  Te10      1.0  0.46100  0.29000  0.64800  1.0000
  Te  Te11      1.0  0.95900  0.80000  0.66500  1.0000
  Te  Te12      1.0  0.75200  0.41100  0.73500  1.0000
  Te  Te13      1.0  0.24800  0.91100  0.76500  1.0000
  Te  Te14      1.0  0.04090  0.30000  0.83500  1.0000
  Te  Te15      1.0  0.53900  0.79000  0.85200  1.0000
  Te  Te16      1.0  0.31700  0.50400  0.98500  1.0000
