data_image0
_chemical_formula_structural       As8K16Te16
_chemical_formula_sum              "As8 K16 Te16"
_cell_length_a       20.5001
_cell_length_b       8.32539
_cell_length_c       9.20503
_cell_angle_alpha    90
_cell_angle_beta     90
_cell_angle_gamma    90

_space_group_name_H-M_alt    "P 1"
_space_group_IT_number       1

loop_
  _space_group_symop_operation_xyz
  'x, y, z'

loop_
  _atom_site_type_symbol
  _atom_site_label
  _atom_site_symmetry_multiplicity
  _atom_site_fract_x
  _atom_site_fract_y
  _atom_site_fract_z
  _atom_site_occupancy
  As  As1       1.0  0.11300  0.75000  0.07200  1.0000
  As  As2       1.0  0.84900  0.25000  0.18800  1.0000
  As  As3       1.0  0.34900  0.25000  0.31200  1.0000
  As  As4       1.0  0.61300  0.75000  0.42800  1.0000
  As  As5       1.0  0.38700  0.25000  0.57200  1.0000
  As  As6       1.0  0.65100  0.75000  0.68800  1.0000
  As  As7       1.0  0.15100  0.75000  0.81200  1.0000
  As  As8       1.0  0.88700  0.25000  0.92800  1.0000
  K   K1        1.0  0.68800  0.25000  0.00064  1.0000
  K   K2        1.0  0.55900  0.75000  0.07440  1.0000
  K   K3        1.0  0.04330  0.25000  0.08110  1.0000
  K   K4        1.0  0.78400  0.75000  0.10400  1.0000
  K   K5        1.0  0.28400  0.75000  0.39600  1.0000
  K   K6        1.0  0.54300  0.25000  0.41900  1.0000
  K   K7        1.0  0.05880  0.75000  0.42600  1.0000
  K   K8        1.0  0.18800  0.25000  0.49900  1.0000
  K   K9        1.0  0.81200  0.75000  0.50100  1.0000
  K   K10       1.0  0.94100  0.25000  0.57400  1.0000
  K   K11       1.0  0.45700  0.75000  0.58100  1.0000
  K   K12       1.0  0.71600  0.25000  0.60400  1.0000
  K   K13       1.0  0.21600  0.25000  0.89600  1.0000
  K   K14       1.0  0.95700  0.75000  0.91900  1.0000
  K   K15       1.0  0.44100  0.25000  0.92600  1.0000
  K   K16       1.0  0.31200  0.75000  0.99900  1.0000
  Te  Te1       1.0  0.17900  0.50700  0.18100  1.0000
  Te  Te2       1.0  0.17900  0.99300  0.18100  1.0000
  Te  Te3       1.0  0.41800  0.50500  0.23900  1.0000
  Te  Te4       1.0  0.41800  0.99500  0.23900  1.0000
  Te  Te5       1.0  0.91800  0.50500  0.26100  1.0000
  Te  Te6       1.0  0.91800  0.99500  0.26100  1.0000
  Te  Te7       1.0  0.67900  0.50700  0.31900  1.0000
  Te  Te8       1.0  0.67900  0.99300  0.31900  1.0000
  Te  Te9       1.0  0.32100  0.00746  0.68100  1.0000
  Te  Te10      1.0  0.32100  0.49300  0.68100  1.0000
  Te  Te11      1.0  0.08180  0.00508  0.73900  1.0000
  Te  Te12      1.0  0.08180  0.49500  0.73900  1.0000
  Te  Te13      1.0  0.58200  0.00508  0.76100  1.0000
  Te  Te14      1.0  0.58200  0.49500  0.76100  1.0000
  Te  Te15      1.0  0.82100  0.00746  0.81900  1.0000
  Te  Te16      1.0  0.82100  0.49300  0.81900  1.0000
