data_image0
_chemical_formula_structural       As16Ga8K16
_chemical_formula_sum              "As16 Ga8 K16"
_cell_length_a       10.579
_cell_length_b       14.6123
_cell_length_c       8.97343
_cell_angle_alpha    90
_cell_angle_beta     110.214
_cell_angle_gamma    90

_space_group_name_H-M_alt    "P 1"
_space_group_IT_number       1

loop_
  _space_group_symop_operation_xyz
  'x, y, z'

loop_
  _atom_site_type_symbol
  _atom_site_label
  _atom_site_symmetry_multiplicity
  _atom_site_fract_x
  _atom_site_fract_y
  _atom_site_fract_z
  _atom_site_occupancy
  As  As1       1.0  0.27600  0.97100  0.00627  1.0000
  As  As2       1.0  0.25400  0.55200  0.04070  1.0000
  As  As3       1.0  0.71900  0.18600  0.09910  1.0000
  As  As4       1.0  0.27500  0.28400  0.16500  1.0000
  As  As5       1.0  0.22500  0.78400  0.33500  1.0000
  As  As6       1.0  0.78100  0.68600  0.40100  1.0000
  As  As7       1.0  0.24600  0.05250  0.45900  1.0000
  As  As8       1.0  0.22400  0.47100  0.49400  1.0000
  As  As9       1.0  0.77600  0.52900  0.50600  1.0000
  As  As10      1.0  0.75400  0.94800  0.54100  1.0000
  As  As11      1.0  0.21900  0.31400  0.59900  1.0000
  As  As12      1.0  0.77500  0.21600  0.66500  1.0000
  As  As13      1.0  0.72500  0.71600  0.83500  1.0000
  As  As14      1.0  0.28100  0.81400  0.90100  1.0000
  As  As15      1.0  0.74600  0.44800  0.95900  1.0000
  As  As16      1.0  0.72400  0.02940  0.99400  1.0000
  Ga  Ga1       1.0  0.25200  0.71600  0.10300  1.0000
  Ga  Ga2       1.0  0.24100  0.44100  0.23800  1.0000
  Ga  Ga3       1.0  0.25900  0.94100  0.26200  1.0000
  Ga  Ga4       1.0  0.24800  0.21600  0.39700  1.0000
  Ga  Ga5       1.0  0.75200  0.78400  0.60300  1.0000
  Ga  Ga6       1.0  0.74100  0.05910  0.73800  1.0000
  Ga  Ga7       1.0  0.75900  0.55900  0.76200  1.0000
  Ga  Ga8       1.0  0.74800  0.28400  0.89700  1.0000
  K   K1        1.0  0.03450  0.12800  0.03270  1.0000
  K   K2        1.0  0.55800  0.61900  0.04030  1.0000
  K   K3        1.0  0.59300  0.86800  0.17300  1.0000
  K   K4        1.0  0.97500  0.61300  0.18300  1.0000
  K   K5        1.0  0.52500  0.11300  0.31700  1.0000
  K   K6        1.0  0.90700  0.36800  0.32700  1.0000
  K   K7        1.0  0.94200  0.11900  0.46000  1.0000
  K   K8        1.0  0.46500  0.62800  0.46700  1.0000
  K   K9        1.0  0.53500  0.37200  0.53300  1.0000
  K   K10       1.0  0.05780  0.88100  0.54000  1.0000
  K   K11       1.0  0.09260  0.63200  0.67300  1.0000
  K   K12       1.0  0.47500  0.88700  0.68300  1.0000
  K   K13       1.0  0.02500  0.38700  0.81700  1.0000
  K   K14       1.0  0.40700  0.13200  0.82700  1.0000
  K   K15       1.0  0.44200  0.38100  0.96000  1.0000
  K   K16       1.0  0.96500  0.87200  0.96700  1.0000
