data_image0
_chemical_formula_structural       Ba6O26P8
_chemical_formula_sum              "Ba6 O26 P8"
_cell_length_a       7.54703
_cell_length_b       8.59896
_cell_length_c       10.5206
_cell_angle_alpha    108.375
_cell_angle_beta     104.803
_cell_angle_gamma    102.323

_space_group_name_H-M_alt    "P 1"
_space_group_IT_number       1

loop_
  _space_group_symop_operation_xyz
  'x, y, z'

loop_
  _atom_site_type_symbol
  _atom_site_label
  _atom_site_symmetry_multiplicity
  _atom_site_fract_x
  _atom_site_fract_y
  _atom_site_fract_z
  _atom_site_occupancy
  Ba  Ba1       1.0  0.50000  0.00000  0.00000  1.0000
  Ba  Ba2       1.0  0.14700  0.23000  0.22900  1.0000
  Ba  Ba3       1.0  0.37000  0.77900  0.27100  1.0000
  Ba  Ba4       1.0  0.00000  0.00000  0.50000  1.0000
  Ba  Ba5       1.0  0.63000  0.22100  0.72900  1.0000
  Ba  Ba6       1.0  0.85300  0.77000  0.77100  1.0000
  O   O1        1.0  0.81300  0.88600  0.02490  1.0000
  O   O2        1.0  0.71700  0.30200  0.02980  1.0000
  O   O3        1.0  0.79600  0.60800  0.06310  1.0000
  O   O4        1.0  0.06210  0.50300  0.17800  1.0000
  O   O5        1.0  0.70200  0.83600  0.22400  1.0000
  O   O6        1.0  0.05440  0.89300  0.24300  1.0000
  O   O7        1.0  0.46500  0.11600  0.26000  1.0000
  O   O8        1.0  0.46000  0.47900  0.26200  1.0000
  O   O9        1.0  0.81500  0.54300  0.28600  1.0000
  O   O10       1.0  0.82500  0.20500  0.29700  1.0000
  O   O11       1.0  0.69500  0.41400  0.44700  1.0000
  O   O12       1.0  0.72600  0.72000  0.48400  1.0000
  O   O13       1.0  0.70400  0.14100  0.48700  1.0000
  O   O14       1.0  0.29600  0.85900  0.51300  1.0000
  O   O15       1.0  0.27400  0.28000  0.51600  1.0000
  O   O16       1.0  0.30500  0.58600  0.55300  1.0000
  O   O17       1.0  0.17500  0.79500  0.70300  1.0000
  O   O18       1.0  0.18500  0.45700  0.71400  1.0000
  O   O19       1.0  0.54000  0.52100  0.73800  1.0000
  O   O20       1.0  0.53500  0.88400  0.74000  1.0000
  O   O21       1.0  0.94600  0.10700  0.75700  1.0000
  O   O22       1.0  0.29800  0.16400  0.77600  1.0000
  O   O23       1.0  0.93800  0.49700  0.82200  1.0000
  O   O24       1.0  0.20400  0.39200  0.93700  1.0000
  O   O25       1.0  0.28300  0.69800  0.97000  1.0000
  O   O26       1.0  0.18700  0.11400  0.97500  1.0000
  P   P1        1.0  0.84900  0.47800  0.13400  1.0000
  P   P2        1.0  0.84200  0.81800  0.14300  1.0000
  P   P3        1.0  0.66200  0.54200  0.36700  1.0000
  P   P4        1.0  0.67300  0.20600  0.36700  1.0000
  P   P5        1.0  0.32700  0.79400  0.63300  1.0000
  P   P6        1.0  0.33800  0.45800  0.63300  1.0000
  P   P7        1.0  0.15800  0.18200  0.85700  1.0000
  P   P8        1.0  0.15100  0.52200  0.86600  1.0000
