data_image0
_chemical_formula_structural       Bi2Ti4
_chemical_formula_sum              "Bi2 Ti4"
_cell_length_a       4.17587
_cell_length_b       4.17587
_cell_length_c       7.66164
_cell_angle_alpha    105.814
_cell_angle_beta     105.814
_cell_angle_gamma    90

_space_group_name_H-M_alt    "P 1"
_space_group_IT_number       1

loop_
  _space_group_symop_operation_xyz
  'x, y, z'

loop_
  _atom_site_type_symbol
  _atom_site_label
  _atom_site_symmetry_multiplicity
  _atom_site_fract_x
  _atom_site_fract_y
  _atom_site_fract_z
  _atom_site_occupancy
  Bi  Bi1       1.0  0.65100  0.65100  0.30200  1.0000
  Bi  Bi2       1.0  0.34900  0.34900  0.69800  1.0000
  Ti  Ti1       1.0  0.50000  0.00000  0.00000  1.0000
  Ti  Ti2       1.0  0.00000  0.50000  0.00000  1.0000
  Ti  Ti3       1.0  0.13800  0.13800  0.27600  1.0000
  Ti  Ti4       1.0  0.86200  0.86200  0.72400  1.0000
