data_image0
_chemical_formula_structural       Ce6N22Si12
_chemical_formula_sum              "Ce6 N22 Si12"
_cell_length_a       10.1657
_cell_length_b       10.1657
_cell_length_c       4.85762
_cell_angle_alpha    90
_cell_angle_beta     90
_cell_angle_gamma    90

_space_group_name_H-M_alt    "P 1"
_space_group_IT_number       1

loop_
  _space_group_symop_operation_xyz
  'x, y, z'

loop_
  _atom_site_type_symbol
  _atom_site_label
  _atom_site_symmetry_multiplicity
  _atom_site_fract_x
  _atom_site_fract_y
  _atom_site_fract_z
  _atom_site_occupancy
  Ce  Ce1       1.0  0.31800  0.18200  0.63300  1.0000
  Ce  Ce2       1.0  0.81800  0.31800  0.63300  1.0000
  Ce  Ce3       1.0  0.18200  0.68200  0.63300  1.0000
  Ce  Ce4       1.0  0.68200  0.81800  0.63300  1.0000
  Ce  Ce5       1.0  0.00000  0.00000  0.65300  1.0000
  Ce  Ce6       1.0  0.50000  0.50000  0.65300  1.0000
  N   N1        1.0  0.17900  0.08040  0.00694  1.0000
  N   N2        1.0  0.92000  0.17900  0.00694  1.0000
  N   N3        1.0  0.42000  0.32100  0.00694  1.0000
  N   N4        1.0  0.67900  0.42000  0.00694  1.0000
  N   N5        1.0  0.32100  0.58000  0.00694  1.0000
  N   N6        1.0  0.58000  0.67900  0.00694  1.0000
  N   N7        1.0  0.08040  0.82100  0.00694  1.0000
  N   N8        1.0  0.82100  0.92000  0.00694  1.0000
  N   N9        1.0  0.76900  0.07450  0.46900  1.0000
  N   N10       1.0  0.07450  0.23100  0.46900  1.0000
  N   N11       1.0  0.57400  0.26900  0.46900  1.0000
  N   N12       1.0  0.26900  0.42600  0.46900  1.0000
  N   N13       1.0  0.73100  0.57400  0.46900  1.0000
  N   N14       1.0  0.42600  0.73100  0.46900  1.0000
  N   N15       1.0  0.92600  0.76900  0.46900  1.0000
  N   N16       1.0  0.23100  0.92600  0.46900  1.0000
  N   N17       1.0  0.50000  0.00000  0.57400  1.0000
  N   N18       1.0  0.00000  0.50000  0.57400  1.0000
  N   N19       1.0  0.65300  0.15300  0.95200  1.0000
  N   N20       1.0  0.15300  0.34700  0.95200  1.0000
  N   N21       1.0  0.84700  0.65300  0.95200  1.0000
  N   N22       1.0  0.34700  0.84700  0.95200  1.0000
  Si  Si1       1.0  0.79100  0.07840  0.11500  1.0000
  Si  Si2       1.0  0.07840  0.20900  0.11500  1.0000
  Si  Si3       1.0  0.57800  0.29100  0.11500  1.0000
  Si  Si4       1.0  0.29100  0.42200  0.11500  1.0000
  Si  Si5       1.0  0.70900  0.57800  0.11500  1.0000
  Si  Si6       1.0  0.42200  0.70900  0.11500  1.0000
  Si  Si7       1.0  0.92200  0.79100  0.11500  1.0000
  Si  Si8       1.0  0.20900  0.92200  0.11500  1.0000
  Si  Si9       1.0  0.61700  0.11700  0.60500  1.0000
  Si  Si10      1.0  0.11700  0.38300  0.60500  1.0000
  Si  Si11      1.0  0.88300  0.61700  0.60500  1.0000
  Si  Si12      1.0  0.38300  0.88300  0.60500  1.0000
