data_image0
_chemical_formula_structural       B4Cl5La4
_chemical_formula_sum              "B4 Cl5 La4"
_cell_length_a       4.28204
_cell_length_b       8.65265
_cell_length_c       9.08637
_cell_angle_alpha    63.6765
_cell_angle_beta     103.629
_cell_angle_gamma    104.326

_space_group_name_H-M_alt    "P 1"
_space_group_IT_number       1

loop_
  _space_group_symop_operation_xyz
  'x, y, z'

loop_
  _atom_site_type_symbol
  _atom_site_label
  _atom_site_symmetry_multiplicity
  _atom_site_fract_x
  _atom_site_fract_y
  _atom_site_fract_z
  _atom_site_occupancy
  B   B1        1.0  0.31400  0.00000  0.00000  1.0000
  B   B2        1.0  0.68600  0.00000  0.00000  1.0000
  B   B3        1.0  0.97600  0.87400  0.07760  1.0000
  B   B4        1.0  0.02410  0.12600  0.92200  1.0000
  Cl  Cl1       1.0  0.75200  0.35300  0.15100  1.0000
  Cl  Cl2       1.0  0.64900  0.85400  0.44300  1.0000
  Cl  Cl3       1.0  0.00000  0.50000  0.50000  1.0000
  Cl  Cl4       1.0  0.35100  0.14600  0.55700  1.0000
  Cl  Cl5       1.0  0.24800  0.64700  0.84900  1.0000
  La  La1       1.0  0.44000  0.67700  0.20300  1.0000
  La  La2       1.0  0.16000  0.08400  0.23700  1.0000
  La  La3       1.0  0.84000  0.91600  0.76300  1.0000
  La  La4       1.0  0.56000  0.32300  0.79700  1.0000
