data_image0
_chemical_formula_structural       Ga8Rb16Sb16
_chemical_formula_sum              "Ga8 Rb16 Sb16"
_cell_length_a       15.6216
_cell_length_b       10.9324
_cell_length_c       9.41364
_cell_angle_alpha    90
_cell_angle_beta     90
_cell_angle_gamma    90

_space_group_name_H-M_alt    "P 1"
_space_group_IT_number       1

loop_
  _space_group_symop_operation_xyz
  'x, y, z'

loop_
  _atom_site_type_symbol
  _atom_site_label
  _atom_site_symmetry_multiplicity
  _atom_site_fract_x
  _atom_site_fract_y
  _atom_site_fract_z
  _atom_site_occupancy
  Ga  Ga1       1.0  0.90600  0.25000  0.10100  1.0000
  Ga  Ga2       1.0  0.18100  0.25000  0.22200  1.0000
  Ga  Ga3       1.0  0.68100  0.25000  0.27800  1.0000
  Ga  Ga4       1.0  0.40600  0.25000  0.39900  1.0000
  Ga  Ga5       1.0  0.59400  0.75000  0.60100  1.0000
  Ga  Ga6       1.0  0.31900  0.75000  0.72200  1.0000
  Ga  Ga7       1.0  0.81900  0.75000  0.77800  1.0000
  Ga  Ga8       1.0  0.09350  0.75000  0.89900  1.0000
  Rb  Rb1       1.0  0.77100  0.53300  0.10400  1.0000
  Rb  Rb2       1.0  0.77100  0.96700  0.10400  1.0000
  Rb  Rb3       1.0  0.51800  0.53200  0.22600  1.0000
  Rb  Rb4       1.0  0.51800  0.96800  0.22600  1.0000
  Rb  Rb5       1.0  0.01780  0.53200  0.27400  1.0000
  Rb  Rb6       1.0  0.01780  0.96800  0.27400  1.0000
  Rb  Rb7       1.0  0.27100  0.53300  0.39600  1.0000
  Rb  Rb8       1.0  0.27100  0.96700  0.39600  1.0000
  Rb  Rb9       1.0  0.72900  0.03320  0.60400  1.0000
  Rb  Rb10      1.0  0.72900  0.46700  0.60400  1.0000
  Rb  Rb11      1.0  0.98200  0.03200  0.72600  1.0000
  Rb  Rb12      1.0  0.98200  0.46800  0.72600  1.0000
  Rb  Rb13      1.0  0.48200  0.03200  0.77400  1.0000
  Rb  Rb14      1.0  0.48200  0.46800  0.77400  1.0000
  Rb  Rb15      1.0  0.22900  0.03320  0.89600  1.0000
  Rb  Rb16      1.0  0.22900  0.46700  0.89600  1.0000
  Sb  Sb1       1.0  0.63700  0.25000  0.00860  1.0000
  Sb  Sb2       1.0  0.06580  0.25000  0.01410  1.0000
  Sb  Sb3       1.0  0.19600  0.75000  0.11900  1.0000
  Sb  Sb4       1.0  0.34500  0.25000  0.14200  1.0000
  Sb  Sb5       1.0  0.84500  0.25000  0.35800  1.0000
  Sb  Sb6       1.0  0.69600  0.75000  0.38100  1.0000
  Sb  Sb7       1.0  0.56600  0.25000  0.48600  1.0000
  Sb  Sb8       1.0  0.13700  0.25000  0.49100  1.0000
  Sb  Sb9       1.0  0.86300  0.75000  0.50900  1.0000
  Sb  Sb10      1.0  0.43400  0.75000  0.51400  1.0000
  Sb  Sb11      1.0  0.30400  0.25000  0.61900  1.0000
  Sb  Sb12      1.0  0.15500  0.75000  0.64200  1.0000
  Sb  Sb13      1.0  0.65500  0.75000  0.85800  1.0000
  Sb  Sb14      1.0  0.80400  0.25000  0.88100  1.0000
  Sb  Sb15      1.0  0.93400  0.75000  0.98600  1.0000
  Sb  Sb16      1.0  0.36300  0.75000  0.99100  1.0000
