data_image0
_chemical_formula_structural       Cs16Ga8Sb16
_chemical_formula_sum              "Cs16 Ga8 Sb16"
_cell_length_a       18.2897
_cell_length_b       11.3396
_cell_length_c       8.51375
_cell_angle_alpha    90
_cell_angle_beta     90
_cell_angle_gamma    90

_space_group_name_H-M_alt    "P 1"
_space_group_IT_number       1

loop_
  _space_group_symop_operation_xyz
  'x, y, z'

loop_
  _atom_site_type_symbol
  _atom_site_label
  _atom_site_symmetry_multiplicity
  _atom_site_fract_x
  _atom_site_fract_y
  _atom_site_fract_z
  _atom_site_occupancy
  Cs  Cs1       1.0  0.12800  0.03290  0.12400  1.0000
  Cs  Cs2       1.0  0.12800  0.46700  0.12400  1.0000
  Cs  Cs3       1.0  0.36400  0.55200  0.13000  1.0000
  Cs  Cs4       1.0  0.36400  0.94800  0.13000  1.0000
  Cs  Cs5       1.0  0.86400  0.55200  0.37000  1.0000
  Cs  Cs6       1.0  0.86400  0.94800  0.37000  1.0000
  Cs  Cs7       1.0  0.62800  0.03290  0.37600  1.0000
  Cs  Cs8       1.0  0.62800  0.46700  0.37600  1.0000
  Cs  Cs9       1.0  0.37200  0.53300  0.62400  1.0000
  Cs  Cs10      1.0  0.37200  0.96700  0.62400  1.0000
  Cs  Cs11      1.0  0.13600  0.05250  0.63000  1.0000
  Cs  Cs12      1.0  0.13600  0.44800  0.63000  1.0000
  Cs  Cs13      1.0  0.63600  0.05250  0.87000  1.0000
  Cs  Cs14      1.0  0.63600  0.44800  0.87000  1.0000
  Cs  Cs15      1.0  0.87200  0.53300  0.87600  1.0000
  Cs  Cs16      1.0  0.87200  0.96700  0.87600  1.0000
  Ga  Ga1       1.0  0.57800  0.75000  0.10800  1.0000
  Ga  Ga2       1.0  0.92100  0.25000  0.14100  1.0000
  Ga  Ga3       1.0  0.42100  0.25000  0.35900  1.0000
  Ga  Ga4       1.0  0.07850  0.75000  0.39200  1.0000
  Ga  Ga5       1.0  0.92200  0.25000  0.60800  1.0000
  Ga  Ga6       1.0  0.57900  0.75000  0.64100  1.0000
  Ga  Ga7       1.0  0.07900  0.75000  0.85900  1.0000
  Ga  Ga8       1.0  0.42200  0.25000  0.89200  1.0000
  Sb  Sb1       1.0  0.71900  0.75000  0.04500  1.0000
  Sb  Sb2       1.0  0.00454  0.75000  0.12500  1.0000
  Sb  Sb3       1.0  0.51300  0.25000  0.12600  1.0000
  Sb  Sb4       1.0  0.78100  0.25000  0.20200  1.0000
  Sb  Sb5       1.0  0.28100  0.25000  0.29800  1.0000
  Sb  Sb6       1.0  0.01290  0.25000  0.37400  1.0000
  Sb  Sb7       1.0  0.50500  0.75000  0.37500  1.0000
  Sb  Sb8       1.0  0.21900  0.75000  0.45500  1.0000
  Sb  Sb9       1.0  0.78100  0.25000  0.54500  1.0000
  Sb  Sb10      1.0  0.49500  0.25000  0.62500  1.0000
  Sb  Sb11      1.0  0.98700  0.75000  0.62600  1.0000
  Sb  Sb12      1.0  0.71900  0.75000  0.70200  1.0000
  Sb  Sb13      1.0  0.21900  0.75000  0.79800  1.0000
  Sb  Sb14      1.0  0.48700  0.75000  0.87400  1.0000
  Sb  Sb15      1.0  0.99500  0.25000  0.87500  1.0000
  Sb  Sb16      1.0  0.28100  0.25000  0.95500  1.0000
