data_image0
_chemical_formula_structural       Br28Ta12
_chemical_formula_sum              "Br28 Ta12"
_cell_length_a       9.78722
_cell_length_b       9.78722
_cell_length_c       11.659
_cell_angle_alpha    90
_cell_angle_beta     90
_cell_angle_gamma    92.8816

_space_group_name_H-M_alt    "P 1"
_space_group_IT_number       1

loop_
  _space_group_symop_operation_xyz
  'x, y, z'

loop_
  _atom_site_type_symbol
  _atom_site_label
  _atom_site_symmetry_multiplicity
  _atom_site_fract_x
  _atom_site_fract_y
  _atom_site_fract_z
  _atom_site_occupancy
  Br  Br1       1.0  0.75600  0.24400  0.00000  1.0000
  Br  Br2       1.0  0.24400  0.75600  0.00000  1.0000
  Br  Br3       1.0  0.39200  0.14200  0.01360  1.0000
  Br  Br4       1.0  0.14200  0.39200  0.01360  1.0000
  Br  Br5       1.0  0.86000  0.86000  0.23100  1.0000
  Br  Br6       1.0  0.71800  0.47000  0.24700  1.0000
  Br  Br7       1.0  0.47000  0.71800  0.24700  1.0000
  Br  Br8       1.0  0.60900  0.10900  0.25000  1.0000
  Br  Br9       1.0  0.10900  0.60900  0.25000  1.0000
  Br  Br10      1.0  0.97000  0.21800  0.25300  1.0000
  Br  Br11      1.0  0.21800  0.97000  0.25300  1.0000
  Br  Br12      1.0  0.36000  0.36000  0.26900  1.0000
  Br  Br13      1.0  0.89200  0.64200  0.48600  1.0000
  Br  Br14      1.0  0.64200  0.89200  0.48600  1.0000
  Br  Br15      1.0  0.74400  0.25600  0.50000  1.0000
  Br  Br16      1.0  0.25600  0.74400  0.50000  1.0000
  Br  Br17      1.0  0.35800  0.10800  0.51400  1.0000
  Br  Br18      1.0  0.10800  0.35800  0.51400  1.0000
  Br  Br19      1.0  0.64000  0.64000  0.73100  1.0000
  Br  Br20      1.0  0.78200  0.03020  0.74700  1.0000
  Br  Br21      1.0  0.03020  0.78200  0.74700  1.0000
  Br  Br22      1.0  0.89100  0.39100  0.75000  1.0000
  Br  Br23      1.0  0.39100  0.89100  0.75000  1.0000
  Br  Br24      1.0  0.53000  0.28200  0.75300  1.0000
  Br  Br25      1.0  0.28200  0.53000  0.75300  1.0000
  Br  Br26      1.0  0.14000  0.14000  0.76900  1.0000
  Br  Br27      1.0  0.85800  0.60800  0.98600  1.0000
  Br  Br28      1.0  0.60800  0.85800  0.98600  1.0000
  Ta  Ta1       1.0  0.62300  0.62300  0.08780  1.0000
  Ta  Ta2       1.0  0.54800  0.33800  0.10800  1.0000
  Ta  Ta3       1.0  0.33800  0.54800  0.10800  1.0000
  Ta  Ta4       1.0  0.83800  0.04760  0.39200  1.0000
  Ta  Ta5       1.0  0.04760  0.83800  0.39200  1.0000
  Ta  Ta6       1.0  0.12300  0.12300  0.41200  1.0000
  Ta  Ta7       1.0  0.87700  0.87700  0.58800  1.0000
  Ta  Ta8       1.0  0.95200  0.16200  0.60800  1.0000
  Ta  Ta9       1.0  0.16200  0.95200  0.60800  1.0000
  Ta  Ta10      1.0  0.66200  0.45200  0.89200  1.0000
  Ta  Ta11      1.0  0.45200  0.66200  0.89200  1.0000
  Ta  Ta12      1.0  0.37700  0.37700  0.91200  1.0000
