data_image0
_chemical_formula_structural       Cr5S8
_chemical_formula_sum              "Cr5 S8"
_cell_length_a       6.33729
_cell_length_b       6.33729
_cell_length_c       6.86846
_cell_angle_alpha    106.436
_cell_angle_beta     105.046
_cell_angle_gamma    114.329

_space_group_name_H-M_alt    "P 1"
_space_group_IT_number       1

loop_
  _space_group_symop_operation_xyz
  'x, y, z'

loop_
  _atom_site_type_symbol
  _atom_site_label
  _atom_site_symmetry_multiplicity
  _atom_site_fract_x
  _atom_site_fract_y
  _atom_site_fract_z
  _atom_site_occupancy
  Cr  Cr1       1.0  0.73800  0.24800  0.98600  1.0000
  Cr  Cr2       1.0  0.00000  0.00000  0.00000  1.0000
  Cr  Cr3       1.0  0.26200  0.75200  0.01420  1.0000
  Cr  Cr4       1.0  0.27000  0.77000  0.50000  1.0000
  Cr  Cr5       1.0  0.73000  0.23000  0.50000  1.0000
  S   S1        1.0  0.45300  0.20300  0.16800  1.0000
  S   S2        1.0  0.96500  0.71500  0.16800  1.0000
  S   S3        1.0  0.02250  0.29900  0.32100  1.0000
  S   S4        1.0  0.54700  0.78600  0.33300  1.0000
  S   S5        1.0  0.45300  0.21400  0.66700  1.0000
  S   S6        1.0  0.97800  0.70100  0.67900  1.0000
  S   S7        1.0  0.03530  0.28500  0.83200  1.0000
  S   S8        1.0  0.54700  0.79700  0.83200  1.0000
