data_image0
_chemical_formula_structural       Cl32Mo2Te6
_chemical_formula_sum              "Cl32 Mo2 Te6"
_cell_length_a       10.0821
_cell_length_b       10.0821
_cell_length_c       11.9651
_cell_angle_alpha    90
_cell_angle_beta     90
_cell_angle_gamma    101.127

_space_group_name_H-M_alt    "P 1"
_space_group_IT_number       1

loop_
  _space_group_symop_operation_xyz
  'x, y, z'

loop_
  _atom_site_type_symbol
  _atom_site_label
  _atom_site_symmetry_multiplicity
  _atom_site_fract_x
  _atom_site_fract_y
  _atom_site_fract_z
  _atom_site_occupancy
  Cl  Cl1       1.0  0.86000  0.64300  0.08680  1.0000
  Cl  Cl2       1.0  0.64300  0.86000  0.08680  1.0000
  Cl  Cl3       1.0  0.74300  0.24300  0.09440  1.0000
  Cl  Cl4       1.0  0.24300  0.74300  0.09440  1.0000
  Cl  Cl5       1.0  0.00898  0.00898  0.10500  1.0000
  Cl  Cl6       1.0  0.52300  0.52300  0.10800  1.0000
  Cl  Cl7       1.0  0.40100  0.10200  0.11700  1.0000
  Cl  Cl8       1.0  0.10200  0.40100  0.11700  1.0000
  Cl  Cl9       1.0  0.82400  0.05450  0.34100  1.0000
  Cl  Cl10      1.0  0.05450  0.82400  0.34100  1.0000
  Cl  Cl11      1.0  0.19800  0.19800  0.34500  1.0000
  Cl  Cl12      1.0  0.89800  0.43300  0.35800  1.0000
  Cl  Cl13      1.0  0.43300  0.89800  0.35800  1.0000
  Cl  Cl14      1.0  0.53100  0.30800  0.37000  1.0000
  Cl  Cl15      1.0  0.30800  0.53100  0.37000  1.0000
  Cl  Cl16      1.0  0.69100  0.69100  0.38200  1.0000
  Cl  Cl17      1.0  0.35700  0.14000  0.58700  1.0000
  Cl  Cl18      1.0  0.14000  0.35700  0.58700  1.0000
  Cl  Cl19      1.0  0.75700  0.25700  0.59400  1.0000
  Cl  Cl20      1.0  0.25700  0.75700  0.59400  1.0000
  Cl  Cl21      1.0  0.99100  0.99100  0.60500  1.0000
  Cl  Cl22      1.0  0.47700  0.47700  0.60800  1.0000
  Cl  Cl23      1.0  0.89800  0.59900  0.61700  1.0000
  Cl  Cl24      1.0  0.59900  0.89800  0.61700  1.0000
  Cl  Cl25      1.0  0.94500  0.17600  0.84100  1.0000
  Cl  Cl26      1.0  0.17600  0.94500  0.84100  1.0000
  Cl  Cl27      1.0  0.80200  0.80200  0.84500  1.0000
  Cl  Cl28      1.0  0.56700  0.10200  0.85800  1.0000
  Cl  Cl29      1.0  0.10200  0.56700  0.85800  1.0000
  Cl  Cl30      1.0  0.69200  0.46900  0.87000  1.0000
  Cl  Cl31      1.0  0.46900  0.69200  0.87000  1.0000
  Cl  Cl32      1.0  0.30900  0.30900  0.88200  1.0000
  Mo  Mo1       1.0  0.32800  0.32800  0.47300  1.0000
  Mo  Mo2       1.0  0.67200  0.67200  0.97300  1.0000
  Te  Te1       1.0  0.87000  0.87000  0.23400  1.0000
  Te  Te2       1.0  0.74200  0.45700  0.49800  1.0000
  Te  Te3       1.0  0.45700  0.74200  0.49800  1.0000
  Te  Te4       1.0  0.13000  0.13000  0.73400  1.0000
  Te  Te5       1.0  0.54300  0.25800  0.99800  1.0000
  Te  Te6       1.0  0.25800  0.54300  0.99800  1.0000
