data_image0
_chemical_formula_structural       B6Fe3Yb4
_chemical_formula_sum              "B6 Fe3 Yb4"
_cell_length_a       5.51006
_cell_length_b       5.51006
_cell_length_c       7.87585
_cell_angle_alpha    110.476
_cell_angle_beta     90
_cell_angle_gamma    120

_space_group_name_H-M_alt    "P 1"
_space_group_IT_number       1

loop_
  _space_group_symop_operation_xyz
  'x, y, z'

loop_
  _atom_site_type_symbol
  _atom_site_label
  _atom_site_symmetry_multiplicity
  _atom_site_fract_x
  _atom_site_fract_y
  _atom_site_fract_z
  _atom_site_occupancy
  B   B1        1.0  0.64600  1.00000  0.00000  1.0000
  B   B2        1.0  0.35400  0.00000  0.00000  1.0000
  B   B3        1.0  0.00000  0.35400  0.00000  1.0000
  B   B4        1.0  0.35400  0.35400  0.00000  1.0000
  B   B5        1.0  0.64600  0.64600  0.00000  1.0000
  B   B6        1.0  1.00000  0.64600  0.00000  1.0000
  Fe  Fe1       1.0  0.00000  0.00000  0.00000  1.0000
  Fe  Fe2       1.0  0.09740  0.19500  0.29200  1.0000
  Fe  Fe3       1.0  0.90300  0.80500  0.70800  1.0000
  Yb  Yb1       1.0  0.42800  0.85500  0.28300  1.0000
  Yb  Yb2       1.0  0.76800  0.53600  0.30300  1.0000
  Yb  Yb3       1.0  0.23200  0.46400  0.69700  1.0000
  Yb  Yb4       1.0  0.57200  0.14500  0.71700  1.0000
