data_image0
_chemical_formula_structural       B6Mn2Nd5
_chemical_formula_sum              "B6 Mn2 Nd5"
_cell_length_a       5.51002
_cell_length_b       5.51002
_cell_length_c       8.61117
_cell_angle_alpha    108.659
_cell_angle_beta     71.341
_cell_angle_gamma    120

_space_group_name_H-M_alt    "P 1"
_space_group_IT_number       1

loop_
  _space_group_symop_operation_xyz
  'x, y, z'

loop_
  _atom_site_type_symbol
  _atom_site_label
  _atom_site_symmetry_multiplicity
  _atom_site_fract_x
  _atom_site_fract_y
  _atom_site_fract_z
  _atom_site_occupancy
  B   B1        1.0  0.16400  0.16400  0.50000  1.0000
  B   B2        1.0  0.16400  0.50000  0.50000  1.0000
  B   B3        1.0  0.50000  0.16400  0.50000  1.0000
  B   B4        1.0  0.50000  0.83600  0.50000  1.0000
  B   B5        1.0  0.83600  0.50000  0.50000  1.0000
  B   B6        1.0  0.83600  0.83600  0.50000  1.0000
  Mn  Mn1       1.0  0.88200  0.11800  0.35500  1.0000
  Mn  Mn2       1.0  0.11800  0.88200  0.64500  1.0000
  Nd  Nd1       1.0  0.00000  0.00000  0.00000  1.0000
  Nd  Nd2       1.0  0.25200  0.74800  0.24500  1.0000
  Nd  Nd3       1.0  0.58400  0.41600  0.24900  1.0000
  Nd  Nd4       1.0  0.41600  0.58400  0.75100  1.0000
  Nd  Nd5       1.0  0.74800  0.25200  0.75500  1.0000
