data_image0
_chemical_formula_structural       Al8Mn4U
_chemical_formula_sum              "Al8 Mn4 U1"
_cell_length_a       5.11229
_cell_length_b       6.69516
_cell_length_c       6.69516
_cell_angle_alpha    98.3815
_cell_angle_beta     67.5554
_cell_angle_gamma    112.445

_space_group_name_H-M_alt    "P 1"
_space_group_IT_number       1

loop_
  _space_group_symop_operation_xyz
  'x, y, z'

loop_
  _atom_site_type_symbol
  _atom_site_label
  _atom_site_symmetry_multiplicity
  _atom_site_fract_x
  _atom_site_fract_y
  _atom_site_fract_z
  _atom_site_occupancy
  Al  Al1       1.0  0.27900  0.77900  0.22100  1.0000
  Al  Al2       1.0  0.50000  0.22100  0.22100  1.0000
  Al  Al3       1.0  0.00000  0.34000  0.34000  1.0000
  Al  Al4       1.0  0.66000  0.66000  0.34000  1.0000
  Al  Al5       1.0  0.34000  0.34000  0.66000  1.0000
  Al  Al6       1.0  0.00000  0.66000  0.66000  1.0000
  Al  Al7       1.0  0.72100  0.22100  0.77900  1.0000
  Al  Al8       1.0  0.50000  0.77900  0.77900  1.0000
  Mn  Mn1       1.0  0.00000  0.50000  0.00000  1.0000
  Mn  Mn2       1.0  0.50000  0.50000  0.00000  1.0000
  Mn  Mn3       1.0  0.00000  0.00000  0.50000  1.0000
  Mn  Mn4       1.0  0.50000  0.00000  0.50000  1.0000
  U   U1        1.0  0.00000  0.00000  0.00000  1.0000
