data_image0
_chemical_formula_structural       Ca12Cl8O16Si4
_chemical_formula_sum              "Ca12 Cl8 O16 Si4"
_cell_length_a       9.76155
_cell_length_b       6.70243
_cell_length_c       10.8052
_cell_angle_alpha    90
_cell_angle_beta     105.742
_cell_angle_gamma    90

_space_group_name_H-M_alt    "P 1"
_space_group_IT_number       1

loop_
  _space_group_symop_operation_xyz
  'x, y, z'

loop_
  _atom_site_type_symbol
  _atom_site_label
  _atom_site_symmetry_multiplicity
  _atom_site_fract_x
  _atom_site_fract_y
  _atom_site_fract_z
  _atom_site_occupancy
  Ca  Ca1       1.0  0.69800  0.25800  0.04590  1.0000
  Ca  Ca2       1.0  0.93000  0.78300  0.11300  1.0000
  Ca  Ca3       1.0  0.41600  0.04250  0.22800  1.0000
  Ca  Ca4       1.0  0.58400  0.54300  0.27200  1.0000
  Ca  Ca5       1.0  0.06950  0.28300  0.38700  1.0000
  Ca  Ca6       1.0  0.30200  0.75800  0.45400  1.0000
  Ca  Ca7       1.0  0.69800  0.24200  0.54600  1.0000
  Ca  Ca8       1.0  0.93000  0.71700  0.61300  1.0000
  Ca  Ca9       1.0  0.41600  0.45700  0.72800  1.0000
  Ca  Ca10      1.0  0.58400  0.95700  0.77200  1.0000
  Ca  Ca11      1.0  0.06950  0.21700  0.88700  1.0000
  Ca  Ca12      1.0  0.30200  0.74200  0.95400  1.0000
  Cl  Cl1       1.0  0.00865  0.20500  0.12400  1.0000
  Cl  Cl2       1.0  0.21700  0.67200  0.18200  1.0000
  Cl  Cl3       1.0  0.78300  0.17200  0.31800  1.0000
  Cl  Cl4       1.0  0.99100  0.70500  0.37600  1.0000
  Cl  Cl5       1.0  0.00865  0.29500  0.62400  1.0000
  Cl  Cl6       1.0  0.21700  0.82800  0.68200  1.0000
  Cl  Cl7       1.0  0.78300  0.32800  0.81800  1.0000
  Cl  Cl8       1.0  0.99100  0.79500  0.87600  1.0000
  O   O1        1.0  0.72400  0.93100  0.00315  1.0000
  O   O2        1.0  0.73700  0.58200  0.10900  1.0000
  O   O3        1.0  0.48500  0.31300  0.11000  1.0000
  O   O4        1.0  0.51600  0.80400  0.12100  1.0000
  O   O5        1.0  0.48400  0.30400  0.37900  1.0000
  O   O6        1.0  0.51500  0.81300  0.39000  1.0000
  O   O7        1.0  0.26300  0.08230  0.39100  1.0000
  O   O8        1.0  0.27600  0.43100  0.49700  1.0000
  O   O9        1.0  0.72400  0.56900  0.50300  1.0000
  O   O10       1.0  0.73700  0.91800  0.60900  1.0000
  O   O11       1.0  0.48500  0.18700  0.61000  1.0000
  O   O12       1.0  0.51600  0.69600  0.62100  1.0000
  O   O13       1.0  0.48400  0.19600  0.87900  1.0000
  O   O14       1.0  0.51500  0.68700  0.89000  1.0000
  O   O15       1.0  0.26300  0.41800  0.89100  1.0000
  O   O16       1.0  0.27600  0.06920  0.99700  1.0000
  Si  Si1       1.0  0.62100  0.75000  0.03060  1.0000
  Si  Si2       1.0  0.37900  0.25000  0.46900  1.0000
  Si  Si3       1.0  0.62100  0.75000  0.53100  1.0000
  Si  Si4       1.0  0.37900  0.25000  0.96900  1.0000
