data_image0
_chemical_formula_structural       C8Cs4O24Pr4
_chemical_formula_sum              "C8 Cs4 O24 Pr4"
_cell_length_a       8.50627
_cell_length_b       8.76801
_cell_length_c       8.90319
_cell_angle_alpha    98.4338
_cell_angle_beta     96.0199
_cell_angle_gamma    115.12

_space_group_name_H-M_alt    "P 1"
_space_group_IT_number       1

loop_
  _space_group_symop_operation_xyz
  'x, y, z'

loop_
  _atom_site_type_symbol
  _atom_site_label
  _atom_site_symmetry_multiplicity
  _atom_site_fract_x
  _atom_site_fract_y
  _atom_site_fract_z
  _atom_site_occupancy
  C   C1        1.0  0.00424  0.73300  0.21200  1.0000
  C   C2        1.0  0.58000  0.39900  0.23600  1.0000
  C   C3        1.0  0.45600  0.86000  0.25400  1.0000
  C   C4        1.0  0.02420  0.28300  0.28800  1.0000
  C   C5        1.0  0.97600  0.71700  0.71200  1.0000
  C   C6        1.0  0.54400  0.14000  0.74600  1.0000
  C   C7        1.0  0.42000  0.60100  0.76400  1.0000
  C   C8        1.0  0.99600  0.26700  0.78800  1.0000
  Cs  Cs1       1.0  0.24000  0.02880  0.03560  1.0000
  Cs  Cs2       1.0  0.76100  0.81300  0.47200  1.0000
  Cs  Cs3       1.0  0.23900  0.18700  0.52800  1.0000
  Cs  Cs4       1.0  0.76000  0.97100  0.96400  1.0000
  O   O1        1.0  0.44600  0.83400  0.10600  1.0000
  O   O2        1.0  0.04670  0.63300  0.11800  1.0000
  O   O3        1.0  0.50100  0.43600  0.12500  1.0000
  O   O4        1.0  0.86500  0.74900  0.16300  1.0000
  O   O5        1.0  0.11300  0.29000  0.18100  1.0000
  O   O6        1.0  0.72400  0.38400  0.21300  1.0000
  O   O7        1.0  0.89200  0.14200  0.29700  1.0000
  O   O8        1.0  0.39800  0.72200  0.31500  1.0000
  O   O9        1.0  0.51900  0.01060  0.34000  1.0000
  O   O10       1.0  0.09780  0.81300  0.34800  1.0000
  O   O11       1.0  0.52600  0.37500  0.36300  1.0000
  O   O12       1.0  0.06400  0.41900  0.39800  1.0000
  O   O13       1.0  0.93600  0.58100  0.60200  1.0000
  O   O14       1.0  0.47400  0.62500  0.63700  1.0000
  O   O15       1.0  0.90200  0.18700  0.65200  1.0000
  O   O16       1.0  0.48100  0.98900  0.66000  1.0000
  O   O17       1.0  0.60200  0.27800  0.68500  1.0000
  O   O18       1.0  0.10800  0.85800  0.70300  1.0000
  O   O19       1.0  0.27600  0.61600  0.78700  1.0000
  O   O20       1.0  0.88700  0.71000  0.81900  1.0000
  O   O21       1.0  0.13500  0.25100  0.83700  1.0000
  O   O22       1.0  0.49900  0.56400  0.87500  1.0000
  O   O23       1.0  0.95300  0.36700  0.88200  1.0000
  O   O24       1.0  0.55400  0.16600  0.89400  1.0000
  Pr  Pr1       1.0  0.26200  0.52100  0.04660  1.0000
  Pr  Pr2       1.0  0.75500  0.28600  0.46300  1.0000
  Pr  Pr3       1.0  0.24500  0.71400  0.53700  1.0000
  Pr  Pr4       1.0  0.73800  0.47900  0.95300  1.0000
