data_image0
_chemical_formula_structural       H24Na12Rh4
_chemical_formula_sum              "H24 Na12 Rh4"
_cell_length_a       9.08655
_cell_length_b       5.11206
_cell_length_c       9.39406
_cell_angle_alpha    90
_cell_angle_beta     90
_cell_angle_gamma    90

_space_group_name_H-M_alt    "P 1"
_space_group_IT_number       1

loop_
  _space_group_symop_operation_xyz
  'x, y, z'

loop_
  _atom_site_type_symbol
  _atom_site_label
  _atom_site_symmetry_multiplicity
  _atom_site_fract_x
  _atom_site_fract_y
  _atom_site_fract_z
  _atom_site_occupancy
  H   H1        1.0  0.66600  0.51800  0.03160  1.0000
  H   H2        1.0  0.66600  0.98200  0.03160  1.0000
  H   H3        1.0  0.12200  0.25000  0.04930  1.0000
  H   H4        1.0  0.89300  0.52700  0.16300  1.0000
  H   H5        1.0  0.89300  0.97300  0.16300  1.0000
  H   H6        1.0  0.68300  0.75000  0.24800  1.0000
  H   H7        1.0  0.18300  0.75000  0.25200  1.0000
  H   H8        1.0  0.39300  0.52700  0.33700  1.0000
  H   H9        1.0  0.39300  0.97300  0.33700  1.0000
  H   H10       1.0  0.62200  0.25000  0.45100  1.0000
  H   H11       1.0  0.16600  0.51800  0.46800  1.0000
  H   H12       1.0  0.16600  0.98200  0.46800  1.0000
  H   H13       1.0  0.83400  0.01760  0.53200  1.0000
  H   H14       1.0  0.83400  0.48200  0.53200  1.0000
  H   H15       1.0  0.37800  0.75000  0.54900  1.0000
  H   H16       1.0  0.60700  0.02670  0.66300  1.0000
  H   H17       1.0  0.60700  0.47300  0.66300  1.0000
  H   H18       1.0  0.81700  0.25000  0.74800  1.0000
  H   H19       1.0  0.31700  0.25000  0.75200  1.0000
  H   H20       1.0  0.10700  0.02670  0.83700  1.0000
  H   H21       1.0  0.10700  0.47300  0.83700  1.0000
  H   H22       1.0  0.87800  0.75000  0.95100  1.0000
  H   H23       1.0  0.33400  0.01760  0.96800  1.0000
  H   H24       1.0  0.33400  0.48200  0.96800  1.0000
  Na  Na1       1.0  0.10500  0.75000  0.03500  1.0000
  Na  Na2       1.0  0.45300  0.75000  0.12700  1.0000
  Na  Na3       1.0  0.71400  0.25000  0.24700  1.0000
  Na  Na4       1.0  0.21400  0.25000  0.25300  1.0000
  Na  Na5       1.0  0.95300  0.75000  0.37300  1.0000
  Na  Na6       1.0  0.60500  0.75000  0.46500  1.0000
  Na  Na7       1.0  0.39500  0.25000  0.53500  1.0000
  Na  Na8       1.0  0.04690  0.25000  0.62700  1.0000
  Na  Na9       1.0  0.78600  0.75000  0.74700  1.0000
  Na  Na10      1.0  0.28600  0.75000  0.75300  1.0000
  Na  Na11      1.0  0.54700  0.25000  0.87300  1.0000
  Na  Na12      1.0  0.89500  0.25000  0.96500  1.0000
  Rh  Rh1       1.0  0.77800  0.75000  0.09750  1.0000
  Rh  Rh2       1.0  0.27800  0.75000  0.40300  1.0000
  Rh  Rh3       1.0  0.72200  0.25000  0.59700  1.0000
  Rh  Rh4       1.0  0.22200  0.25000  0.90300  1.0000
