data_image0
_chemical_formula_structural       Mn4O24Se8Sr4
_chemical_formula_sum              "Mn4 O24 Se8 Sr4"
_cell_length_a       4.39388
_cell_length_b       14.6515
_cell_length_c       9.5406
_cell_angle_alpha    90
_cell_angle_beta     93.5639
_cell_angle_gamma    90

_space_group_name_H-M_alt    "P 1"
_space_group_IT_number       1

loop_
  _space_group_symop_operation_xyz
  'x, y, z'

loop_
  _atom_site_type_symbol
  _atom_site_label
  _atom_site_symmetry_multiplicity
  _atom_site_fract_x
  _atom_site_fract_y
  _atom_site_fract_z
  _atom_site_occupancy
  Mn  Mn1       1.0  0.72500  0.84700  0.20600  1.0000
  Mn  Mn2       1.0  0.77500  0.34700  0.29400  1.0000
  Mn  Mn3       1.0  0.22500  0.65300  0.70600  1.0000
  Mn  Mn4       1.0  0.27500  0.15300  0.79400  1.0000
  O   O1        1.0  0.35400  0.19400  0.00466  1.0000
  O   O2        1.0  0.79100  0.31300  0.06460  1.0000
  O   O3        1.0  0.25900  0.53400  0.11400  1.0000
  O   O4        1.0  0.65800  0.99500  0.20300  1.0000
  O   O5        1.0  0.20400  0.88500  0.22300  1.0000
  O   O6        1.0  0.83500  0.70300  0.24400  1.0000
  O   O7        1.0  0.66500  0.20300  0.25600  1.0000
  O   O8        1.0  0.29600  0.38500  0.27700  1.0000
  O   O9        1.0  0.84200  0.49500  0.29700  1.0000
  O   O10       1.0  0.24100  0.03350  0.38600  1.0000
  O   O11       1.0  0.70900  0.81300  0.43500  1.0000
  O   O12       1.0  0.14600  0.69400  0.49500  1.0000
  O   O13       1.0  0.85400  0.30600  0.50500  1.0000
  O   O14       1.0  0.29100  0.18700  0.56500  1.0000
  O   O15       1.0  0.75900  0.96600  0.61400  1.0000
  O   O16       1.0  0.15800  0.50500  0.70300  1.0000
  O   O17       1.0  0.70400  0.61500  0.72300  1.0000
  O   O18       1.0  0.33500  0.79700  0.74400  1.0000
  O   O19       1.0  0.16500  0.29700  0.75600  1.0000
  O   O20       1.0  0.79600  0.11500  0.77700  1.0000
  O   O21       1.0  0.34200  0.00482  0.79700  1.0000
  O   O22       1.0  0.74100  0.46600  0.88600  1.0000
  O   O23       1.0  0.20900  0.68700  0.93500  1.0000
  O   O24       1.0  0.64600  0.80600  0.99500  1.0000
  Se  Se1       1.0  0.72200  0.19600  0.07950  1.0000
  Se  Se2       1.0  0.26700  0.00400  0.21200  1.0000
  Se  Se3       1.0  0.23300  0.50400  0.28800  1.0000
  Se  Se4       1.0  0.77800  0.69600  0.42000  1.0000
  Se  Se5       1.0  0.22200  0.30400  0.58000  1.0000
  Se  Se6       1.0  0.76700  0.49600  0.71200  1.0000
  Se  Se7       1.0  0.73300  0.99600  0.78800  1.0000
  Se  Se8       1.0  0.27800  0.80400  0.92000  1.0000
  Sr  Sr1       1.0  0.73600  0.61700  0.02870  1.0000
  Sr  Sr2       1.0  0.76400  0.11700  0.47100  1.0000
  Sr  Sr3       1.0  0.23600  0.88300  0.52900  1.0000
  Sr  Sr4       1.0  0.26400  0.38300  0.97100  1.0000
