data_image0
_chemical_formula_structural       As2O8Sr3
_chemical_formula_sum              "As2 O8 Sr3"
_cell_length_a       5.5855
_cell_length_b       5.58552
_cell_length_c       7.41574
_cell_angle_alpha    90.0015
_cell_angle_beta     112.124
_cell_angle_gamma    59.9998

_space_group_name_H-M_alt    "P 1"
_space_group_IT_number       1

loop_
  _space_group_symop_operation_xyz
  'x, y, z'

loop_
  _atom_site_type_symbol
  _atom_site_label
  _atom_site_symmetry_multiplicity
  _atom_site_fract_x
  _atom_site_fract_y
  _atom_site_fract_z
  _atom_site_occupancy
  As  As1       1.0  0.81200  0.59400  0.21900  1.0000
  As  As2       1.0  0.18800  0.40600  0.78100  1.0000
  O   O1        1.0  0.35700  0.32100  0.03610  1.0000
  O   O2        1.0  0.53500  0.73300  0.30400  1.0000
  O   O3        1.0  0.03670  0.73300  0.30400  1.0000
  O   O4        1.0  0.03670  0.23100  0.30400  1.0000
  O   O5        1.0  0.96300  0.76900  0.69600  1.0000
  O   O6        1.0  0.96300  0.26700  0.69600  1.0000
  O   O7        1.0  0.46500  0.26700  0.69600  1.0000
  O   O8        1.0  0.64300  0.67900  0.96400  1.0000
  Sr  Sr1       1.0  0.00000  0.00000  0.00000  1.0000
  Sr  Sr2       1.0  0.59400  0.20300  0.39100  1.0000
  Sr  Sr3       1.0  0.40600  0.79700  0.60900  1.0000
