data_image0
_chemical_formula_structural       Al6Dy2PtSi4
_chemical_formula_sum              "Al6 Dy2 Pt1 Si4"
_cell_length_a       4.16254
_cell_length_b       4.16252
_cell_length_c       17.0894
_cell_angle_alpha    96.9952
_cell_angle_beta     83.0002
_cell_angle_gamma    120

_space_group_name_H-M_alt    "P 1"
_space_group_IT_number       1

loop_
  _space_group_symop_operation_xyz
  'x, y, z'

loop_
  _atom_site_type_symbol
  _atom_site_label
  _atom_site_symmetry_multiplicity
  _atom_site_fract_x
  _atom_site_fract_y
  _atom_site_fract_z
  _atom_site_occupancy
  Al  Al1       1.0  0.31800  0.68200  0.04690  1.0000
  Al  Al2       1.0  0.95000  0.05030  0.15100  1.0000
  Al  Al3       1.0  0.18500  0.81500  0.44500  1.0000
  Al  Al4       1.0  0.81500  0.18500  0.55500  1.0000
  Al  Al5       1.0  0.05030  0.95000  0.84900  1.0000
  Al  Al6       1.0  0.68200  0.31800  0.95300  1.0000
  Dy  Dy1       1.0  0.56600  0.43400  0.30200  1.0000
  Dy  Dy2       1.0  0.43400  0.56600  0.69800  1.0000
  Pt  Pt1       1.0  0.00000  0.00000  0.00000  1.0000
  Si  Si1       1.0  0.26600  0.73400  0.20200  1.0000
  Si  Si2       1.0  0.86500  0.13500  0.40500  1.0000
  Si  Si3       1.0  0.13500  0.86500  0.59500  1.0000
  Si  Si4       1.0  0.73400  0.26600  0.79800  1.0000
