data_image0
_chemical_formula_structural       C4F2H16Ho2O16
_chemical_formula_sum              "C4 F2 H16 Ho2 O16"
_cell_length_a       8.06002
_cell_length_b       7.67575
_cell_length_c       7.67575
_cell_angle_alpha    101.395
_cell_angle_beta     116.534
_cell_angle_gamma    63.4662

_space_group_name_H-M_alt    "P 1"
_space_group_IT_number       1

loop_
  _space_group_symop_operation_xyz
  'x, y, z'

loop_
  _atom_site_type_symbol
  _atom_site_label
  _atom_site_symmetry_multiplicity
  _atom_site_fract_x
  _atom_site_fract_y
  _atom_site_fract_z
  _atom_site_occupancy
  C   C1        1.0  0.94800  0.49900  0.06360  1.0000
  C   C2        1.0  0.55200  0.06360  0.49900  1.0000
  C   C3        1.0  0.44800  0.93600  0.50100  1.0000
  C   C4        1.0  0.05210  0.50100  0.93600  1.0000
  F   F1        1.0  0.00000  0.00000  0.00000  1.0000
  F   F2        1.0  0.50000  0.00000  0.00000  1.0000
  H   H1        1.0  0.55800  0.68700  0.06750  1.0000
  H   H2        1.0  0.42400  0.64300  0.14100  1.0000
  H   H3        1.0  0.60400  0.38700  0.23200  1.0000
  H   H4        1.0  0.05840  0.93200  0.31300  1.0000
  H   H5        1.0  0.48000  0.39100  0.33700  1.0000
  H   H6        1.0  0.92400  0.85900  0.35700  1.0000
  H   H7        1.0  0.89600  0.23200  0.38700  1.0000
  H   H8        1.0  0.02000  0.33700  0.39100  1.0000
  H   H9        1.0  0.98000  0.66300  0.60900  1.0000
  H   H10       1.0  0.10400  0.76800  0.61300  1.0000
  H   H11       1.0  0.07610  0.14100  0.64300  1.0000
  H   H12       1.0  0.52000  0.60900  0.66300  1.0000
  H   H13       1.0  0.94200  0.06750  0.68700  1.0000
  H   H14       1.0  0.39600  0.61300  0.76800  1.0000
  H   H15       1.0  0.57600  0.35700  0.85900  1.0000
  H   H16       1.0  0.44200  0.31300  0.93200  1.0000
  Ho  Ho1       1.0  0.25000  0.06500  0.06500  1.0000
  Ho  Ho2       1.0  0.75000  0.93500  0.93500  1.0000
  O   O1        1.0  0.41600  0.72400  0.04630  1.0000
  O   O2        1.0  0.79600  0.65200  0.06390  1.0000
  O   O3        1.0  0.02340  0.34400  0.15600  1.0000
  O   O4        1.0  0.91600  0.95400  0.27600  1.0000
  O   O5        1.0  0.52200  0.47600  0.30200  1.0000
  O   O6        1.0  0.47700  0.15600  0.34400  1.0000
  O   O7        1.0  0.29600  0.93600  0.34800  1.0000
  O   O8        1.0  0.97800  0.30200  0.47600  1.0000
  O   O9        1.0  0.02240  0.69800  0.52400  1.0000
  O   O10       1.0  0.70400  0.06390  0.65200  1.0000
  O   O11       1.0  0.52300  0.84400  0.65600  1.0000
  O   O12       1.0  0.47800  0.52400  0.69800  1.0000
  O   O13       1.0  0.08390  0.04630  0.72400  1.0000
  O   O14       1.0  0.97700  0.65600  0.84400  1.0000
  O   O15       1.0  0.20400  0.34800  0.93600  1.0000
  O   O16       1.0  0.58400  0.27600  0.95400  1.0000
