data_image0
_chemical_formula_structural       PuTi5
_chemical_formula_sum              "Pu1 Ti5"
_cell_length_a       5.01309
_cell_length_b       5.01309
_cell_length_c       4.79979
_cell_angle_alpha    90
_cell_angle_beta     90
_cell_angle_gamma    60.2716

_space_group_name_H-M_alt    "P 1"
_space_group_IT_number       1

loop_
  _space_group_symop_operation_xyz
  'x, y, z'

loop_
  _atom_site_type_symbol
  _atom_site_label
  _atom_site_symmetry_multiplicity
  _atom_site_fract_x
  _atom_site_fract_y
  _atom_site_fract_z
  _atom_site_occupancy
  Pu  Pu1       1.0  0.00416  0.99600  0.00000  1.0000
  Ti  Ti1       1.0  0.33400  0.33300  0.00000  1.0000
  Ti  Ti2       1.0  0.66700  0.66600  0.00000  1.0000
  Ti  Ti3       1.0  0.64200  0.00199  0.50000  1.0000
  Ti  Ti4       1.0  0.99800  0.35800  0.50000  1.0000
  Ti  Ti5       1.0  0.35500  0.64500  0.50000  1.0000
