data_image0
_chemical_formula_structural       CeMg12
_chemical_formula_sum              "Ce1 Mg12"
_cell_length_a       5.93282
_cell_length_b       7.86707
_cell_length_c       7.86707
_cell_angle_alpha    98.174
_cell_angle_beta     67.8479
_cell_angle_gamma    112.152

_space_group_name_H-M_alt    "P 1"
_space_group_IT_number       1

loop_
  _space_group_symop_operation_xyz
  'x, y, z'

loop_
  _atom_site_type_symbol
  _atom_site_label
  _atom_site_symmetry_multiplicity
  _atom_site_fract_x
  _atom_site_fract_y
  _atom_site_fract_z
  _atom_site_occupancy
  Ce  Ce1       1.0  0.00000  0.00000  0.00000  1.0000
  Mg  Mg1       1.0  0.00000  0.50000  0.00000  1.0000
  Mg  Mg2       1.0  0.50000  0.50000  0.00000  1.0000
  Mg  Mg3       1.0  0.50000  0.21300  0.21300  1.0000
  Mg  Mg4       1.0  0.28700  0.78700  0.21300  1.0000
  Mg  Mg5       1.0  0.00000  0.35200  0.35200  1.0000
  Mg  Mg6       1.0  0.64800  0.64800  0.35200  1.0000
  Mg  Mg7       1.0  0.00000  0.00000  0.50000  1.0000
  Mg  Mg8       1.0  0.50000  0.00000  0.50000  1.0000
  Mg  Mg9       1.0  0.35200  0.35200  0.64800  1.0000
  Mg  Mg10      1.0  0.00000  0.64800  0.64800  1.0000
  Mg  Mg11      1.0  0.71300  0.21300  0.78700  1.0000
  Mg  Mg12      1.0  0.50000  0.78700  0.78700  1.0000
