data_image0
_chemical_formula_structural       F28K4Sn4Zr4
_chemical_formula_sum              "F28 K4 Sn4 Zr4"
_cell_length_a       8.16873
_cell_length_b       5.77012
_cell_length_c       12.1172
_cell_angle_alpha    90
_cell_angle_beta     90
_cell_angle_gamma    90

_space_group_name_H-M_alt    "P 1"
_space_group_IT_number       1

loop_
  _space_group_symop_operation_xyz
  'x, y, z'

loop_
  _atom_site_type_symbol
  _atom_site_label
  _atom_site_symmetry_multiplicity
  _atom_site_fract_x
  _atom_site_fract_y
  _atom_site_fract_z
  _atom_site_occupancy
  F   F1        1.0  0.15300  0.50000  0.00000  1.0000
  F   F2        1.0  0.84700  0.50000  0.00000  1.0000
  F   F3        1.0  0.00000  0.86700  0.07490  1.0000
  F   F4        1.0  0.50000  0.86900  0.08390  1.0000
  F   F5        1.0  0.24000  0.14800  0.11200  1.0000
  F   F6        1.0  0.76000  0.14800  0.11200  1.0000
  F   F7        1.0  0.00000  0.51000  0.20200  1.0000
  F   F8        1.0  0.00000  0.09070  0.24500  1.0000
  F   F9        1.0  0.50000  0.09070  0.25500  1.0000
  F   F10       1.0  0.50000  0.51000  0.29800  1.0000
  F   F11       1.0  0.26000  0.14800  0.38800  1.0000
  F   F12       1.0  0.74000  0.14800  0.38800  1.0000
  F   F13       1.0  0.00000  0.86900  0.41600  1.0000
  F   F14       1.0  0.50000  0.86700  0.42500  1.0000
  F   F15       1.0  0.34700  0.50000  0.50000  1.0000
  F   F16       1.0  0.65300  0.50000  0.50000  1.0000
  F   F17       1.0  0.50000  0.13300  0.57500  1.0000
  F   F18       1.0  0.00000  0.13100  0.58400  1.0000
  F   F19       1.0  0.26000  0.85200  0.61200  1.0000
  F   F20       1.0  0.74000  0.85200  0.61200  1.0000
  F   F21       1.0  0.50000  0.49000  0.70200  1.0000
  F   F22       1.0  0.50000  0.90900  0.74500  1.0000
  F   F23       1.0  0.00000  0.90900  0.75500  1.0000
  F   F24       1.0  0.00000  0.49000  0.79800  1.0000
  F   F25       1.0  0.24000  0.85200  0.88800  1.0000
  F   F26       1.0  0.76000  0.85200  0.88800  1.0000
  F   F27       1.0  0.50000  0.13100  0.91600  1.0000
  F   F28       1.0  0.00000  0.13300  0.92500  1.0000
  K   K1        1.0  0.25000  0.78000  0.25000  1.0000
  K   K2        1.0  0.75000  0.78000  0.25000  1.0000
  K   K3        1.0  0.25000  0.22000  0.75000  1.0000
  K   K4        1.0  0.75000  0.22000  0.75000  1.0000
  Sn  Sn1       1.0  0.50000  0.26100  0.08710  1.0000
  Sn  Sn2       1.0  0.00000  0.26100  0.41300  1.0000
  Sn  Sn3       1.0  0.00000  0.73900  0.58700  1.0000
  Sn  Sn4       1.0  0.50000  0.73900  0.91300  1.0000
  Zr  Zr1       1.0  0.00000  0.25000  0.08880  1.0000
  Zr  Zr2       1.0  0.50000  0.25000  0.41100  1.0000
  Zr  Zr3       1.0  0.50000  0.75000  0.58900  1.0000
  Zr  Zr4       1.0  0.00000  0.75000  0.91100  1.0000
