data_image0
_chemical_formula_structural       Ca2Fe6O26P6
_chemical_formula_sum              "Ca2 Fe6 O26 P6"
_cell_length_a       7.48668
_cell_length_b       6.32187
_cell_length_c       10.1391
_cell_angle_alpha    90
_cell_angle_beta     100.105
_cell_angle_gamma    90

_space_group_name_H-M_alt    "P 1"
_space_group_IT_number       1

loop_
  _space_group_symop_operation_xyz
  'x, y, z'

loop_
  _atom_site_type_symbol
  _atom_site_label
  _atom_site_symmetry_multiplicity
  _atom_site_fract_x
  _atom_site_fract_y
  _atom_site_fract_z
  _atom_site_occupancy
  Ca  Ca1       1.0  0.66400  0.75000  0.19700  1.0000
  Ca  Ca2       1.0  0.33600  0.25000  0.80300  1.0000
  Fe  Fe1       1.0  0.00000  0.00000  0.00000  1.0000
  Fe  Fe2       1.0  0.00000  0.50000  0.00000  1.0000
  Fe  Fe3       1.0  0.35400  0.25000  0.20400  1.0000
  Fe  Fe4       1.0  0.78600  0.25000  0.43500  1.0000
  Fe  Fe5       1.0  0.21400  0.75000  0.56500  1.0000
  Fe  Fe6       1.0  0.64600  0.75000  0.79600  1.0000
  O   O1        1.0  0.48900  0.25000  0.02830  1.0000
  O   O2        1.0  0.78900  0.04650  0.09400  1.0000
  O   O3        1.0  0.78900  0.45300  0.09400  1.0000
  O   O4        1.0  0.12100  0.25000  0.09610  1.0000
  O   O5        1.0  0.08270  0.75000  0.13400  1.0000
  O   O6        1.0  0.38200  0.56100  0.21400  1.0000
  O   O7        1.0  0.38200  0.93900  0.21400  1.0000
  O   O8        1.0  0.63900  0.25000  0.25500  1.0000
  O   O9        1.0  0.21000  0.75000  0.37700  1.0000
  O   O10       1.0  0.35900  0.25000  0.39700  1.0000
  O   O11       1.0  0.02650  0.25000  0.40400  1.0000
  O   O12       1.0  0.75300  0.56000  0.41200  1.0000
  O   O13       1.0  0.75300  0.94000  0.41200  1.0000
  O   O14       1.0  0.24700  0.05980  0.58800  1.0000
  O   O15       1.0  0.24700  0.44000  0.58800  1.0000
  O   O16       1.0  0.97300  0.75000  0.59600  1.0000
  O   O17       1.0  0.64100  0.75000  0.60300  1.0000
  O   O18       1.0  0.79000  0.25000  0.62300  1.0000
  O   O19       1.0  0.36100  0.75000  0.74500  1.0000
  O   O20       1.0  0.61800  0.06100  0.78600  1.0000
  O   O21       1.0  0.61800  0.43900  0.78600  1.0000
  O   O22       1.0  0.91700  0.25000  0.86600  1.0000
  O   O23       1.0  0.87900  0.75000  0.90400  1.0000
  O   O24       1.0  0.21100  0.54700  0.90600  1.0000
  O   O25       1.0  0.21100  0.95300  0.90600  1.0000
  O   O26       1.0  0.51100  0.75000  0.97200  1.0000
  P   P1        1.0  0.68200  0.25000  0.11100  1.0000
  P   P2        1.0  0.26300  0.75000  0.23900  1.0000
  P   P3        1.0  0.21800  0.25000  0.48900  1.0000
  P   P4        1.0  0.78200  0.75000  0.51100  1.0000
  P   P5        1.0  0.73700  0.25000  0.76100  1.0000
  P   P6        1.0  0.31800  0.75000  0.88900  1.0000
