data_image0
_chemical_formula_structural       As2Ba3O8
_chemical_formula_sum              "As2 Ba3 O8"
_cell_length_a       5.77115
_cell_length_b       5.77106
_cell_length_c       7.84745
_cell_angle_alpha    90.0005
_cell_angle_beta     111.574
_cell_angle_gamma    59.9995

_space_group_name_H-M_alt    "P 1"
_space_group_IT_number       1

loop_
  _space_group_symop_operation_xyz
  'x, y, z'

loop_
  _atom_site_type_symbol
  _atom_site_label
  _atom_site_symmetry_multiplicity
  _atom_site_fract_x
  _atom_site_fract_y
  _atom_site_fract_z
  _atom_site_occupancy
  As  As1       1.0  0.81400  0.59300  0.22200  1.0000
  As  As2       1.0  0.18600  0.40700  0.77800  1.0000
  Ba  Ba1       1.0  0.00000  0.00000  0.00000  1.0000
  Ba  Ba2       1.0  0.58900  0.20600  0.38300  1.0000
  Ba  Ba3       1.0  0.41100  0.79400  0.61700  1.0000
  O   O1        1.0  0.34600  0.32700  0.01920  1.0000
  O   O2        1.0  0.54500  0.72800  0.30400  1.0000
  O   O3        1.0  0.03110  0.72800  0.30400  1.0000
  O   O4        1.0  0.03120  0.24100  0.30400  1.0000
  O   O5        1.0  0.96900  0.75900  0.69600  1.0000
  O   O6        1.0  0.96900  0.27200  0.69600  1.0000
  O   O7        1.0  0.45500  0.27200  0.69600  1.0000
  O   O8        1.0  0.65400  0.67300  0.98100  1.0000
