data_image0
_chemical_formula_structural       H24Ir4Na12
_chemical_formula_sum              "H24 Ir4 Na12"
_cell_length_a       9.09147
_cell_length_b       5.10861
_cell_length_c       9.39905
_cell_angle_alpha    90
_cell_angle_beta     90
_cell_angle_gamma    90

_space_group_name_H-M_alt    "P 1"
_space_group_IT_number       1

loop_
  _space_group_symop_operation_xyz
  'x, y, z'

loop_
  _atom_site_type_symbol
  _atom_site_label
  _atom_site_symmetry_multiplicity
  _atom_site_fract_x
  _atom_site_fract_y
  _atom_site_fract_z
  _atom_site_occupancy
  H   H1        1.0  0.66500  0.51700  0.02980  1.0000
  H   H2        1.0  0.66500  0.98300  0.02980  1.0000
  H   H3        1.0  0.11900  0.25000  0.04960  1.0000
  H   H4        1.0  0.89300  0.52400  0.16400  1.0000
  H   H5        1.0  0.89300  0.97600  0.16400  1.0000
  H   H6        1.0  0.67900  0.75000  0.24800  1.0000
  H   H7        1.0  0.17900  0.75000  0.25200  1.0000
  H   H8        1.0  0.39300  0.52400  0.33600  1.0000
  H   H9        1.0  0.39300  0.97600  0.33600  1.0000
  H   H10       1.0  0.61900  0.25000  0.45000  1.0000
  H   H11       1.0  0.16500  0.51700  0.47000  1.0000
  H   H12       1.0  0.16500  0.98300  0.47000  1.0000
  H   H13       1.0  0.83500  0.01690  0.53000  1.0000
  H   H14       1.0  0.83500  0.48300  0.53000  1.0000
  H   H15       1.0  0.38100  0.75000  0.55000  1.0000
  H   H16       1.0  0.60700  0.02440  0.66400  1.0000
  H   H17       1.0  0.60700  0.47600  0.66400  1.0000
  H   H18       1.0  0.82100  0.25000  0.74800  1.0000
  H   H19       1.0  0.32100  0.25000  0.75200  1.0000
  H   H20       1.0  0.10700  0.02440  0.83600  1.0000
  H   H21       1.0  0.10700  0.47600  0.83600  1.0000
  H   H22       1.0  0.88100  0.75000  0.95000  1.0000
  H   H23       1.0  0.33500  0.01690  0.97000  1.0000
  H   H24       1.0  0.33500  0.48300  0.97000  1.0000
  Ir  Ir1       1.0  0.77700  0.75000  0.09710  1.0000
  Ir  Ir2       1.0  0.27700  0.75000  0.40300  1.0000
  Ir  Ir3       1.0  0.72300  0.25000  0.59700  1.0000
  Ir  Ir4       1.0  0.22300  0.25000  0.90300  1.0000
  Na  Na1       1.0  0.10600  0.75000  0.03560  1.0000
  Na  Na2       1.0  0.45200  0.75000  0.12700  1.0000
  Na  Na3       1.0  0.71600  0.25000  0.24900  1.0000
  Na  Na4       1.0  0.21600  0.25000  0.25100  1.0000
  Na  Na5       1.0  0.95200  0.75000  0.37300  1.0000
  Na  Na6       1.0  0.60600  0.75000  0.46400  1.0000
  Na  Na7       1.0  0.39400  0.25000  0.53600  1.0000
  Na  Na8       1.0  0.04790  0.25000  0.62700  1.0000
  Na  Na9       1.0  0.78400  0.75000  0.74900  1.0000
  Na  Na10      1.0  0.28400  0.75000  0.75100  1.0000
  Na  Na11      1.0  0.54800  0.25000  0.87300  1.0000
  Na  Na12      1.0  0.89400  0.25000  0.96400  1.0000
