data_image0
_chemical_formula_structural       H8O24S6Sr2
_chemical_formula_sum              "H8 O24 S6 Sr2"
_cell_length_a       5.92082
_cell_length_b       8.24322
_cell_length_c       9.82938
_cell_angle_alpha    81.4931
_cell_angle_beta     83.0411
_cell_angle_gamma    70.6454

_space_group_name_H-M_alt    "P 1"
_space_group_IT_number       1

loop_
  _space_group_symop_operation_xyz
  'x, y, z'

loop_
  _atom_site_type_symbol
  _atom_site_label
  _atom_site_symmetry_multiplicity
  _atom_site_fract_x
  _atom_site_fract_y
  _atom_site_fract_z
  _atom_site_occupancy
  H   H1        1.0  0.51500  0.65100  0.07870  1.0000
  H   H2        1.0  0.24600  0.09360  0.11400  1.0000
  H   H3        1.0  0.98400  0.52600  0.13000  1.0000
  H   H4        1.0  0.54300  0.27500  0.33400  1.0000
  H   H5        1.0  0.45700  0.72500  0.66600  1.0000
  H   H6        1.0  0.01620  0.47400  0.87000  1.0000
  H   H7        1.0  0.75400  0.90600  0.88600  1.0000
  H   H8        1.0  0.48500  0.34900  0.92100  1.0000
  O   O1        1.0  0.38800  0.71800  0.00887  1.0000
  O   O2        1.0  0.00373  0.20700  0.06390  1.0000
  O   O3        1.0  0.15300  0.53500  0.10200  1.0000
  O   O4        1.0  0.40100  0.02370  0.15900  1.0000
  O   O5        1.0  0.71700  0.54900  0.16700  1.0000
  O   O6        1.0  0.03630  0.82500  0.17500  1.0000
  O   O7        1.0  0.34100  0.23100  0.33000  1.0000
  O   O8        1.0  0.70100  0.31000  0.34700  1.0000
  O   O9        1.0  0.41600  0.60200  0.35700  1.0000
  O   O10       1.0  0.61000  0.93300  0.36100  1.0000
  O   O11       1.0  0.17300  0.00401  0.38400  1.0000
  O   O12       1.0  0.84400  0.52900  0.39500  1.0000
  O   O13       1.0  0.15600  0.47100  0.60500  1.0000
  O   O14       1.0  0.82700  0.99600  0.61600  1.0000
  O   O15       1.0  0.39000  0.06690  0.63900  1.0000
  O   O16       1.0  0.58400  0.39800  0.64300  1.0000
  O   O17       1.0  0.29900  0.69000  0.65300  1.0000
  O   O18       1.0  0.65900  0.76900  0.67000  1.0000
  O   O19       1.0  0.96400  0.17500  0.82500  1.0000
  O   O20       1.0  0.28300  0.45100  0.83300  1.0000
  O   O21       1.0  0.59900  0.97600  0.84100  1.0000
  O   O22       1.0  0.84700  0.46500  0.89800  1.0000
  O   O23       1.0  0.99600  0.79300  0.93600  1.0000
  O   O24       1.0  0.61200  0.28200  0.99100  1.0000
  S   S1        1.0  0.12900  0.72800  0.05760  1.0000
  S   S2        1.0  0.38300  0.04590  0.31300  1.0000
  S   S3        1.0  0.66100  0.50700  0.31800  1.0000
  S   S4        1.0  0.33800  0.49300  0.68200  1.0000
  S   S5        1.0  0.61700  0.95400  0.68700  1.0000
  S   S6        1.0  0.87100  0.27200  0.94200  1.0000
  Sr  Sr1       1.0  0.00212  0.76200  0.44300  1.0000
  Sr  Sr2       1.0  0.99800  0.23800  0.55700  1.0000
