data_image0
_chemical_formula_structural       Mo18Se22
_chemical_formula_sum              "Mo18 Se22"
_cell_length_a       8.95677
_cell_length_b       8.95677
_cell_length_c       11.1013
_cell_angle_alpha    90
_cell_angle_beta     90
_cell_angle_gamma    95.277

_space_group_name_H-M_alt    "P 1"
_space_group_IT_number       1

loop_
  _space_group_symop_operation_xyz
  'x, y, z'

loop_
  _atom_site_type_symbol
  _atom_site_label
  _atom_site_symmetry_multiplicity
  _atom_site_fract_x
  _atom_site_fract_y
  _atom_site_fract_z
  _atom_site_occupancy
  Mo  Mo1       1.0  0.17700  0.82300  0.12800  1.0000
  Mo  Mo2       1.0  0.09960  0.51800  0.12900  1.0000
  Mo  Mo3       1.0  0.48200  0.90000  0.12900  1.0000
  Mo  Mo4       1.0  0.30600  0.07320  0.25000  1.0000
  Mo  Mo5       1.0  0.35300  0.64700  0.25000  1.0000
  Mo  Mo6       1.0  0.92700  0.69400  0.25000  1.0000
  Mo  Mo7       1.0  0.09960  0.51800  0.37100  1.0000
  Mo  Mo8       1.0  0.48200  0.90000  0.37100  1.0000
  Mo  Mo9       1.0  0.17700  0.82300  0.37200  1.0000
  Mo  Mo10      1.0  0.82300  0.17700  0.62800  1.0000
  Mo  Mo11      1.0  0.51800  0.09960  0.62900  1.0000
  Mo  Mo12      1.0  0.90000  0.48200  0.62900  1.0000
  Mo  Mo13      1.0  0.07320  0.30600  0.75000  1.0000
  Mo  Mo14      1.0  0.64700  0.35300  0.75000  1.0000
  Mo  Mo15      1.0  0.69400  0.92700  0.75000  1.0000
  Mo  Mo16      1.0  0.51800  0.09960  0.87100  1.0000
  Mo  Mo17      1.0  0.90000  0.48200  0.87100  1.0000
  Mo  Mo18      1.0  0.82300  0.17700  0.87200  1.0000
  Se  Se1       1.0  0.34700  0.65300  0.01580  1.0000
  Se  Se2       1.0  0.29000  0.05740  0.01710  1.0000
  Se  Se3       1.0  0.94300  0.71000  0.01710  1.0000
  Se  Se4       1.0  0.58800  0.12700  0.25000  1.0000
  Se  Se5       1.0  0.28200  0.36500  0.25000  1.0000
  Se  Se6       1.0  0.87300  0.41200  0.25000  1.0000
  Se  Se7       1.0  0.63500  0.71800  0.25000  1.0000
  Se  Se8       1.0  0.00913  0.99100  0.25000  1.0000
  Se  Se9       1.0  0.29000  0.05740  0.48300  1.0000
  Se  Se10      1.0  0.94300  0.71000  0.48300  1.0000
  Se  Se11      1.0  0.34700  0.65300  0.48400  1.0000
  Se  Se12      1.0  0.65300  0.34700  0.51600  1.0000
  Se  Se13      1.0  0.05740  0.29000  0.51700  1.0000
  Se  Se14      1.0  0.71000  0.94300  0.51700  1.0000
  Se  Se15      1.0  0.99100  0.00913  0.75000  1.0000
  Se  Se16      1.0  0.36500  0.28200  0.75000  1.0000
  Se  Se17      1.0  0.12700  0.58800  0.75000  1.0000
  Se  Se18      1.0  0.71800  0.63500  0.75000  1.0000
  Se  Se19      1.0  0.41200  0.87300  0.75000  1.0000
  Se  Se20      1.0  0.05740  0.29000  0.98300  1.0000
  Se  Se21      1.0  0.71000  0.94300  0.98300  1.0000
  Se  Se22      1.0  0.65300  0.34700  0.98400  1.0000
