data_image0
_chemical_formula_structural       H12K4O20Se2Te2
_chemical_formula_sum              "H12 K4 O20 Se2 Te2"
_cell_length_a       6.32627
_cell_length_b       6.5194
_cell_length_c       13.6278
_cell_angle_alpha    90.8611
_cell_angle_beta     103.421
_cell_angle_gamma    119.025

_space_group_name_H-M_alt    "P 1"
_space_group_IT_number       1

loop_
  _space_group_symop_operation_xyz
  'x, y, z'

loop_
  _atom_site_type_symbol
  _atom_site_label
  _atom_site_symmetry_multiplicity
  _atom_site_fract_x
  _atom_site_fract_y
  _atom_site_fract_z
  _atom_site_occupancy
  H   H1        1.0  0.00254  0.27100  0.11800  1.0000
  H   H2        1.0  0.45900  0.77400  0.15500  1.0000
  H   H3        1.0  0.99800  0.83900  0.19400  1.0000
  H   H4        1.0  0.35700  0.33400  0.32800  1.0000
  H   H5        1.0  0.89700  0.40100  0.36900  1.0000
  H   H6        1.0  0.35300  0.90400  0.40500  1.0000
  H   H7        1.0  0.88600  0.77100  0.61800  1.0000
  H   H8        1.0  0.97100  0.27400  0.65500  1.0000
  H   H9        1.0  0.53600  0.33900  0.69400  1.0000
  H   H10       1.0  0.80500  0.83400  0.82800  1.0000
  H   H11       1.0  0.37300  0.90100  0.86900  1.0000
  H   H12       1.0  0.45600  0.40400  0.90500  1.0000
  K   K1        1.0  0.49300  0.24700  0.12100  1.0000
  K   K2        1.0  0.85800  0.92800  0.40300  1.0000
  K   K3        1.0  0.37500  0.74700  0.62100  1.0000
  K   K4        1.0  0.97200  0.42800  0.90300  1.0000
  O   O1        1.0  0.49000  0.64700  0.06380  1.0000
  O   O2        1.0  0.98700  0.99900  0.09930  1.0000
  O   O3        1.0  0.99500  0.42100  0.12300  1.0000
  O   O4        1.0  0.42600  0.84900  0.21200  1.0000
  O   O5        1.0  0.97500  0.73900  0.25100  1.0000
  O   O6        1.0  0.38200  0.43800  0.27300  1.0000
  O   O7        1.0  0.92900  0.32600  0.31200  1.0000
  O   O8        1.0  0.36000  0.75300  0.40100  1.0000
  O   O9        1.0  0.36600  0.17400  0.42200  1.0000
  O   O10       1.0  0.86400  0.52600  0.46100  1.0000
  O   O11       1.0  0.72100  0.14700  0.56400  1.0000
  O   O12       1.0  0.61100  0.49900  0.59900  1.0000
  O   O13       1.0  0.04860  0.92100  0.62300  1.0000
  O   O14       1.0  0.13500  0.34900  0.71200  1.0000
  O   O15       1.0  0.51400  0.23900  0.75100  1.0000
  O   O16       1.0  0.82900  0.93800  0.77300  1.0000
  O   O17       1.0  0.21000  0.82600  0.81200  1.0000
  O   O18       1.0  0.29500  0.25300  0.90100  1.0000
  O   O19       1.0  0.73000  0.67400  0.92200  1.0000
  O   O20       1.0  0.62400  0.02640  0.96100  1.0000
  Se  Se1       1.0  0.70800  0.83700  0.01160  1.0000
  Se  Se2       1.0  0.64000  0.33700  0.51200  1.0000
  Te  Te1       1.0  0.17800  0.58700  0.26200  1.0000
  Te  Te2       1.0  0.17200  0.08720  0.76200  1.0000
