data_image0
_chemical_formula_structural       CsZn5
_chemical_formula_sum              "Cs1 Zn5"
_cell_length_a       6.04862
_cell_length_b       6.04862
_cell_length_c       4.20765
_cell_angle_alpha    90
_cell_angle_beta     90
_cell_angle_gamma    59.9948

_space_group_name_H-M_alt    "P 1"
_space_group_IT_number       1

loop_
  _space_group_symop_operation_xyz
  'x, y, z'

loop_
  _atom_site_type_symbol
  _atom_site_label
  _atom_site_symmetry_multiplicity
  _atom_site_fract_x
  _atom_site_fract_y
  _atom_site_fract_z
  _atom_site_occupancy
  Cs  Cs1       1.0  0.00000  0.00000  0.00000  1.0000
  Zn  Zn1       1.0  0.33300  0.33300  0.00000  1.0000
  Zn  Zn2       1.0  0.66700  0.66700  0.00000  1.0000
  Zn  Zn3       1.0  0.50100  0.00000  0.50000  1.0000
  Zn  Zn4       1.0  0.00000  0.49900  0.50000  1.0000
  Zn  Zn5       1.0  0.49900  0.50100  0.50000  1.0000
