data_image0
_chemical_formula_structural       H8N8O20Sr4
_chemical_formula_sum              "H8 N8 O20 Sr4"
_cell_length_a       12.259
_cell_length_b       8.73746
_cell_length_c       4.40711
_cell_angle_alpha    90
_cell_angle_beta     99.3467
_cell_angle_gamma    90

_space_group_name_H-M_alt    "P 1"
_space_group_IT_number       1

loop_
  _space_group_symop_operation_xyz
  'x, y, z'

loop_
  _atom_site_type_symbol
  _atom_site_label
  _atom_site_symmetry_multiplicity
  _atom_site_fract_x
  _atom_site_fract_y
  _atom_site_fract_z
  _atom_site_occupancy
  H   H1        1.0  0.78700  0.56900  0.09160  1.0000
  H   H2        1.0  0.17200  0.88600  0.14700  1.0000
  H   H3        1.0  0.69200  0.46900  0.16200  1.0000
  H   H4        1.0  0.18800  0.01610  0.40500  1.0000
  H   H5        1.0  0.81200  0.51600  0.59500  1.0000
  H   H6        1.0  0.30800  0.96900  0.83800  1.0000
  H   H7        1.0  0.82800  0.38600  0.85300  1.0000
  H   H8        1.0  0.21300  0.06900  0.90800  1.0000
  N   N1        1.0  0.31000  0.68700  0.00600  1.0000
  N   N2        1.0  0.26800  0.37800  0.42100  1.0000
  N   N3        1.0  0.98300  0.76400  0.46900  1.0000
  N   N4        1.0  0.50500  0.01130  0.47100  1.0000
  N   N5        1.0  0.49500  0.51100  0.52900  1.0000
  N   N6        1.0  0.01710  0.26400  0.53100  1.0000
  N   N7        1.0  0.73200  0.87800  0.57900  1.0000
  N   N8        1.0  0.69000  0.18700  0.99400  1.0000
  O   O1        1.0  0.20900  0.71500  0.01120  1.0000
  O   O2        1.0  0.37100  0.80500  0.02710  1.0000
  O   O3        1.0  0.25500  0.34300  0.13700  1.0000
  O   O4        1.0  0.14500  0.98900  0.20000  1.0000
  O   O5        1.0  0.73400  0.56300  0.24000  1.0000
  O   O6        1.0  0.00899  0.27900  0.24200  1.0000
  O   O7        1.0  0.49500  0.49200  0.24500  1.0000
  O   O8        1.0  0.46600  0.14000  0.37200  1.0000
  O   O9        1.0  0.00421  0.63000  0.38500  1.0000
  O   O10       1.0  0.19500  0.46700  0.49200  1.0000
  O   O11       1.0  0.80500  0.96700  0.50800  1.0000
  O   O12       1.0  0.99600  0.13000  0.61500  1.0000
  O   O13       1.0  0.53400  0.64000  0.62800  1.0000
  O   O14       1.0  0.50500  0.99200  0.75500  1.0000
  O   O15       1.0  0.99100  0.77900  0.75800  1.0000
  O   O16       1.0  0.26600  0.06260  0.76000  1.0000
  O   O17       1.0  0.85500  0.48900  0.80000  1.0000
  O   O18       1.0  0.74500  0.84300  0.86300  1.0000
  O   O19       1.0  0.62900  0.30500  0.97300  1.0000
  O   O20       1.0  0.79100  0.21500  0.98900  1.0000
  Sr  Sr1       1.0  0.93100  0.00000  0.07380  1.0000
  Sr  Sr2       1.0  0.58000  0.77600  0.13000  1.0000
  Sr  Sr3       1.0  0.42000  0.27600  0.87000  1.0000
  Sr  Sr4       1.0  0.06870  0.50000  0.92600  1.0000
