data_image0
_chemical_formula_structural       Ba2Zn10
_chemical_formula_sum              "Ba2 Zn10"
_cell_length_a       5.32394
_cell_length_b       6.84735
_cell_length_c       6.84735
_cell_angle_alpha    75.6512
_cell_angle_beta     90
_cell_angle_gamma    90

_space_group_name_H-M_alt    "P 1"
_space_group_IT_number       1

loop_
  _space_group_symop_operation_xyz
  'x, y, z'

loop_
  _atom_site_type_symbol
  _atom_site_label
  _atom_site_symmetry_multiplicity
  _atom_site_fract_x
  _atom_site_fract_y
  _atom_site_fract_z
  _atom_site_occupancy
  Ba  Ba1       1.0  0.75000  0.66600  0.33400  1.0000
  Ba  Ba2       1.0  0.25000  0.33400  0.66600  1.0000
  Zn  Zn1       1.0  0.25000  0.92400  0.07590  1.0000
  Zn  Zn2       1.0  0.25000  0.53600  0.08240  1.0000
  Zn  Zn3       1.0  0.00000  0.20500  0.20500  1.0000
  Zn  Zn4       1.0  0.50000  0.20500  0.20500  1.0000
  Zn  Zn5       1.0  0.25000  0.91800  0.46400  1.0000
  Zn  Zn6       1.0  0.75000  0.08240  0.53600  1.0000
  Zn  Zn7       1.0  0.00000  0.79500  0.79500  1.0000
  Zn  Zn8       1.0  0.50000  0.79500  0.79500  1.0000
  Zn  Zn9       1.0  0.75000  0.46400  0.91800  1.0000
  Zn  Zn10      1.0  0.75000  0.07590  0.92400  1.0000
