data_image0
_chemical_formula_structural       HoZn12
_chemical_formula_sum              "Ho1 Zn12"
_cell_length_a       5.18726
_cell_length_b       6.7573
_cell_length_c       6.7573
_cell_angle_alpha    98.4718
_cell_angle_beta     67.4291
_cell_angle_gamma    112.571

_space_group_name_H-M_alt    "P 1"
_space_group_IT_number       1

loop_
  _space_group_symop_operation_xyz
  'x, y, z'

loop_
  _atom_site_type_symbol
  _atom_site_label
  _atom_site_symmetry_multiplicity
  _atom_site_fract_x
  _atom_site_fract_y
  _atom_site_fract_z
  _atom_site_occupancy
  Ho  Ho1       1.0  0.00000  0.00000  0.00000  1.0000
  Zn  Zn1       1.0  0.00000  0.50000  0.00000  1.0000
  Zn  Zn2       1.0  0.50000  0.50000  0.00000  1.0000
  Zn  Zn3       1.0  0.28300  0.78300  0.21700  1.0000
  Zn  Zn4       1.0  0.50000  0.21700  0.21700  1.0000
  Zn  Zn5       1.0  0.64700  0.64700  0.35300  1.0000
  Zn  Zn6       1.0  0.00000  0.35300  0.35300  1.0000
  Zn  Zn7       1.0  0.00000  0.00000  0.50000  1.0000
  Zn  Zn8       1.0  0.50000  0.00000  0.50000  1.0000
  Zn  Zn9       1.0  0.35300  0.35300  0.64700  1.0000
  Zn  Zn10      1.0  0.00000  0.64700  0.64700  1.0000
  Zn  Zn11      1.0  0.71700  0.21700  0.78300  1.0000
  Zn  Zn12      1.0  0.50000  0.78300  0.78300  1.0000
