data_image0
_chemical_formula_structural       Cl8Na2Ti3
_chemical_formula_sum              "Cl8 Na2 Ti3"
_cell_length_a       7.26337
_cell_length_b       7.26337
_cell_length_c       7.86216
_cell_angle_alpha    117.511
_cell_angle_beta     62.489
_cell_angle_gamma    120

_space_group_name_H-M_alt    "P 1"
_space_group_IT_number       1

loop_
  _space_group_symop_operation_xyz
  'x, y, z'

loop_
  _atom_site_type_symbol
  _atom_site_label
  _atom_site_symmetry_multiplicity
  _atom_site_fract_x
  _atom_site_fract_y
  _atom_site_fract_z
  _atom_site_occupancy
  Cl  Cl1       1.0  0.59400  0.40600  0.21800  1.0000
  Cl  Cl2       1.0  0.10000  0.42100  0.22100  1.0000
  Cl  Cl3       1.0  0.10000  0.90000  0.22100  1.0000
  Cl  Cl4       1.0  0.57900  0.90000  0.22100  1.0000
  Cl  Cl5       1.0  0.42100  0.10000  0.77900  1.0000
  Cl  Cl6       1.0  0.90000  0.10000  0.77900  1.0000
  Cl  Cl7       1.0  0.90000  0.57900  0.77900  1.0000
  Cl  Cl8       1.0  0.40600  0.59400  0.78200  1.0000
  Na  Na1       1.0  0.84100  0.15900  0.47600  1.0000
  Na  Na2       1.0  0.15900  0.84100  0.52400  1.0000
  Ti  Ti1       1.0  0.50000  0.00000  0.00000  1.0000
  Ti  Ti2       1.0  0.50000  0.50000  0.00000  1.0000
  Ti  Ti3       1.0  0.00000  0.50000  0.00000  1.0000
