data_image0
_chemical_formula_structural       HoMn12
_chemical_formula_sum              "Ho1 Mn12"
_cell_length_a       4.53801
_cell_length_b       6.23939
_cell_length_c       6.23939
_cell_angle_alpha    97.5995
_cell_angle_beta     68.675
_cell_angle_gamma    111.325

_space_group_name_H-M_alt    "P 1"
_space_group_IT_number       1

loop_
  _space_group_symop_operation_xyz
  'x, y, z'

loop_
  _atom_site_type_symbol
  _atom_site_label
  _atom_site_symmetry_multiplicity
  _atom_site_fract_x
  _atom_site_fract_y
  _atom_site_fract_z
  _atom_site_occupancy
  Ho  Ho1       1.0  0.00000  0.00000  0.00000  1.0000
  Mn  Mn1       1.0  0.00000  0.50000  0.00000  1.0000
  Mn  Mn2       1.0  0.50000  0.50000  0.00000  1.0000
  Mn  Mn3       1.0  0.27400  0.77400  0.22600  1.0000
  Mn  Mn4       1.0  0.50000  0.22600  0.22600  1.0000
  Mn  Mn5       1.0  0.00000  0.36500  0.36500  1.0000
  Mn  Mn6       1.0  0.63500  0.63500  0.36500  1.0000
  Mn  Mn7       1.0  0.50000  1.00000  0.50000  1.0000
  Mn  Mn8       1.0  0.00000  1.00000  0.50000  1.0000
  Mn  Mn9       1.0  0.00000  0.63500  0.63500  1.0000
  Mn  Mn10      1.0  0.36500  0.36500  0.63500  1.0000
  Mn  Mn11      1.0  0.50000  0.77400  0.77400  1.0000
  Mn  Mn12      1.0  0.72600  0.22600  0.77400  1.0000
