data_image0
_chemical_formula_structural       CoTi5
_chemical_formula_sum              "Co1 Ti5"
_cell_length_a       4.69707
_cell_length_b       4.69707
_cell_length_c       4.56784
_cell_angle_alpha    90
_cell_angle_beta     90
_cell_angle_gamma    68.1549

_space_group_name_H-M_alt    "P 1"
_space_group_IT_number       1

loop_
  _space_group_symop_operation_xyz
  'x, y, z'

loop_
  _atom_site_type_symbol
  _atom_site_label
  _atom_site_symmetry_multiplicity
  _atom_site_fract_x
  _atom_site_fract_y
  _atom_site_fract_z
  _atom_site_occupancy
  Co  Co1       1.0  0.03700  0.96300  0.00000  1.0000
  Ti  Ti1       1.0  0.34200  0.29500  0.00000  1.0000
  Ti  Ti2       1.0  0.70500  0.65800  0.00000  1.0000
  Ti  Ti3       1.0  0.65600  0.03690  0.50000  1.0000
  Ti  Ti4       1.0  0.96300  0.34400  0.50000  1.0000
  Ti  Ti5       1.0  0.29700  0.70300  0.50000  1.0000
