data_image0
_chemical_formula_structural       BaNi2O8P2
_chemical_formula_sum              "Ba1 Ni2 O8 P2"
_cell_length_a       4.78743
_cell_length_b       4.78741
_cell_length_c       8.19652
_cell_angle_alpha    73.0192
_cell_angle_beta     106.98
_cell_angle_gamma    120

_space_group_name_H-M_alt    "P 1"
_space_group_IT_number       1

loop_
  _space_group_symop_operation_xyz
  'x, y, z'

loop_
  _atom_site_type_symbol
  _atom_site_label
  _atom_site_symmetry_multiplicity
  _atom_site_fract_x
  _atom_site_fract_y
  _atom_site_fract_z
  _atom_site_occupancy
  Ba  Ba1       1.0  0.00000  0.00000  0.00000  1.0000
  Ni  Ni1       1.0  0.83100  0.16900  0.49300  1.0000
  Ni  Ni2       1.0  0.16900  0.83100  0.50700  1.0000
  O   O1        1.0  0.36100  0.63900  0.08220  1.0000
  O   O2        1.0  0.43900  0.23800  0.34400  1.0000
  O   O3        1.0  0.14300  0.56100  0.34400  1.0000
  O   O4        1.0  0.76200  0.85800  0.34400  1.0000
  O   O5        1.0  0.23800  0.14200  0.65600  1.0000
  O   O6        1.0  0.85700  0.43900  0.65600  1.0000
  O   O7        1.0  0.56100  0.76200  0.65600  1.0000
  O   O8        1.0  0.63900  0.36100  0.91800  1.0000
  P   P1        1.0  0.42600  0.57400  0.27900  1.0000
  P   P2        1.0  0.57400  0.42600  0.72100  1.0000
