data_image0
_chemical_formula_structural       Fe6Ga6Zr
_chemical_formula_sum              "Fe6 Ga6 Zr1"
_cell_length_a       4.97922
_cell_length_b       6.49305
_cell_length_c       6.49305
_cell_angle_alpha    99.3501
_cell_angle_beta     112.546
_cell_angle_gamma    67.4539

_space_group_name_H-M_alt    "P 1"
_space_group_IT_number       1

loop_
  _space_group_symop_operation_xyz
  'x, y, z'

loop_
  _atom_site_type_symbol
  _atom_site_label
  _atom_site_symmetry_multiplicity
  _atom_site_fract_x
  _atom_site_fract_y
  _atom_site_fract_z
  _atom_site_occupancy
  Fe  Fe1       1.0  0.00000  0.50000  0.00000  1.0000
  Fe  Fe2       1.0  0.50000  0.50000  0.00000  1.0000
  Fe  Fe3       1.0  0.50000  0.24400  0.24400  1.0000
  Fe  Fe4       1.0  0.00000  0.00000  0.50000  1.0000
  Fe  Fe5       1.0  0.50000  0.00000  0.50000  1.0000
  Fe  Fe6       1.0  0.50000  0.75600  0.75600  1.0000
  Ga  Ga1       1.0  0.67700  0.82300  0.17700  1.0000
  Ga  Ga2       1.0  0.00000  0.33100  0.33100  1.0000
  Ga  Ga3       1.0  0.34100  0.65900  0.34100  1.0000
  Ga  Ga4       1.0  0.65900  0.34100  0.65900  1.0000
  Ga  Ga5       1.0  0.00000  0.66900  0.66900  1.0000
  Ga  Ga6       1.0  0.32300  0.17700  0.82300  1.0000
  Zr  Zr1       1.0  0.00000  0.00000  0.00000  1.0000
