data_image0
_chemical_formula_structural       Nb6Zn7
_chemical_formula_sum              "Nb6 Zn7"
_cell_length_a       5.07182
_cell_length_b       5.07182
_cell_length_c       9.61294
_cell_angle_alpha    105.296
_cell_angle_beta     74.7042
_cell_angle_gamma    120

_space_group_name_H-M_alt    "P 1"
_space_group_IT_number       1

loop_
  _space_group_symop_operation_xyz
  'x, y, z'

loop_
  _atom_site_type_symbol
  _atom_site_label
  _atom_site_symmetry_multiplicity
  _atom_site_fract_x
  _atom_site_fract_y
  _atom_site_fract_z
  _atom_site_occupancy
  Nb  Nb1       1.0  0.64900  0.35100  0.05190  1.0000
  Nb  Nb2       1.0  0.54500  0.45500  0.36500  1.0000
  Nb  Nb3       1.0  0.83500  0.16500  0.49500  1.0000
  Nb  Nb4       1.0  0.16500  0.83500  0.50500  1.0000
  Nb  Nb5       1.0  0.45500  0.54500  0.63500  1.0000
  Nb  Nb6       1.0  0.35100  0.64900  0.94800  1.0000
  Zn  Zn1       1.0  0.00000  0.00000  0.00000  1.0000
  Zn  Zn2       1.0  0.09380  0.41400  0.22700  1.0000
  Zn  Zn3       1.0  0.58600  0.90600  0.22700  1.0000
  Zn  Zn4       1.0  0.09380  0.90600  0.22700  1.0000
  Zn  Zn5       1.0  0.90600  0.09380  0.77300  1.0000
  Zn  Zn6       1.0  0.41400  0.09380  0.77300  1.0000
  Zn  Zn7       1.0  0.90600  0.58600  0.77300  1.0000
