data_image0
_chemical_formula_structural       Fe4Mo6Na6O24
_chemical_formula_sum              "Fe4 Mo6 Na6 O24"
_cell_length_a       7.13971
_cell_length_b       9.04408
_cell_length_c       9.04408
_cell_angle_alpha    95.3974
_cell_angle_beta     105.153
_cell_angle_gamma    105.153

_space_group_name_H-M_alt    "P 1"
_space_group_IT_number       1

loop_
  _space_group_symop_operation_xyz
  'x, y, z'

loop_
  _atom_site_type_symbol
  _atom_site_label
  _atom_site_symmetry_multiplicity
  _atom_site_fract_x
  _atom_site_fract_y
  _atom_site_fract_z
  _atom_site_occupancy
  Fe  Fe1       1.0  0.87300  0.44700  0.12800  1.0000
  Fe  Fe2       1.0  0.37300  0.12800  0.44700  1.0000
  Fe  Fe3       1.0  0.62700  0.87200  0.55300  1.0000
  Fe  Fe4       1.0  0.12700  0.55300  0.87200  1.0000
  Mo  Mo1       1.0  0.37500  0.38100  0.16300  1.0000
  Mo  Mo2       1.0  0.25000  0.78200  0.21800  1.0000
  Mo  Mo3       1.0  0.87500  0.16300  0.38100  1.0000
  Mo  Mo4       1.0  0.12500  0.83700  0.61900  1.0000
  Mo  Mo5       1.0  0.75000  0.21800  0.78200  1.0000
  Mo  Mo6       1.0  0.62500  0.61900  0.83700  1.0000
  Na  Na1       1.0  0.00000  0.00000  0.00000  1.0000
  Na  Na2       1.0  0.50000  0.00000  0.00000  1.0000
  Na  Na3       1.0  0.75000  0.77100  0.22900  1.0000
  Na  Na4       1.0  0.25000  0.50300  0.49700  1.0000
  Na  Na5       1.0  0.75000  0.49700  0.50300  1.0000
  Na  Na6       1.0  0.25000  0.22900  0.77100  1.0000
  O   O1        1.0  0.26400  0.76000  0.01870  1.0000
  O   O2        1.0  0.31000  0.20200  0.03660  1.0000
  O   O3        1.0  0.16800  0.46500  0.09940  1.0000
  O   O4        1.0  0.61800  0.50200  0.16100  1.0000
  O   O5        1.0  0.81000  0.03660  0.20200  1.0000
  O   O6        1.0  0.23600  0.98100  0.24000  1.0000
  O   O7        1.0  0.02440  0.66400  0.26000  1.0000
  O   O8        1.0  0.47600  0.74000  0.33600  1.0000
  O   O9        1.0  0.90300  0.36100  0.34600  1.0000
  O   O10       1.0  0.40300  0.34600  0.36100  1.0000
  O   O11       1.0  0.66800  0.09940  0.46500  1.0000
  O   O12       1.0  0.88200  0.83900  0.49800  1.0000
  O   O13       1.0  0.11800  0.16100  0.50200  1.0000
  O   O14       1.0  0.33200  0.90100  0.53500  1.0000
  O   O15       1.0  0.59700  0.65400  0.63900  1.0000
  O   O16       1.0  0.09740  0.63900  0.65400  1.0000
  O   O17       1.0  0.52400  0.26000  0.66400  1.0000
  O   O18       1.0  0.97600  0.33600  0.74000  1.0000
  O   O19       1.0  0.76400  0.01870  0.76000  1.0000
  O   O20       1.0  0.19000  0.96300  0.79800  1.0000
  O   O21       1.0  0.38200  0.49800  0.83900  1.0000
  O   O22       1.0  0.83200  0.53500  0.90100  1.0000
  O   O23       1.0  0.69000  0.79800  0.96300  1.0000
  O   O24       1.0  0.73600  0.24000  0.98100  1.0000
