data_image0
_chemical_formula_structural       Fe7W6
_chemical_formula_sum              "Fe7 W6"
_cell_length_a       9.02879
_cell_length_b       9.02879
_cell_length_c       9.02879
_cell_angle_alpha    30.4875
_cell_angle_beta     30.4875
_cell_angle_gamma    30.4875

_space_group_name_H-M_alt    "P 1"
_space_group_IT_number       1

loop_
  _space_group_symop_operation_xyz
  'x, y, z'

loop_
  _atom_site_type_symbol
  _atom_site_label
  _atom_site_symmetry_multiplicity
  _atom_site_fract_x
  _atom_site_fract_y
  _atom_site_fract_z
  _atom_site_occupancy
  Fe  Fe1       1.0  0.00000  0.00000  0.00000  1.0000
  Fe  Fe2       1.0  0.58900  0.09140  0.09140  1.0000
  Fe  Fe3       1.0  0.09140  0.58900  0.09140  1.0000
  Fe  Fe4       1.0  0.90900  0.90900  0.41100  1.0000
  Fe  Fe5       1.0  0.09140  0.09140  0.58900  1.0000
  Fe  Fe6       1.0  0.90900  0.41100  0.90900  1.0000
  Fe  Fe7       1.0  0.41100  0.90900  0.90900  1.0000
  W   W1        1.0  0.16600  0.16600  0.16600  1.0000
  W   W2        1.0  0.34700  0.34700  0.34700  1.0000
  W   W3        1.0  0.45100  0.45100  0.45100  1.0000
  W   W4        1.0  0.54900  0.54900  0.54900  1.0000
  W   W5        1.0  0.65300  0.65300  0.65300  1.0000
  W   W6        1.0  0.83400  0.83400  0.83400  1.0000
