data_image0
_chemical_formula_structural       Ge6MgNi6
_chemical_formula_sum              "Ge6 Mg1 Ni6"
_cell_length_a       5.08971
_cell_length_b       5.08971
_cell_length_c       7.88534
_cell_angle_alpha    90
_cell_angle_beta     90
_cell_angle_gamma    119.999

_space_group_name_H-M_alt    "P 1"
_space_group_IT_number       1

loop_
  _space_group_symop_operation_xyz
  'x, y, z'

loop_
  _atom_site_type_symbol
  _atom_site_label
  _atom_site_symmetry_multiplicity
  _atom_site_fract_x
  _atom_site_fract_y
  _atom_site_fract_z
  _atom_site_occupancy
  Ge  Ge1       1.0  0.66700  0.33300  0.00000  1.0000
  Ge  Ge2       1.0  0.33300  0.66700  0.00000  1.0000
  Ge  Ge3       1.0  0.00001  0.00001  0.34000  1.0000
  Ge  Ge4       1.0  0.66700  0.33300  0.50000  1.0000
  Ge  Ge5       1.0  0.33300  0.66700  0.50000  1.0000
  Ge  Ge6       1.0  0.00001  0.00001  0.66000  1.0000
  Mg  Mg1       1.0  0.00001  0.00001  0.00000  1.0000
  Ni  Ni1       1.0  0.50000  0.00001  0.24900  1.0000
  Ni  Ni2       1.0  0.00001  0.50000  0.24900  1.0000
  Ni  Ni3       1.0  0.50000  0.50000  0.24900  1.0000
  Ni  Ni4       1.0  0.50000  0.50000  0.75100  1.0000
  Ni  Ni5       1.0  0.50000  0.00001  0.75100  1.0000
  Ni  Ni6       1.0  0.00001  0.50000  0.75100  1.0000
