data_image0
_chemical_formula_structural       O28V8Zr4
_chemical_formula_sum              "O28 V8 Zr4"
_cell_length_a       8.83048
_cell_length_b       8.83048
_cell_length_c       8.83048
_cell_angle_alpha    90
_cell_angle_beta     90
_cell_angle_gamma    90

_space_group_name_H-M_alt    "P 1"
_space_group_IT_number       1

loop_
  _space_group_symop_operation_xyz
  'x, y, z'

loop_
  _atom_site_type_symbol
  _atom_site_label
  _atom_site_symmetry_multiplicity
  _atom_site_fract_x
  _atom_site_fract_y
  _atom_site_fract_z
  _atom_site_occupancy
  O   O1        1.0  0.50000  0.00000  0.00000  1.0000
  O   O2        1.0  0.00000  0.50000  0.00000  1.0000
  O   O3        1.0  0.69900  0.39100  0.06260  1.0000
  O   O4        1.0  0.80100  0.89100  0.06260  1.0000
  O   O5        1.0  0.93700  0.19900  0.10900  1.0000
  O   O6        1.0  0.56300  0.69900  0.10900  1.0000
  O   O7        1.0  0.39100  0.43700  0.19900  1.0000
  O   O8        1.0  0.10900  0.93700  0.19900  1.0000
  O   O9        1.0  0.89100  0.43700  0.30100  1.0000
  O   O10       1.0  0.60900  0.93700  0.30100  1.0000
  O   O11       1.0  0.43700  0.19900  0.39100  1.0000
  O   O12       1.0  0.06260  0.69900  0.39100  1.0000
  O   O13       1.0  0.19900  0.39100  0.43700  1.0000
  O   O14       1.0  0.30100  0.89100  0.43700  1.0000
  O   O15       1.0  0.00000  0.00000  0.50000  1.0000
  O   O16       1.0  0.50000  0.50000  0.50000  1.0000
  O   O17       1.0  0.69900  0.10900  0.56300  1.0000
  O   O18       1.0  0.80100  0.60900  0.56300  1.0000
  O   O19       1.0  0.93700  0.30100  0.60900  1.0000
  O   O20       1.0  0.56300  0.80100  0.60900  1.0000
  O   O21       1.0  0.39100  0.06260  0.69900  1.0000
  O   O22       1.0  0.10900  0.56300  0.69900  1.0000
  O   O23       1.0  0.89100  0.06260  0.80100  1.0000
  O   O24       1.0  0.60900  0.56300  0.80100  1.0000
  O   O25       1.0  0.43700  0.30100  0.89100  1.0000
  O   O26       1.0  0.06260  0.80100  0.89100  1.0000
  O   O27       1.0  0.19900  0.10900  0.93700  1.0000
  O   O28       1.0  0.30100  0.60900  0.93700  1.0000
  V   V1        1.0  0.88300  0.38300  0.11700  1.0000
  V   V2        1.0  0.61700  0.88300  0.11700  1.0000
  V   V3        1.0  0.38300  0.38300  0.38300  1.0000
  V   V4        1.0  0.11700  0.88300  0.38300  1.0000
  V   V5        1.0  0.88300  0.11700  0.61700  1.0000
  V   V6        1.0  0.61700  0.61700  0.61700  1.0000
  V   V7        1.0  0.38300  0.11700  0.88300  1.0000
  V   V8        1.0  0.11700  0.61700  0.88300  1.0000
  Zr  Zr1       1.0  0.00000  0.00000  0.00000  1.0000
  Zr  Zr2       1.0  0.50000  0.50000  0.00000  1.0000
  Zr  Zr3       1.0  0.50000  0.00000  0.50000  1.0000
  Zr  Zr4       1.0  0.00000  0.50000  0.50000  1.0000
