data_image0
_chemical_formula_structural       Fe6Ga6Hf
_chemical_formula_sum              "Fe6 Ga6 Hf1"
_cell_length_a       4.97021
_cell_length_b       6.4788
_cell_length_c       6.4788
_cell_angle_alpha    99.5344
_cell_angle_beta     112.555
_cell_angle_gamma    67.4447

_space_group_name_H-M_alt    "P 1"
_space_group_IT_number       1

loop_
  _space_group_symop_operation_xyz
  'x, y, z'

loop_
  _atom_site_type_symbol
  _atom_site_label
  _atom_site_symmetry_multiplicity
  _atom_site_fract_x
  _atom_site_fract_y
  _atom_site_fract_z
  _atom_site_occupancy
  Fe  Fe1       1.0  0.00000  0.50000  0.00000  1.0000
  Fe  Fe2       1.0  0.50000  0.50000  0.00000  1.0000
  Fe  Fe3       1.0  0.50000  0.24300  0.24300  1.0000
  Fe  Fe4       1.0  0.00000  0.00000  0.50000  1.0000
  Fe  Fe5       1.0  0.50000  0.00000  0.50000  1.0000
  Fe  Fe6       1.0  0.50000  0.75700  0.75700  1.0000
  Ga  Ga1       1.0  0.67600  0.82400  0.17600  1.0000
  Ga  Ga2       1.0  0.00000  0.33200  0.33200  1.0000
  Ga  Ga3       1.0  0.34100  0.65900  0.34100  1.0000
  Ga  Ga4       1.0  0.65900  0.34100  0.65900  1.0000
  Ga  Ga5       1.0  0.00000  0.66800  0.66800  1.0000
  Ga  Ga6       1.0  0.32400  0.17600  0.82400  1.0000
  Hf  Hf1       1.0  0.00000  0.00000  0.00000  1.0000
