data_image0
_chemical_formula_structural       B4LaO12Sc3
_chemical_formula_sum              "B4 La1 O12 Sc3"
_cell_length_a       6.25967
_cell_length_b       6.25967
_cell_length_c       6.25967
_cell_angle_alpha    103.541
_cell_angle_beta     103.541
_cell_angle_gamma    103.541

_space_group_name_H-M_alt    "P 1"
_space_group_IT_number       1

loop_
  _space_group_symop_operation_xyz
  'x, y, z'

loop_
  _atom_site_type_symbol
  _atom_site_label
  _atom_site_symmetry_multiplicity
  _atom_site_fract_x
  _atom_site_fract_y
  _atom_site_fract_z
  _atom_site_occupancy
  B   B1        1.0  0.55000  0.45000  1.00000  1.0000
  B   B2        1.0  0.00000  0.00000  0.00000  1.0000
  B   B3        1.0  1.00000  0.55000  0.45000  1.0000
  B   B4        1.0  0.45000  1.00000  0.55000  1.0000
  La  La1       1.0  0.50000  0.50000  0.50000  1.0000
  O   O1        1.0  0.41000  0.59000  1.00000  1.0000
  O   O2        1.0  0.14100  0.85900  0.00000  1.0000
  O   O3        1.0  0.53100  0.29800  0.12700  1.0000
  O   O4        1.0  0.85900  1.00000  0.14100  1.0000
  O   O5        1.0  0.12700  0.53100  0.29800  1.0000
  O   O6        1.0  0.59000  1.00000  0.41000  1.0000
  O   O7        1.0  0.87300  0.70200  0.46900  1.0000
  O   O8        1.0  0.29800  0.12700  0.53100  1.0000
  O   O9        1.0  1.00000  0.41000  0.59000  1.0000
  O   O10       1.0  0.46900  0.87300  0.70200  1.0000
  O   O11       1.0  1.00000  0.14100  0.85900  1.0000
  O   O12       1.0  0.70200  0.46900  0.87300  1.0000
  Sc  Sc1       1.0  0.50000  0.95200  0.04810  1.0000
  Sc  Sc2       1.0  0.95200  0.04810  0.50000  1.0000
  Sc  Sc3       1.0  0.04810  0.50000  0.95200  1.0000
