data_image0
_chemical_formula_structural       Si2Zn4
_chemical_formula_sum              "Si2 Zn4"
_cell_length_a       4.7065
_cell_length_b       4.7262
_cell_length_c       4.78743
_cell_angle_alpha    90
_cell_angle_beta     90
_cell_angle_gamma    59.2301

_space_group_name_H-M_alt    "P 1"
_space_group_IT_number       1

loop_
  _space_group_symop_operation_xyz
  'x, y, z'

loop_
  _atom_site_type_symbol
  _atom_site_label
  _atom_site_symmetry_multiplicity
  _atom_site_fract_x
  _atom_site_fract_y
  _atom_site_fract_z
  _atom_site_occupancy
  Si  Si1       1.0  0.33500  0.33200  0.00000  1.0000
  Si  Si2       1.0  1.00000  0.99900  0.00000  1.0000
  Zn  Zn1       1.0  0.66700  0.66600  0.00000  1.0000
  Zn  Zn2       1.0  0.66500  0.99900  0.50000  1.0000
  Zn  Zn3       1.0  0.33400  0.66700  0.50000  1.0000
  Zn  Zn4       1.0  0.99800  0.33600  0.50000  1.0000
