data_image0
_chemical_formula_structural       Mn12Y
_chemical_formula_sum              "Mn12 Y1"
_cell_length_a       4.5374
_cell_length_b       6.24934
_cell_length_c       6.2493
_cell_angle_alpha    97.573
_cell_angle_beta     68.7139
_cell_angle_gamma    111.286

_space_group_name_H-M_alt    "P 1"
_space_group_IT_number       1

loop_
  _space_group_symop_operation_xyz
  'x, y, z'

loop_
  _atom_site_type_symbol
  _atom_site_label
  _atom_site_symmetry_multiplicity
  _atom_site_fract_x
  _atom_site_fract_y
  _atom_site_fract_z
  _atom_site_occupancy
  Mn  Mn1       1.0  0.00000  0.50000  0.00000  1.0000
  Mn  Mn2       1.0  0.50000  0.50000  0.00000  1.0000
  Mn  Mn3       1.0  0.50000  0.22700  0.22700  1.0000
  Mn  Mn4       1.0  0.27300  0.77300  0.22700  1.0000
  Mn  Mn5       1.0  0.00000  0.36600  0.36600  1.0000
  Mn  Mn6       1.0  0.63400  0.63400  0.36600  1.0000
  Mn  Mn7       1.0  0.50000  0.00000  0.50000  1.0000
  Mn  Mn8       1.0  0.00000  0.00000  0.50000  1.0000
  Mn  Mn9       1.0  0.36600  0.36600  0.63400  1.0000
  Mn  Mn10      1.0  0.00000  0.63400  0.63400  1.0000
  Mn  Mn11      1.0  0.72700  0.22700  0.77300  1.0000
  Mn  Mn12      1.0  0.50000  0.77300  0.77300  1.0000
  Y   Y1        1.0  0.00000  0.00000  0.00000  1.0000
