data_image0
_chemical_formula_structural       Cr5Se8
_chemical_formula_sum              "Cr5 Se8"
_cell_length_a       6.80654
_cell_length_b       6.80654
_cell_length_c       7.20861
_cell_angle_alpha    104.545
_cell_angle_beta     106.241
_cell_angle_gamma    115.965

_space_group_name_H-M_alt    "P 1"
_space_group_IT_number       1

loop_
  _space_group_symop_operation_xyz
  'x, y, z'

loop_
  _atom_site_type_symbol
  _atom_site_label
  _atom_site_symmetry_multiplicity
  _atom_site_fract_x
  _atom_site_fract_y
  _atom_site_fract_z
  _atom_site_occupancy
  Cr  Cr1       1.0  0.25700  0.73000  0.98700  1.0000
  Cr  Cr2       1.0  0.00000  0.00000  0.00000  1.0000
  Cr  Cr3       1.0  0.74300  0.27000  0.01340  1.0000
  Cr  Cr4       1.0  0.22700  0.72700  0.50000  1.0000
  Cr  Cr5       1.0  0.77300  0.27300  0.50000  1.0000
  Se  Se1       1.0  0.20400  0.45600  0.17100  1.0000
  Se  Se2       1.0  0.71500  0.96700  0.17100  1.0000
  Se  Se3       1.0  0.30100  0.02360  0.32500  1.0000
  Se  Se4       1.0  0.78500  0.54900  0.33400  1.0000
  Se  Se5       1.0  0.21500  0.45100  0.66600  1.0000
  Se  Se6       1.0  0.69900  0.97600  0.67500  1.0000
  Se  Se7       1.0  0.28500  0.03320  0.82900  1.0000
  Se  Se8       1.0  0.79600  0.54400  0.82900  1.0000
