data_image0
_chemical_formula_structural       B2La5N6
_chemical_formula_sum              "B2 La5 N6"
_cell_length_a       3.68002
_cell_length_b       6.5212
_cell_length_c       9.02367
_cell_angle_alpha    104.964
_cell_angle_beta     90
_cell_angle_gamma    106.389

_space_group_name_H-M_alt    "P 1"
_space_group_IT_number       1

loop_
  _space_group_symop_operation_xyz
  'x, y, z'

loop_
  _atom_site_type_symbol
  _atom_site_label
  _atom_site_symmetry_multiplicity
  _atom_site_fract_x
  _atom_site_fract_y
  _atom_site_fract_z
  _atom_site_occupancy
  B   B1        1.0  0.94500  0.89100  0.41100  1.0000
  B   B2        1.0  0.05450  0.10900  0.58900  1.0000
  La  La1       1.0  0.00000  0.00000  0.00000  1.0000
  La  La2       1.0  0.30800  0.61600  0.18200  1.0000
  La  La3       1.0  0.62500  0.24900  0.37400  1.0000
  La  La4       1.0  0.37500  0.75100  0.62600  1.0000
  La  La5       1.0  0.69200  0.38400  0.81800  1.0000
  N   N1        1.0  0.65600  0.31200  0.07810  1.0000
  N   N2        1.0  0.97400  0.94900  0.26300  1.0000
  N   N3        1.0  0.82800  0.65700  0.41700  1.0000
  N   N4        1.0  0.17200  0.34300  0.58300  1.0000
  N   N5        1.0  0.02570  0.05130  0.73700  1.0000
  N   N6        1.0  0.34400  0.68800  0.92200  1.0000
