data_image0
_chemical_formula_structural       Cs2Ge34Na4
_chemical_formula_sum              "Cs2 Ge34 Na4"
_cell_length_a       11.1225
_cell_length_b       11.1225
_cell_length_c       11.1225
_cell_angle_alpha    120
_cell_angle_beta     90
_cell_angle_gamma    120

_space_group_name_H-M_alt    "P 1"
_space_group_IT_number       1

loop_
  _space_group_symop_operation_xyz
  'x, y, z'

loop_
  _atom_site_type_symbol
  _atom_site_label
  _atom_site_symmetry_multiplicity
  _atom_site_fract_x
  _atom_site_fract_y
  _atom_site_fract_z
  _atom_site_occupancy
  Cs  Cs1       1.0  0.37500  0.75000  0.12500  1.0000
  Cs  Cs2       1.0  0.62500  0.25000  0.87500  1.0000
  Ge  Ge1       1.0  0.99400  0.76000  0.13000  1.0000
  Ge  Ge2       1.0  0.37000  0.13500  0.13000  1.0000
  Ge  Ge3       1.0  0.37000  0.36500  0.13000  1.0000
  Ge  Ge4       1.0  0.99400  0.36500  0.13000  1.0000
  Ge  Ge5       1.0  0.76500  0.13500  0.13000  1.0000
  Ge  Ge6       1.0  0.76500  0.76000  0.13000  1.0000
  Ge  Ge7       1.0  0.63000  0.26000  0.26500  1.0000
  Ge  Ge8       1.0  0.00561  0.63500  0.26500  1.0000
  Ge  Ge9       1.0  0.63000  0.63500  0.26500  1.0000
  Ge  Ge10      1.0  0.21800  0.06490  0.28200  1.0000
  Ge  Ge11      1.0  0.84700  0.06490  0.28200  1.0000
  Ge  Ge12      1.0  0.21800  0.43500  0.28200  1.0000
  Ge  Ge13      1.0  0.78200  0.56500  0.34700  1.0000
  Ge  Ge14      1.0  0.12500  0.25000  0.37500  1.0000
  Ge  Ge15      1.0  0.23500  0.86500  0.49400  1.0000
  Ge  Ge16      1.0  0.63000  0.26000  0.49400  1.0000
  Ge  Ge17      1.0  0.63000  0.86500  0.49400  1.0000
  Ge  Ge18      1.0  0.37000  0.13500  0.50600  1.0000
  Ge  Ge19      1.0  0.76500  0.13500  0.50600  1.0000
  Ge  Ge20      1.0  0.37000  0.74000  0.50600  1.0000
  Ge  Ge21      1.0  0.87500  0.75000  0.62500  1.0000
  Ge  Ge22      1.0  0.21800  0.43500  0.65300  1.0000
  Ge  Ge23      1.0  0.78200  0.56500  0.71800  1.0000
  Ge  Ge24      1.0  0.15300  0.93500  0.71800  1.0000
  Ge  Ge25      1.0  0.78200  0.93500  0.71800  1.0000
  Ge  Ge26      1.0  0.37000  0.36500  0.73500  1.0000
  Ge  Ge27      1.0  0.37000  0.74000  0.73500  1.0000
  Ge  Ge28      1.0  0.99400  0.36500  0.73500  1.0000
  Ge  Ge29      1.0  0.00561  0.24000  0.87000  1.0000
  Ge  Ge30      1.0  0.23500  0.24000  0.87000  1.0000
  Ge  Ge31      1.0  0.00561  0.63500  0.87000  1.0000
  Ge  Ge32      1.0  0.63000  0.63500  0.87000  1.0000
  Ge  Ge33      1.0  0.23500  0.86500  0.87000  1.0000
  Ge  Ge34      1.0  0.63000  0.86500  0.87000  1.0000
  Na  Na1       1.0  0.00000  0.00000  0.00000  1.0000
  Na  Na2       1.0  0.00000  0.00000  0.50000  1.0000
  Na  Na3       1.0  0.00000  0.50000  0.50000  1.0000
  Na  Na4       1.0  0.50000  0.50000  0.50000  1.0000
