data_image0
_chemical_formula_structural       Ho6Zn30
_chemical_formula_sum              "Ho6 Zn30"
_cell_length_a       8.85824
_cell_length_b       8.85817
_cell_length_c       9.00669
_cell_angle_alpha    90
_cell_angle_beta     90
_cell_angle_gamma    120

_space_group_name_H-M_alt    "P 1"
_space_group_IT_number       1

loop_
  _space_group_symop_operation_xyz
  'x, y, z'

loop_
  _atom_site_type_symbol
  _atom_site_label
  _atom_site_symmetry_multiplicity
  _atom_site_fract_x
  _atom_site_fract_y
  _atom_site_fract_z
  _atom_site_occupancy
  Ho  Ho1       1.0  0.19000  0.38000  0.25000  1.0000
  Ho  Ho2       1.0  0.19000  0.81000  0.25000  1.0000
  Ho  Ho3       1.0  0.62000  0.81000  0.25000  1.0000
  Ho  Ho4       1.0  0.38000  0.19000  0.75000  1.0000
  Ho  Ho5       1.0  0.81000  0.19000  0.75000  1.0000
  Ho  Ho6       1.0  0.81000  0.62000  0.75000  1.0000
  Zn  Zn1       1.0  0.00000  0.00000  0.00000  1.0000
  Zn  Zn2       1.0  0.50000  0.00000  0.00000  1.0000
  Zn  Zn3       1.0  0.00000  0.50000  0.00000  1.0000
  Zn  Zn4       1.0  0.50000  0.50000  0.00000  1.0000
  Zn  Zn5       1.0  0.33300  0.66700  0.01610  1.0000
  Zn  Zn6       1.0  0.32000  0.16000  0.09360  1.0000
  Zn  Zn7       1.0  0.84000  0.16000  0.09360  1.0000
  Zn  Zn8       1.0  0.84000  0.68000  0.09360  1.0000
  Zn  Zn9       1.0  0.56800  0.13600  0.25000  1.0000
  Zn  Zn10      1.0  0.56800  0.43200  0.25000  1.0000
  Zn  Zn11      1.0  0.86400  0.43200  0.25000  1.0000
  Zn  Zn12      1.0  0.84000  0.68000  0.40600  1.0000
  Zn  Zn13      1.0  0.32000  0.16000  0.40600  1.0000
  Zn  Zn14      1.0  0.84000  0.16000  0.40600  1.0000
  Zn  Zn15      1.0  0.33300  0.66700  0.48400  1.0000
  Zn  Zn16      1.0  0.00000  0.00000  0.50000  1.0000
  Zn  Zn17      1.0  0.50000  0.00000  0.50000  1.0000
  Zn  Zn18      1.0  0.00000  0.50000  0.50000  1.0000
  Zn  Zn19      1.0  0.50000  0.50000  0.50000  1.0000
  Zn  Zn20      1.0  0.66700  0.33300  0.51600  1.0000
  Zn  Zn21      1.0  0.16000  0.84000  0.59400  1.0000
  Zn  Zn22      1.0  0.68000  0.84000  0.59400  1.0000
  Zn  Zn23      1.0  0.16000  0.32000  0.59400  1.0000
  Zn  Zn24      1.0  0.13600  0.56800  0.75000  1.0000
  Zn  Zn25      1.0  0.43200  0.56800  0.75000  1.0000
  Zn  Zn26      1.0  0.43200  0.86400  0.75000  1.0000
  Zn  Zn27      1.0  0.16000  0.32000  0.90600  1.0000
  Zn  Zn28      1.0  0.16000  0.84000  0.90600  1.0000
  Zn  Zn29      1.0  0.68000  0.84000  0.90600  1.0000
  Zn  Zn30      1.0  0.66700  0.33300  0.98400  1.0000
