data_image0
_chemical_formula_structural       Be2F8K2Pb
_chemical_formula_sum              "Be2 F8 K2 Pb1"
_cell_length_a       5.28627
_cell_length_b       5.28627
_cell_length_c       7.33929
_cell_angle_alpha    68.8915
_cell_angle_beta     111.108
_cell_angle_gamma    120

_space_group_name_H-M_alt    "P 1"
_space_group_IT_number       1

loop_
  _space_group_symop_operation_xyz
  'x, y, z'

loop_
  _atom_site_type_symbol
  _atom_site_label
  _atom_site_symmetry_multiplicity
  _atom_site_fract_x
  _atom_site_fract_y
  _atom_site_fract_z
  _atom_site_occupancy
  Be  Be1       1.0  0.40500  0.59500  0.21400  1.0000
  Be  Be2       1.0  0.59500  0.40500  0.78600  1.0000
  F   F1        1.0  0.67300  0.32700  0.01770  1.0000
  F   F2        1.0  0.74900  0.72900  0.29200  1.0000
  F   F3        1.0  0.27100  0.25100  0.29200  1.0000
  F   F4        1.0  0.27100  0.72900  0.29200  1.0000
  F   F5        1.0  0.72900  0.27100  0.70800  1.0000
  F   F6        1.0  0.72900  0.74900  0.70800  1.0000
  F   F7        1.0  0.25100  0.27100  0.70800  1.0000
  F   F8        1.0  0.32700  0.67300  0.98200  1.0000
  K   K1        1.0  0.79800  0.20200  0.39300  1.0000
  K   K2        1.0  0.20200  0.79800  0.60700  1.0000
  Pb  Pb1       1.0  0.00000  0.00000  0.00000  1.0000
