data_image0
_chemical_formula_structural       Ce3Ni2Si8
_chemical_formula_sum              "Ce3 Ni2 Si8"
_cell_length_a       4.18213
_cell_length_b       4.30569
_cell_length_c       13.1751
_cell_angle_alpha    90
_cell_angle_beta     80.8678
_cell_angle_gamma    90

_space_group_name_H-M_alt    "P 1"
_space_group_IT_number       1

loop_
  _space_group_symop_operation_xyz
  'x, y, z'

loop_
  _atom_site_type_symbol
  _atom_site_label
  _atom_site_symmetry_multiplicity
  _atom_site_fract_x
  _atom_site_fract_y
  _atom_site_fract_z
  _atom_site_occupancy
  Ce  Ce1       1.0  0.00000  0.00000  0.00000  1.0000
  Ce  Ce2       1.0  0.31300  0.50000  0.37300  1.0000
  Ce  Ce3       1.0  0.68700  0.50000  0.62700  1.0000
  Ni  Ni1       1.0  0.86800  0.00000  0.26400  1.0000
  Ni  Ni2       1.0  0.13200  0.00000  0.73600  1.0000
  Si  Si1       1.0  0.45400  0.50000  0.09110  1.0000
  Si  Si2       1.0  0.40600  0.00000  0.18700  1.0000
  Si  Si3       1.0  0.90500  0.50000  0.19100  1.0000
  Si  Si4       1.0  0.77600  0.00000  0.44700  1.0000
  Si  Si5       1.0  0.22400  0.00000  0.55300  1.0000
  Si  Si6       1.0  0.09550  0.50000  0.80900  1.0000
  Si  Si7       1.0  0.59400  0.00000  0.81300  1.0000
  Si  Si8       1.0  0.54600  0.50000  0.90900  1.0000
