data_image0
_chemical_formula_structural       Fe7Mo6
_chemical_formula_sum              "Fe7 Mo6"
_cell_length_a       8.9757
_cell_length_b       8.9757
_cell_length_c       8.9757
_cell_angle_alpha    30.6623
_cell_angle_beta     30.6623
_cell_angle_gamma    30.6623

_space_group_name_H-M_alt    "P 1"
_space_group_IT_number       1

loop_
  _space_group_symop_operation_xyz
  'x, y, z'

loop_
  _atom_site_type_symbol
  _atom_site_label
  _atom_site_symmetry_multiplicity
  _atom_site_fract_x
  _atom_site_fract_y
  _atom_site_fract_z
  _atom_site_occupancy
  Fe  Fe1       1.0  0.00000  0.00000  0.00000  1.0000
  Fe  Fe2       1.0  0.09190  0.58900  0.09190  1.0000
  Fe  Fe3       1.0  0.58900  0.09190  0.09190  1.0000
  Fe  Fe4       1.0  0.90800  0.90800  0.41100  1.0000
  Fe  Fe5       1.0  0.09190  0.09190  0.58900  1.0000
  Fe  Fe6       1.0  0.41100  0.90800  0.90800  1.0000
  Fe  Fe7       1.0  0.90800  0.41100  0.90800  1.0000
  Mo  Mo1       1.0  0.16500  0.16500  0.16500  1.0000
  Mo  Mo2       1.0  0.34800  0.34800  0.34800  1.0000
  Mo  Mo3       1.0  0.45100  0.45100  0.45100  1.0000
  Mo  Mo4       1.0  0.54900  0.54900  0.54900  1.0000
  Mo  Mo5       1.0  0.65200  0.65200  0.65200  1.0000
  Mo  Mo6       1.0  0.83500  0.83500  0.83500  1.0000
