data_image0
_chemical_formula_structural       Br8Tb5
_chemical_formula_sum              "Br8 Tb5"
_cell_length_a       3.84231
_cell_length_b       10.1403
_cell_length_c       10.6215
_cell_angle_alpha    82.8472
_cell_angle_beta     100.421
_cell_angle_gamma    100.921

_space_group_name_H-M_alt    "P 1"
_space_group_IT_number       1

loop_
  _space_group_symop_operation_xyz
  'x, y, z'

loop_
  _atom_site_type_symbol
  _atom_site_label
  _atom_site_symmetry_multiplicity
  _atom_site_fract_x
  _atom_site_fract_y
  _atom_site_fract_z
  _atom_site_occupancy
  Br  Br1       1.0  0.63800  0.17500  0.10000  1.0000
  Br  Br2       1.0  0.33000  0.50200  0.15800  1.0000
  Br  Br3       1.0  0.03820  0.83800  0.23800  1.0000
  Br  Br4       1.0  0.29200  0.15700  0.42700  1.0000
  Br  Br5       1.0  0.70800  0.84300  0.57300  1.0000
  Br  Br6       1.0  0.96200  0.16200  0.76200  1.0000
  Br  Br7       1.0  0.67000  0.49800  0.84200  1.0000
  Br  Br8       1.0  0.36200  0.82500  0.90000  1.0000
  Tb  Tb1       1.0  0.00000  0.00000  0.00000  1.0000
  Tb  Tb2       1.0  0.84600  0.36100  0.33100  1.0000
  Tb  Tb3       1.0  0.51600  0.64800  0.38400  1.0000
  Tb  Tb4       1.0  0.48400  0.35200  0.61600  1.0000
  Tb  Tb5       1.0  0.15400  0.63900  0.66900  1.0000
