data_image0
_chemical_formula_structural       Be2F8K2Sr
_chemical_formula_sum              "Be2 F8 K2 Sr1"
_cell_length_a       5.25506
_cell_length_b       5.25506
_cell_length_c       7.30697
_cell_angle_alpha    68.9248
_cell_angle_beta     111.075
_cell_angle_gamma    120

_space_group_name_H-M_alt    "P 1"
_space_group_IT_number       1

loop_
  _space_group_symop_operation_xyz
  'x, y, z'

loop_
  _atom_site_type_symbol
  _atom_site_label
  _atom_site_symmetry_multiplicity
  _atom_site_fract_x
  _atom_site_fract_y
  _atom_site_fract_z
  _atom_site_occupancy
  Be  Be1       1.0  0.40500  0.59500  0.21400  1.0000
  Be  Be2       1.0  0.59500  0.40500  0.78600  1.0000
  F   F1        1.0  0.67300  0.32700  0.02000  1.0000
  F   F2        1.0  0.26900  0.25000  0.28800  1.0000
  F   F3        1.0  0.75000  0.73100  0.28800  1.0000
  F   F4        1.0  0.26900  0.73100  0.28800  1.0000
  F   F5        1.0  0.73100  0.26900  0.71200  1.0000
  F   F6        1.0  0.25000  0.26900  0.71200  1.0000
  F   F7        1.0  0.73100  0.75000  0.71200  1.0000
  F   F8        1.0  0.32700  0.67300  0.98000  1.0000
  K   K1        1.0  0.79900  0.20100  0.39600  1.0000
  K   K2        1.0  0.20100  0.79900  0.60400  1.0000
  Sr  Sr1       1.0  0.00000  0.00000  0.00000  1.0000
