data_image0
_chemical_formula_structural       Au7Cs4Sn2
_chemical_formula_sum              "Au7 Cs4 Sn2"
_cell_length_a       6.9949
_cell_length_b       6.9949
_cell_length_c       10.7743
_cell_angle_alpha    108.942
_cell_angle_beta     90
_cell_angle_gamma    60

_space_group_name_H-M_alt    "P 1"
_space_group_IT_number       1

loop_
  _space_group_symop_operation_xyz
  'x, y, z'

loop_
  _atom_site_type_symbol
  _atom_site_label
  _atom_site_symmetry_multiplicity
  _atom_site_fract_x
  _atom_site_fract_y
  _atom_site_fract_z
  _atom_site_occupancy
  Au  Au1       1.0  0.00000  0.00000  0.00000  1.0000
  Au  Au2       1.0  0.19500  0.01740  0.23000  1.0000
  Au  Au3       1.0  0.78800  0.01740  0.23000  1.0000
  Au  Au4       1.0  0.78800  0.42500  0.23000  1.0000
  Au  Au5       1.0  0.21200  0.57500  0.77000  1.0000
  Au  Au6       1.0  0.21200  0.98300  0.77000  1.0000
  Au  Au7       1.0  0.80500  0.98300  0.77000  1.0000
  Cs  Cs1       1.0  0.31500  0.37000  0.05510  1.0000
  Cs  Cs2       1.0  0.18700  0.62600  0.44000  1.0000
  Cs  Cs3       1.0  0.81300  0.37400  0.56000  1.0000
  Cs  Cs4       1.0  0.68500  0.63000  0.94500  1.0000
  Sn  Sn1       1.0  0.55000  0.90000  0.35000  1.0000
  Sn  Sn2       1.0  0.45000  0.10000  0.65000  1.0000
