data_image0
_chemical_formula_structural       F28K8Ta4
_chemical_formula_sum              "F28 K8 Ta4"
_cell_length_a       5.61141
_cell_length_b       12.2256
_cell_length_c       8.16819
_cell_angle_alpha    90
_cell_angle_beta     90.1461
_cell_angle_gamma    90

_space_group_name_H-M_alt    "P 1"
_space_group_IT_number       1

loop_
  _space_group_symop_operation_xyz
  'x, y, z'

loop_
  _atom_site_type_symbol
  _atom_site_label
  _atom_site_symmetry_multiplicity
  _atom_site_fract_x
  _atom_site_fract_y
  _atom_site_fract_z
  _atom_site_occupancy
  F   F1        1.0  0.83300  0.88900  0.00641  1.0000
  F   F2        1.0  0.52400  0.60800  0.08490  1.0000
  F   F3        1.0  0.96600  0.60500  0.10500  1.0000
  F   F4        1.0  0.57100  0.07220  0.11800  1.0000
  F   F5        1.0  0.04040  0.24600  0.19600  1.0000
  F   F6        1.0  0.47000  0.25800  0.20100  1.0000
  F   F7        1.0  0.22200  0.96600  0.22400  1.0000
  F   F8        1.0  0.77800  0.46600  0.27600  1.0000
  F   F9        1.0  0.53000  0.75800  0.29900  1.0000
  F   F10       1.0  0.96000  0.74600  0.30400  1.0000
  F   F11       1.0  0.42900  0.57200  0.38200  1.0000
  F   F12       1.0  0.03390  0.10500  0.39500  1.0000
  F   F13       1.0  0.47600  0.10800  0.41500  1.0000
  F   F14       1.0  0.16700  0.38900  0.49400  1.0000
  F   F15       1.0  0.83300  0.61100  0.50600  1.0000
  F   F16       1.0  0.52400  0.89200  0.58500  1.0000
  F   F17       1.0  0.96600  0.89500  0.60500  1.0000
  F   F18       1.0  0.57100  0.42800  0.61800  1.0000
  F   F19       1.0  0.04040  0.25400  0.69600  1.0000
  F   F20       1.0  0.47000  0.24200  0.70100  1.0000
  F   F21       1.0  0.22200  0.53400  0.72400  1.0000
  F   F22       1.0  0.77800  0.03450  0.77600  1.0000
  F   F23       1.0  0.53000  0.74200  0.79900  1.0000
  F   F24       1.0  0.96000  0.75400  0.80400  1.0000
  F   F25       1.0  0.42900  0.92800  0.88200  1.0000
  F   F26       1.0  0.03390  0.39500  0.89500  1.0000
  F   F27       1.0  0.47600  0.39200  0.91500  1.0000
  F   F28       1.0  0.16700  0.11100  0.99400  1.0000
  K   K1        1.0  0.23700  0.77900  0.05620  1.0000
  K   K2        1.0  0.23900  0.43900  0.18000  1.0000
  K   K3        1.0  0.76100  0.93900  0.32000  1.0000
  K   K4        1.0  0.76300  0.27900  0.44400  1.0000
  K   K5        1.0  0.23700  0.72100  0.55600  1.0000
  K   K6        1.0  0.23900  0.06060  0.68000  1.0000
  K   K7        1.0  0.76100  0.56100  0.82000  1.0000
  K   K8        1.0  0.76300  0.22100  0.94400  1.0000
  Ta  Ta1       1.0  0.27200  0.12400  0.21900  1.0000
  Ta  Ta2       1.0  0.72800  0.62400  0.28100  1.0000
  Ta  Ta3       1.0  0.27200  0.37600  0.71900  1.0000
  Ta  Ta4       1.0  0.72800  0.87600  0.78100  1.0000
