data_image0
_chemical_formula_structural       Fe8Pb4Si4
_chemical_formula_sum              "Fe8 Pb4 Si4"
_cell_length_a       6.28348
_cell_length_b       6.28348
_cell_length_c       6.28348
_cell_angle_alpha    90
_cell_angle_beta     90
_cell_angle_gamma    90

_space_group_name_H-M_alt    "P 1"
_space_group_IT_number       1

loop_
  _space_group_symop_operation_xyz
  'x, y, z'

loop_
  _atom_site_type_symbol
  _atom_site_label
  _atom_site_symmetry_multiplicity
  _atom_site_fract_x
  _atom_site_fract_y
  _atom_site_fract_z
  _atom_site_occupancy
  Fe  Fe1       1.0  0.20700  0.20700  0.20700  1.0000
  Fe  Fe2       1.0  0.79300  0.20700  0.20700  1.0000
  Fe  Fe3       1.0  0.20700  0.79300  0.20700  1.0000
  Fe  Fe4       1.0  0.79300  0.79300  0.20700  1.0000
  Fe  Fe5       1.0  0.20700  0.20700  0.79300  1.0000
  Fe  Fe6       1.0  0.79300  0.20700  0.79300  1.0000
  Fe  Fe7       1.0  0.20700  0.79300  0.79300  1.0000
  Fe  Fe8       1.0  0.79300  0.79300  0.79300  1.0000
  Pb  Pb1       1.0  0.50000  0.50000  0.00000  1.0000
  Pb  Pb2       1.0  0.50000  0.00000  0.50000  1.0000
  Pb  Pb3       1.0  0.00000  0.50000  0.50000  1.0000
  Pb  Pb4       1.0  0.50000  0.50000  0.50000  1.0000
  Si  Si1       1.0  0.00000  0.00000  0.00000  1.0000
  Si  Si2       1.0  0.50000  0.00000  0.00000  1.0000
  Si  Si3       1.0  0.00000  0.50000  0.00000  1.0000
  Si  Si4       1.0  0.00000  0.00000  0.50000  1.0000
