data_image0
_chemical_formula_structural       O6TeTl6
_chemical_formula_sum              "O6 Te1 Tl6"
_cell_length_a       6.47253
_cell_length_b       6.47253
_cell_length_c       6.47253
_cell_angle_alpha    94.8805
_cell_angle_beta     94.8805
_cell_angle_gamma    94.8805

_space_group_name_H-M_alt    "P 1"
_space_group_IT_number       1

loop_
  _space_group_symop_operation_xyz
  'x, y, z'

loop_
  _atom_site_type_symbol
  _atom_site_label
  _atom_site_symmetry_multiplicity
  _atom_site_fract_x
  _atom_site_fract_y
  _atom_site_fract_z
  _atom_site_occupancy
  O   O1        1.0  0.70300  0.95000  0.03500  1.0000
  O   O2        1.0  0.96500  0.29700  0.05040  1.0000
  O   O3        1.0  0.05040  0.96500  0.29700  1.0000
  O   O4        1.0  0.95000  0.03500  0.70300  1.0000
  O   O5        1.0  0.03500  0.70300  0.95000  1.0000
  O   O6        1.0  0.29700  0.05040  0.96500  1.0000
  Te  Te1       1.0  0.00000  0.00000  0.00000  1.0000
  Tl  Tl1       1.0  0.57800  0.28700  0.15300  1.0000
  Tl  Tl2       1.0  0.15300  0.57800  0.28700  1.0000
  Tl  Tl3       1.0  0.71300  0.84700  0.42200  1.0000
  Tl  Tl4       1.0  0.28700  0.15300  0.57800  1.0000
  Tl  Tl5       1.0  0.84700  0.42200  0.71300  1.0000
  Tl  Tl6       1.0  0.42200  0.71300  0.84700  1.0000
