data_image0
_chemical_formula_structural       I6Pb5S2
_chemical_formula_sum              "I6 Pb5 S2"
_cell_length_a       4.49501
_cell_length_b       7.7748
_cell_length_c       15.081
_cell_angle_alpha    98.0199
_cell_angle_beta     90
_cell_angle_gamma    106.803

_space_group_name_H-M_alt    "P 1"
_space_group_IT_number       1

loop_
  _space_group_symop_operation_xyz
  'x, y, z'

loop_
  _atom_site_type_symbol
  _atom_site_label
  _atom_site_symmetry_multiplicity
  _atom_site_fract_x
  _atom_site_fract_y
  _atom_site_fract_z
  _atom_site_occupancy
  I   I1        1.0  0.37000  0.74000  0.06980  1.0000
  I   I2        1.0  0.12400  0.24900  0.20000  1.0000
  I   I3        1.0  0.42300  0.84600  0.35900  1.0000
  I   I4        1.0  0.57700  0.15400  0.64100  1.0000
  I   I5        1.0  0.87600  0.75100  0.80000  1.0000
  I   I6        1.0  0.63000  0.26000  0.93000  1.0000
  Pb  Pb1       1.0  0.00000  0.00000  0.00000  1.0000
  Pb  Pb2       1.0  0.78200  0.56400  0.24300  1.0000
  Pb  Pb3       1.0  0.13100  0.26100  0.46900  1.0000
  Pb  Pb4       1.0  0.86900  0.73900  0.53100  1.0000
  Pb  Pb5       1.0  0.21800  0.43600  0.75700  1.0000
  S   S1        1.0  0.71700  0.43400  0.40500  1.0000
  S   S2        1.0  0.28300  0.56600  0.59500  1.0000
