data_image0
_chemical_formula_structural       P2Pd3S8
_chemical_formula_sum              "P2 Pd3 S8"
_cell_length_a       7.05485
_cell_length_b       7.05509
_cell_length_c       7.35366
_cell_angle_alpha    90
_cell_angle_beta     89.9957
_cell_angle_gamma    120.001

_space_group_name_H-M_alt    "P 1"
_space_group_IT_number       1

loop_
  _space_group_symop_operation_xyz
  'x, y, z'

loop_
  _atom_site_type_symbol
  _atom_site_label
  _atom_site_symmetry_multiplicity
  _atom_site_fract_x
  _atom_site_fract_y
  _atom_site_fract_z
  _atom_site_occupancy
  P   P1        1.0  0.33300  0.66700  0.32800  1.0000
  P   P2        1.0  0.66700  0.33300  0.67200  1.0000
  Pd  Pd1       1.0  0.00000  0.50000  0.00000  1.0000
  Pd  Pd2       1.0  0.50000  0.00000  1.00000  1.0000
  Pd  Pd3       1.0  0.50000  0.50000  1.00000  1.0000
  S   S1        1.0  0.63500  0.81700  0.18200  1.0000
  S   S2        1.0  0.18300  0.36500  0.18200  1.0000
  S   S3        1.0  0.18300  0.81700  0.18200  1.0000
  S   S4        1.0  0.66700  0.33300  0.41100  1.0000
  S   S5        1.0  0.33300  0.66700  0.58900  1.0000
  S   S6        1.0  0.81700  0.63500  0.81800  1.0000
  S   S7        1.0  0.81700  0.18300  0.81800  1.0000
  S   S8        1.0  0.36500  0.18300  0.81800  1.0000
