data_image0
_chemical_formula_structural       AgMo6Te6
_chemical_formula_sum              "Ag1 Mo6 Te6"
_cell_length_a       4.60914
_cell_length_b       9.26797
_cell_length_c       9.38602
_cell_angle_alpha    118.445
_cell_angle_beta     90
_cell_angle_gamma    104.398

_space_group_name_H-M_alt    "P 1"
_space_group_IT_number       1

loop_
  _space_group_symop_operation_xyz
  'x, y, z'

loop_
  _atom_site_type_symbol
  _atom_site_label
  _atom_site_symmetry_multiplicity
  _atom_site_fract_x
  _atom_site_fract_y
  _atom_site_fract_z
  _atom_site_occupancy
  Ag  Ag1       1.0  0.00000  0.00000  0.00000  1.0000
  Mo  Mo1       1.0  0.71600  0.43200  0.31400  1.0000
  Mo  Mo2       1.0  0.15300  0.30700  0.37800  1.0000
  Mo  Mo3       1.0  0.31400  0.62800  0.43400  1.0000
  Mo  Mo4       1.0  0.68600  0.37200  0.56600  1.0000
  Mo  Mo5       1.0  0.84700  0.69300  0.62200  1.0000
  Mo  Mo6       1.0  0.28400  0.56800  0.68600  1.0000
  Te  Te1       1.0  0.18200  0.36500  0.10400  1.0000
  Te  Te2       1.0  0.54300  0.08510  0.25200  1.0000
  Te  Te3       1.0  0.88400  0.76800  0.36200  1.0000
  Te  Te4       1.0  0.11600  0.23200  0.63800  1.0000
  Te  Te5       1.0  0.45700  0.91500  0.74800  1.0000
  Te  Te6       1.0  0.81800  0.63500  0.89600  1.0000
