data_image0
_chemical_formula_structural       C8F24Te8
_chemical_formula_sum              "C8 F24 Te8"
_cell_length_a       9.33226
_cell_length_b       10.527
_cell_length_c       6.38422
_cell_angle_alpha    90
_cell_angle_beta     100.723
_cell_angle_gamma    90

_space_group_name_H-M_alt    "P 1"
_space_group_IT_number       1

loop_
  _space_group_symop_operation_xyz
  'x, y, z'

loop_
  _atom_site_type_symbol
  _atom_site_label
  _atom_site_symmetry_multiplicity
  _atom_site_fract_x
  _atom_site_fract_y
  _atom_site_fract_z
  _atom_site_occupancy
  C   C1        1.0  0.72300  0.96500  0.18800  1.0000
  C   C2        1.0  0.22300  0.53500  0.18800  1.0000
  C   C3        1.0  0.95200  0.28400  0.43200  1.0000
  C   C4        1.0  0.45200  0.21600  0.43200  1.0000
  C   C5        1.0  0.04840  0.71600  0.56800  1.0000
  C   C6        1.0  0.54800  0.78400  0.56800  1.0000
  C   C7        1.0  0.27700  0.03530  0.81200  1.0000
  C   C8        1.0  0.77700  0.46500  0.81200  1.0000
  F   F1        1.0  0.59300  0.91100  0.09710  1.0000
  F   F2        1.0  0.09350  0.58900  0.09710  1.0000
  F   F3        1.0  0.82200  0.86900  0.23500  1.0000
  F   F4        1.0  0.32200  0.63100  0.23500  1.0000
  F   F5        1.0  0.89000  0.38300  0.30900  1.0000
  F   F6        1.0  0.39000  0.11700  0.30900  1.0000
  F   F7        1.0  0.70500  0.01590  0.37600  1.0000
  F   F8        1.0  0.20500  0.48400  0.37600  1.0000
  F   F9        1.0  0.44500  0.83500  0.41200  1.0000
  F   F10       1.0  0.94500  0.66500  0.41200  1.0000
  F   F11       1.0  0.65500  0.73700  0.46700  1.0000
  F   F12       1.0  0.15500  0.76300  0.46700  1.0000
  F   F13       1.0  0.84500  0.23700  0.53300  1.0000
  F   F14       1.0  0.34500  0.26300  0.53300  1.0000
  F   F15       1.0  0.55500  0.16500  0.58800  1.0000
  F   F16       1.0  0.05520  0.33500  0.58800  1.0000
  F   F17       1.0  0.29500  0.98400  0.62400  1.0000
  F   F18       1.0  0.79500  0.51600  0.62400  1.0000
  F   F19       1.0  0.61000  0.88300  0.69100  1.0000
  F   F20       1.0  0.11000  0.61700  0.69100  1.0000
  F   F21       1.0  0.17800  0.13100  0.76500  1.0000
  F   F22       1.0  0.67800  0.36900  0.76500  1.0000
  F   F23       1.0  0.90700  0.41100  0.90300  1.0000
  F   F24       1.0  0.40700  0.08900  0.90300  1.0000
  Te  Te1       1.0  0.70300  0.60500  0.02150  1.0000
  Te  Te2       1.0  0.20300  0.89500  0.02150  1.0000
  Te  Te3       1.0  0.54900  0.36400  0.25400  1.0000
  Te  Te4       1.0  0.04880  0.13600  0.25400  1.0000
  Te  Te5       1.0  0.95100  0.86400  0.74600  1.0000
  Te  Te6       1.0  0.45100  0.63600  0.74600  1.0000
  Te  Te7       1.0  0.79700  0.10500  0.97900  1.0000
  Te  Te8       1.0  0.29700  0.39500  0.97900  1.0000
