data_image0
_chemical_formula_structural       Au7Ge2K4
_chemical_formula_sum              "Au7 Ge2 K4"
_cell_length_a       6.57583
_cell_length_b       6.57583
_cell_length_c       10.2454
_cell_angle_alpha    108.718
_cell_angle_beta     108.718
_cell_angle_gamma    60

_space_group_name_H-M_alt    "P 1"
_space_group_IT_number       1

loop_
  _space_group_symop_operation_xyz
  'x, y, z'

loop_
  _atom_site_type_symbol
  _atom_site_label
  _atom_site_symmetry_multiplicity
  _atom_site_fract_x
  _atom_site_fract_y
  _atom_site_fract_z
  _atom_site_occupancy
  Au  Au1       1.0  0.00000  0.00000  0.00000  1.0000
  Au  Au2       1.0  0.22300  0.22300  0.24000  1.0000
  Au  Au3       1.0  0.79300  0.22300  0.24000  1.0000
  Au  Au4       1.0  0.22300  0.79300  0.24000  1.0000
  Au  Au5       1.0  0.77700  0.20700  0.76000  1.0000
  Au  Au6       1.0  0.20700  0.77700  0.76000  1.0000
  Au  Au7       1.0  0.77700  0.77700  0.76000  1.0000
  Ge  Ge1       1.0  0.45500  0.45500  0.36600  1.0000
  Ge  Ge2       1.0  0.54500  0.54500  0.63400  1.0000
  K   K1        1.0  0.68400  0.68400  0.05190  1.0000
  K   K2        1.0  0.81200  0.81200  0.43500  1.0000
  K   K3        1.0  0.18800  0.18800  0.56500  1.0000
  K   K4        1.0  0.31600  0.31600  0.94800  1.0000
