data_image0
_chemical_formula_structural       As5ITe7
_chemical_formula_sum              "As5 I1 Te7"
_cell_length_a       4.03684
_cell_length_b       7.67422
_cell_length_c       14.0996
_cell_angle_alpha    76.9459
_cell_angle_beta     98.2304
_cell_angle_gamma    105.249

_space_group_name_H-M_alt    "P 1"
_space_group_IT_number       1

loop_
  _space_group_symop_operation_xyz
  'x, y, z'

loop_
  _atom_site_type_symbol
  _atom_site_label
  _atom_site_symmetry_multiplicity
  _atom_site_fract_x
  _atom_site_fract_y
  _atom_site_fract_z
  _atom_site_occupancy
  As  As1       1.0  0.77000  0.42900  0.11100  1.0000
  As  As2       1.0  0.45300  0.58300  0.32200  1.0000
  As  As3       1.0  0.12200  0.71100  0.53300  1.0000
  As  As4       1.0  0.80400  0.87200  0.73600  1.0000
  As  As5       1.0  0.49500  0.99200  0.99800  1.0000
  I   I1        1.0  0.30100  0.67700  0.92500  1.0000
  Te  Te1       1.0  0.96100  0.74900  0.17300  1.0000
  Te  Te2       1.0  0.23500  0.24700  0.22300  1.0000
  Te  Te3       1.0  0.64800  0.89300  0.40200  1.0000
  Te  Te4       1.0  0.92400  0.40100  0.44700  1.0000
  Te  Te5       1.0  0.33400  0.04650  0.62100  1.0000
  Te  Te6       1.0  0.61200  0.54900  0.67500  1.0000
  Te  Te7       1.0  0.03620  0.18100  0.89100  1.0000
