data_image0
_chemical_formula_structural       B6H6K2
_chemical_formula_sum              "B6 H6 K2"
_cell_length_a       6.16872
_cell_length_b       6.16872
_cell_length_c       6.16872
_cell_angle_alpha    120
_cell_angle_beta     90
_cell_angle_gamma    120

_space_group_name_H-M_alt    "P 1"
_space_group_IT_number       1

loop_
  _space_group_symop_operation_xyz
  'x, y, z'

loop_
  _atom_site_type_symbol
  _atom_site_label
  _atom_site_symmetry_multiplicity
  _atom_site_fract_x
  _atom_site_fract_y
  _atom_site_fract_z
  _atom_site_occupancy
  B   B1        1.0  0.86000  0.00000  0.14000  1.0000
  B   B2        1.0  0.14000  0.00000  0.14000  1.0000
  B   B3        1.0  0.14000  0.28000  0.14000  1.0000
  B   B4        1.0  0.14000  0.00000  0.86000  1.0000
  B   B5        1.0  0.86000  0.00000  0.86000  1.0000
  B   B6        1.0  0.86000  0.72000  0.86000  1.0000
  H   H1        1.0  0.72200  0.00000  0.27800  1.0000
  H   H2        1.0  0.27800  0.00000  0.27800  1.0000
  H   H3        1.0  0.27800  0.55700  0.27800  1.0000
  H   H4        1.0  0.27800  1.00000  0.72200  1.0000
  H   H5        1.0  0.72200  1.00000  0.72200  1.0000
  H   H6        1.0  0.72200  0.44300  0.72200  1.0000
  K   K1        1.0  0.75000  0.50000  0.25000  1.0000
  K   K2        1.0  0.25000  0.50000  0.75000  1.0000
