data_image0
_chemical_formula_structural       Br8Hg2PdRb2
_chemical_formula_sum              "Br8 Hg2 Pd1 Rb2"
_cell_length_a       7.11051
_cell_length_b       7.11051
_cell_length_c       10.5362
_cell_angle_alpha    105.971
_cell_angle_beta     105.971
_cell_angle_gamma    62.4679

_space_group_name_H-M_alt    "P 1"
_space_group_IT_number       1

loop_
  _space_group_symop_operation_xyz
  'x, y, z'

loop_
  _atom_site_type_symbol
  _atom_site_label
  _atom_site_symmetry_multiplicity
  _atom_site_fract_x
  _atom_site_fract_y
  _atom_site_fract_z
  _atom_site_occupancy
  Br  Br1       1.0  0.89700  0.36800  0.13300  1.0000
  Br  Br2       1.0  0.36800  0.89700  0.13300  1.0000
  Br  Br3       1.0  0.91500  0.91500  0.30600  1.0000
  Br  Br4       1.0  0.34800  0.34800  0.49900  1.0000
  Br  Br5       1.0  0.65200  0.65200  0.50100  1.0000
  Br  Br6       1.0  0.08470  0.08470  0.69400  1.0000
  Br  Br7       1.0  0.63200  0.10300  0.86700  1.0000
  Br  Br8       1.0  0.10300  0.63200  0.86700  1.0000
  Hg  Hg1       1.0  0.13300  0.13300  0.39200  1.0000
  Hg  Hg2       1.0  0.86700  0.86700  0.60800  1.0000
  Pd  Pd1       1.0  0.00000  0.00000  0.00000  1.0000
  Rb  Rb1       1.0  0.39700  0.39700  0.16800  1.0000
  Rb  Rb2       1.0  0.60300  0.60300  0.83200  1.0000
