data_image0
_chemical_formula_structural       Be2H8Na4
_chemical_formula_sum              "Be2 H8 Na4"
_cell_length_a       4.89162
_cell_length_b       4.80645
_cell_length_c       6.52749
_cell_angle_alpha    90
_cell_angle_beta     102.318
_cell_angle_gamma    90

_space_group_name_H-M_alt    "P 1"
_space_group_IT_number       1

loop_
  _space_group_symop_operation_xyz
  'x, y, z'

loop_
  _atom_site_type_symbol
  _atom_site_label
  _atom_site_symmetry_multiplicity
  _atom_site_fract_x
  _atom_site_fract_y
  _atom_site_fract_z
  _atom_site_occupancy
  Be  Be1       1.0  0.28700  0.25000  0.21800  1.0000
  Be  Be2       1.0  0.71300  0.75000  0.78200  1.0000
  H   H1        1.0  0.82400  0.75000  0.00474  1.0000
  H   H2        1.0  0.46700  0.01460  0.26600  1.0000
  H   H3        1.0  0.46700  0.48500  0.26600  1.0000
  H   H4        1.0  0.07450  0.25000  0.34100  1.0000
  H   H5        1.0  0.92500  0.75000  0.65900  1.0000
  H   H6        1.0  0.53300  0.51500  0.73400  1.0000
  H   H7        1.0  0.53300  0.98500  0.73400  1.0000
  H   H8        1.0  0.17600  0.25000  0.99500  1.0000
  Na  Na1       1.0  0.72300  0.25000  0.03060  1.0000
  Na  Na2       1.0  0.23700  0.75000  0.45700  1.0000
  Na  Na3       1.0  0.76300  0.25000  0.54300  1.0000
  Na  Na4       1.0  0.27700  0.75000  0.96900  1.0000
