data_image0
_chemical_formula_structural       AlH2La2Ni9
_chemical_formula_sum              "Al1 H2 La2 Ni9"
_cell_length_a       5.05014
_cell_length_b       5.0251
_cell_length_c       8.1363
_cell_angle_alpha    90.8931
_cell_angle_beta     89.1634
_cell_angle_gamma    119.065

_space_group_name_H-M_alt    "P 1"
_space_group_IT_number       1

loop_
  _space_group_symop_operation_xyz
  'x, y, z'

loop_
  _atom_site_type_symbol
  _atom_site_label
  _atom_site_symmetry_multiplicity
  _atom_site_fract_x
  _atom_site_fract_y
  _atom_site_fract_z
  _atom_site_occupancy
  Al  Al1       1.0  0.50400  0.49600  0.75300  1.0000
  H   H1        1.0  0.15900  0.31200  0.24600  1.0000
  H   H2        1.0  0.21000  0.79600  0.65500  1.0000
  La  La1       1.0  0.00546  0.99600  0.00818  1.0000
  La  La2       1.0  0.99300  0.00658  0.48300  1.0000
  Ni  Ni1       1.0  0.67200  0.32900  0.00053  1.0000
  Ni  Ni2       1.0  0.34500  0.67400  0.00111  1.0000
  Ni  Ni3       1.0  0.51700  0.51200  0.24900  1.0000
  Ni  Ni4       1.0  0.50200  0.00424  0.25000  1.0000
  Ni  Ni5       1.0  0.99400  0.50900  0.25100  1.0000
  Ni  Ni6       1.0  0.34700  0.67100  0.50000  1.0000
  Ni  Ni7       1.0  0.65700  0.33600  0.50100  1.0000
  Ni  Ni8       1.0  0.99800  0.48300  0.75400  1.0000
  Ni  Ni9       1.0  0.52000  0.00518  0.75400  1.0000
