data_image0
_chemical_formula_structural       K8N8O20S4
_chemical_formula_sum              "K8 N8 O20 S4"
_cell_length_a       7.01501
_cell_length_b       7.96167
_cell_length_c       9.8422
_cell_angle_alpha    90
_cell_angle_beta     90
_cell_angle_gamma    90

_space_group_name_H-M_alt    "P 1"
_space_group_IT_number       1

loop_
  _space_group_symop_operation_xyz
  'x, y, z'

loop_
  _atom_site_type_symbol
  _atom_site_label
  _atom_site_symmetry_multiplicity
  _atom_site_fract_x
  _atom_site_fract_y
  _atom_site_fract_z
  _atom_site_occupancy
  K   K1        1.0  0.05390  0.50400  0.18900  1.0000
  K   K2        1.0  0.05390  0.99600  0.18900  1.0000
  K   K3        1.0  0.55400  0.50400  0.31100  1.0000
  K   K4        1.0  0.55400  0.99600  0.31100  1.0000
  K   K5        1.0  0.44600  0.00412  0.68900  1.0000
  K   K6        1.0  0.44600  0.49600  0.68900  1.0000
  K   K7        1.0  0.94600  0.00412  0.81100  1.0000
  K   K8        1.0  0.94600  0.49600  0.81100  1.0000
  N   N1        1.0  0.39700  0.75000  0.03650  1.0000
  N   N2        1.0  0.72000  0.25000  0.06570  1.0000
  N   N3        1.0  0.22000  0.25000  0.43400  1.0000
  N   N4        1.0  0.89700  0.75000  0.46400  1.0000
  N   N5        1.0  0.10300  0.25000  0.53600  1.0000
  N   N6        1.0  0.78000  0.75000  0.56600  1.0000
  N   N7        1.0  0.28000  0.75000  0.93400  1.0000
  N   N8        1.0  0.60300  0.25000  0.96400  1.0000
  O   O1        1.0  0.89800  0.25000  0.02950  1.0000
  O   O2        1.0  0.71100  0.59600  0.06060  1.0000
  O   O3        1.0  0.71100  0.90400  0.06060  1.0000
  O   O4        1.0  0.34500  0.25000  0.15100  1.0000
  O   O5        1.0  0.35300  0.75000  0.16600  1.0000
  O   O6        1.0  0.85300  0.75000  0.33400  1.0000
  O   O7        1.0  0.84500  0.25000  0.34900  1.0000
  O   O8        1.0  0.21100  0.59600  0.43900  1.0000
  O   O9        1.0  0.21100  0.90400  0.43900  1.0000
  O   O10       1.0  0.39800  0.25000  0.47100  1.0000
  O   O11       1.0  0.60200  0.75000  0.52900  1.0000
  O   O12       1.0  0.78900  0.09610  0.56100  1.0000
  O   O13       1.0  0.78900  0.40400  0.56100  1.0000
  O   O14       1.0  0.15500  0.75000  0.65100  1.0000
  O   O15       1.0  0.14700  0.25000  0.66600  1.0000
  O   O16       1.0  0.64700  0.25000  0.83400  1.0000
  O   O17       1.0  0.65500  0.75000  0.84900  1.0000
  O   O18       1.0  0.28900  0.09610  0.93900  1.0000
  O   O19       1.0  0.28900  0.40400  0.93900  1.0000
  O   O20       1.0  0.10200  0.75000  0.97100  1.0000
  S   S1        1.0  0.35600  0.25000  0.00262  1.0000
  S   S2        1.0  0.85600  0.25000  0.49700  1.0000
  S   S3        1.0  0.14400  0.75000  0.50300  1.0000
  S   S4        1.0  0.64400  0.75000  0.99700  1.0000
