data_image0
_chemical_formula_structural       Cs2F20O12Re6
_chemical_formula_sum              "Cs2 F20 O12 Re6"
_cell_length_a       6.6905
_cell_length_b       9.33088
_cell_length_c       9.91893
_cell_angle_alpha    113.494
_cell_angle_beta     91.4134
_cell_angle_gamma    92.0555

_space_group_name_H-M_alt    "P 1"
_space_group_IT_number       1

loop_
  _space_group_symop_operation_xyz
  'x, y, z'

loop_
  _atom_site_type_symbol
  _atom_site_label
  _atom_site_symmetry_multiplicity
  _atom_site_fract_x
  _atom_site_fract_y
  _atom_site_fract_z
  _atom_site_occupancy
  Cs  Cs1       1.0  0.69500  0.70800  0.12300  1.0000
  Cs  Cs2       1.0  0.30500  0.29200  0.87700  1.0000
  F   F1        1.0  0.70600  0.37600  0.03720  1.0000
  F   F2        1.0  0.02820  0.27300  0.08700  1.0000
  F   F3        1.0  0.48600  0.17300  0.08850  1.0000
  F   F4        1.0  0.25000  0.90400  0.11200  1.0000
  F   F5        1.0  0.38200  0.51000  0.20000  1.0000
  F   F6        1.0  0.03040  0.59400  0.22700  1.0000
  F   F7        1.0  0.53600  0.03930  0.30300  1.0000
  F   F8        1.0  0.34400  0.80400  0.30900  1.0000
  F   F9        1.0  0.00789  0.92800  0.31300  1.0000
  F   F10       1.0  0.48600  0.65500  0.46700  1.0000
  F   F11       1.0  0.51400  0.34500  0.53300  1.0000
  F   F12       1.0  0.99200  0.07190  0.68700  1.0000
  F   F13       1.0  0.65600  0.19600  0.69100  1.0000
  F   F14       1.0  0.46400  0.96100  0.69700  1.0000
  F   F15       1.0  0.97000  0.40600  0.77300  1.0000
  F   F16       1.0  0.61800  0.49000  0.80000  1.0000
  F   F17       1.0  0.75000  0.09560  0.88800  1.0000
  F   F18       1.0  0.51400  0.82700  0.91100  1.0000
  F   F19       1.0  0.97200  0.72700  0.91300  1.0000
  F   F20       1.0  0.29400  0.62400  0.96300  1.0000
  O   O1        1.0  0.82400  0.04880  0.12600  1.0000
  O   O2        1.0  0.75600  0.34900  0.30000  1.0000
  O   O3        1.0  0.19600  0.18500  0.30500  1.0000
  O   O4        1.0  0.15100  0.46600  0.41400  1.0000
  O   O5        1.0  0.71700  0.90400  0.47700  1.0000
  O   O6        1.0  0.87800  0.22600  0.49500  1.0000
  O   O7        1.0  0.12200  0.77400  0.50500  1.0000
  O   O8        1.0  0.28300  0.09600  0.52300  1.0000
  O   O9        1.0  0.84900  0.53400  0.58600  1.0000
  O   O10       1.0  0.80400  0.81500  0.69500  1.0000
  O   O11       1.0  0.24400  0.65100  0.70000  1.0000
  O   O12       1.0  0.17600  0.95100  0.87400  1.0000
  Re  Re1       1.0  0.76400  0.22300  0.12100  1.0000
  Re  Re2       1.0  0.26200  0.02710  0.33600  1.0000
  Re  Re3       1.0  0.23000  0.61900  0.37300  1.0000
  Re  Re4       1.0  0.77000  0.38100  0.62700  1.0000
  Re  Re5       1.0  0.73800  0.97300  0.66400  1.0000
  Re  Re6       1.0  0.23600  0.77700  0.87900  1.0000
