data_image0
_chemical_formula_structural       Fe12Sm
_chemical_formula_sum              "Fe12 Sm1"
_cell_length_a       4.64682
_cell_length_b       6.40359
_cell_length_c       6.40339
_cell_angle_alpha    97.563
_cell_angle_beta     68.7302
_cell_angle_gamma    111.274

_space_group_name_H-M_alt    "P 1"
_space_group_IT_number       1

loop_
  _space_group_symop_operation_xyz
  'x, y, z'

loop_
  _atom_site_type_symbol
  _atom_site_label
  _atom_site_symmetry_multiplicity
  _atom_site_fract_x
  _atom_site_fract_y
  _atom_site_fract_z
  _atom_site_occupancy
  Fe  Fe1       1.0  0.50000  0.50000  0.00000  1.0000
  Fe  Fe2       1.0  0.00000  0.50000  0.00000  1.0000
  Fe  Fe3       1.0  0.26900  0.76900  0.23100  1.0000
  Fe  Fe4       1.0  0.50000  0.23100  0.23100  1.0000
  Fe  Fe5       1.0  0.00000  0.36000  0.36000  1.0000
  Fe  Fe6       1.0  0.64000  0.64000  0.36000  1.0000
  Fe  Fe7       1.0  0.00000  0.00000  0.50000  1.0000
  Fe  Fe8       1.0  0.50000  0.00000  0.50000  1.0000
  Fe  Fe9       1.0  0.36000  0.36000  0.64000  1.0000
  Fe  Fe10      1.0  0.00001  0.64000  0.64000  1.0000
  Fe  Fe11      1.0  0.50000  0.76900  0.76900  1.0000
  Fe  Fe12      1.0  0.73100  0.23100  0.76900  1.0000
  Sm  Sm1       1.0  0.00000  0.00000  0.00000  1.0000
