data_image0
_chemical_formula_structural       Tm2Zn4
_chemical_formula_sum              "Tm2 Zn4"
_cell_length_a       4.40692
_cell_length_b       5.56138
_cell_length_c       5.56138
_cell_angle_alpha    95.3556
_cell_angle_beta     113.341
_cell_angle_gamma    66.6587

_space_group_name_H-M_alt    "P 1"
_space_group_IT_number       1

loop_
  _space_group_symop_operation_xyz
  'x, y, z'

loop_
  _atom_site_type_symbol
  _atom_site_label
  _atom_site_symmetry_multiplicity
  _atom_site_fract_x
  _atom_site_fract_y
  _atom_site_fract_z
  _atom_site_occupancy
  Tm  Tm1       1.0  0.75000  0.71400  0.21400  1.0000
  Tm  Tm2       1.0  0.25000  0.28600  0.78600  1.0000
  Zn  Zn1       1.0  0.04770  0.11700  0.21300  1.0000
  Zn  Zn2       1.0  0.54800  0.28700  0.38300  1.0000
  Zn  Zn3       1.0  0.45200  0.71300  0.61700  1.0000
  Zn  Zn4       1.0  0.95200  0.88300  0.78700  1.0000
