data_image0
_chemical_formula_structural       H6O6Pr2
_chemical_formula_sum              "H6 O6 Pr2"
_cell_length_a       6.41736
_cell_length_b       6.41777
_cell_length_c       3.73062
_cell_angle_alpha    90
_cell_angle_beta     90
_cell_angle_gamma    119.994

_space_group_name_H-M_alt    "P 1"
_space_group_IT_number       1

loop_
  _space_group_symop_operation_xyz
  'x, y, z'

loop_
  _atom_site_type_symbol
  _atom_site_label
  _atom_site_symmetry_multiplicity
  _atom_site_fract_x
  _atom_site_fract_y
  _atom_site_fract_z
  _atom_site_occupancy
  H   H1        1.0  0.86200  0.13100  0.25000  1.0000
  H   H2        1.0  0.26900  0.13800  0.25000  1.0000
  H   H3        1.0  0.86900  0.73100  0.25000  1.0000
  H   H4        1.0  0.13100  0.26900  0.75000  1.0000
  H   H5        1.0  0.73100  0.86200  0.75000  1.0000
  H   H6        1.0  0.13800  0.86900  0.75000  1.0000
  O   O1        1.0  0.69200  0.08070  0.25000  1.0000
  O   O2        1.0  0.38900  0.30800  0.25000  1.0000
  O   O3        1.0  0.91900  0.61100  0.25000  1.0000
  O   O4        1.0  0.08070  0.38900  0.75000  1.0000
  O   O5        1.0  0.61100  0.69200  0.75000  1.0000
  O   O6        1.0  0.30800  0.91900  0.75000  1.0000
  Pr  Pr1       1.0  0.33300  0.66700  0.25000  1.0000
  Pr  Pr2       1.0  0.66700  0.33300  0.75000  1.0000
