data_image0
_chemical_formula_structural       Ce8Ge24Ru8
_chemical_formula_sum              "Ce8 Ge24 Ru8"
_cell_length_a       9.20617
_cell_length_b       9.20617
_cell_length_c       9.20617
_cell_angle_alpha    90
_cell_angle_beta     90
_cell_angle_gamma    90

_space_group_name_H-M_alt    "P 1"
_space_group_IT_number       1

loop_
  _space_group_symop_operation_xyz
  'x, y, z'

loop_
  _atom_site_type_symbol
  _atom_site_label
  _atom_site_symmetry_multiplicity
  _atom_site_fract_x
  _atom_site_fract_y
  _atom_site_fract_z
  _atom_site_occupancy
  Ce  Ce1       1.0  0.00000  0.00000  0.00000  1.0000
  Ce  Ce2       1.0  0.25000  0.50000  0.00000  1.0000
  Ce  Ce3       1.0  0.75000  0.50000  0.00000  1.0000
  Ce  Ce4       1.0  0.50000  0.00000  0.25000  1.0000
  Ce  Ce5       1.0  0.00000  0.25000  0.50000  1.0000
  Ce  Ce6       1.0  0.50000  0.50000  0.50000  1.0000
  Ce  Ce7       1.0  0.00000  0.75000  0.50000  1.0000
  Ce  Ce8       1.0  0.50000  0.00000  0.75000  1.0000
  Ge  Ge1       1.0  0.32300  0.15700  0.00000  1.0000
  Ge  Ge2       1.0  0.67700  0.15700  0.00000  1.0000
  Ge  Ge3       1.0  0.32300  0.84300  0.00000  1.0000
  Ge  Ge4       1.0  0.67700  0.84300  0.00000  1.0000
  Ge  Ge5       1.0  0.00000  0.32300  0.15700  1.0000
  Ge  Ge6       1.0  0.00000  0.67700  0.15700  1.0000
  Ge  Ge7       1.0  0.50000  0.34300  0.17700  1.0000
  Ge  Ge8       1.0  0.50000  0.65700  0.17700  1.0000
  Ge  Ge9       1.0  0.15700  0.00000  0.32300  1.0000
  Ge  Ge10      1.0  0.84300  0.00000  0.32300  1.0000
  Ge  Ge11      1.0  0.17700  0.50000  0.34300  1.0000
  Ge  Ge12      1.0  0.82300  0.50000  0.34300  1.0000
  Ge  Ge13      1.0  0.34300  0.17700  0.50000  1.0000
  Ge  Ge14      1.0  0.65700  0.17700  0.50000  1.0000
  Ge  Ge15      1.0  0.34300  0.82300  0.50000  1.0000
  Ge  Ge16      1.0  0.65700  0.82300  0.50000  1.0000
  Ge  Ge17      1.0  0.17700  0.50000  0.65700  1.0000
  Ge  Ge18      1.0  0.82300  0.50000  0.65700  1.0000
  Ge  Ge19      1.0  0.15700  0.00000  0.67700  1.0000
  Ge  Ge20      1.0  0.84300  0.00000  0.67700  1.0000
  Ge  Ge21      1.0  0.50000  0.34300  0.82300  1.0000
  Ge  Ge22      1.0  0.50000  0.65700  0.82300  1.0000
  Ge  Ge23      1.0  0.00000  0.32300  0.84300  1.0000
  Ge  Ge24      1.0  0.00000  0.67700  0.84300  1.0000
  Ru  Ru1       1.0  0.25000  0.25000  0.25000  1.0000
  Ru  Ru2       1.0  0.75000  0.25000  0.25000  1.0000
  Ru  Ru3       1.0  0.25000  0.75000  0.25000  1.0000
  Ru  Ru4       1.0  0.75000  0.75000  0.25000  1.0000
  Ru  Ru5       1.0  0.25000  0.25000  0.75000  1.0000
  Ru  Ru6       1.0  0.75000  0.25000  0.75000  1.0000
  Ru  Ru7       1.0  0.25000  0.75000  0.75000  1.0000
  Ru  Ru8       1.0  0.75000  0.75000  0.75000  1.0000
