data_image0
_chemical_formula_structural       Ce2Zn4
_chemical_formula_sum              "Ce2 Zn4"
_cell_length_a       4.63084
_cell_length_b       5.82404
_cell_length_c       5.82404
_cell_angle_alpha    98.9605
_cell_angle_beta     66.5742
_cell_angle_gamma    113.426

_space_group_name_H-M_alt    "P 1"
_space_group_IT_number       1

loop_
  _space_group_symop_operation_xyz
  'x, y, z'

loop_
  _atom_site_type_symbol
  _atom_site_label
  _atom_site_symmetry_multiplicity
  _atom_site_fract_x
  _atom_site_fract_y
  _atom_site_fract_z
  _atom_site_occupancy
  Ce  Ce1       1.0  0.45900  0.20900  0.29100  1.0000
  Ce  Ce2       1.0  0.54100  0.79100  0.70900  1.0000
  Zn  Zn1       1.0  0.83500  0.77700  0.10700  1.0000
  Zn  Zn2       1.0  0.16500  0.60700  0.27700  1.0000
  Zn  Zn3       1.0  0.83500  0.39300  0.72300  1.0000
  Zn  Zn4       1.0  0.16500  0.22300  0.89300  1.0000
