data_image0
_chemical_formula_structural       GaS8Ti4
_chemical_formula_sum              "Ga1 S8 Ti4"
_cell_length_a       7.05171
_cell_length_b       7.05177
_cell_length_c       7.0518
_cell_angle_alpha    119.999
_cell_angle_beta     89.9999
_cell_angle_gamma    120.001

_space_group_name_H-M_alt    "P 1"
_space_group_IT_number       1

loop_
  _space_group_symop_operation_xyz
  'x, y, z'

loop_
  _atom_site_type_symbol
  _atom_site_label
  _atom_site_symmetry_multiplicity
  _atom_site_fract_x
  _atom_site_fract_y
  _atom_site_fract_z
  _atom_site_occupancy
  Ga  Ga1       1.0  0.00000  0.00000  0.00000  1.0000
  S   S1        1.0  0.12200  0.74800  0.37400  1.0000
  S   S2        1.0  0.62600  0.25200  0.37400  1.0000
  S   S3        1.0  0.62600  0.74800  0.37400  1.0000
  S   S4        1.0  0.13300  0.26700  0.40000  1.0000
  S   S5        1.0  0.13300  0.73300  0.86700  1.0000
  S   S6        1.0  0.60000  0.73300  0.86700  1.0000
  S   S7        1.0  0.13300  0.26700  0.86700  1.0000
  S   S8        1.0  0.62600  0.25200  0.87800  1.0000
  Ti  Ti1       1.0  0.38800  0.77500  0.16300  1.0000
  Ti  Ti2       1.0  0.83700  0.22500  0.61200  1.0000
  Ti  Ti3       1.0  0.38800  0.77500  0.61200  1.0000
  Ti  Ti4       1.0  0.38800  0.22500  0.61200  1.0000
