data_image0
_chemical_formula_structural       Bi4K6O24P6
_chemical_formula_sum              "Bi4 K6 O24 P6"
_cell_length_a       6.76985
_cell_length_b       9.55321
_cell_length_c       9.55321
_cell_angle_alpha    91.2346
_cell_angle_beta     107.224
_cell_angle_gamma    72.7763

_space_group_name_H-M_alt    "P 1"
_space_group_IT_number       1

loop_
  _space_group_symop_operation_xyz
  'x, y, z'

loop_
  _atom_site_type_symbol
  _atom_site_label
  _atom_site_symmetry_multiplicity
  _atom_site_fract_x
  _atom_site_fract_y
  _atom_site_fract_z
  _atom_site_occupancy
  Bi  Bi1       1.0  0.16800  0.61700  0.09790  1.0000
  Bi  Bi2       1.0  0.66800  0.90200  0.38300  1.0000
  Bi  Bi3       1.0  0.33200  0.09790  0.61700  1.0000
  Bi  Bi4       1.0  0.83200  0.38300  0.90200  1.0000
  K   K1        1.0  0.75000  0.01900  0.01900  1.0000
  K   K2        1.0  0.75000  0.27600  0.27600  1.0000
  K   K3        1.0  0.50000  0.50000  0.50000  1.0000
  K   K4        1.0  0.00000  0.50000  0.50000  1.0000
  K   K5        1.0  0.25000  0.72400  0.72400  1.0000
  K   K6        1.0  0.25000  0.98100  0.98100  1.0000
  O   O1        1.0  0.42400  0.66300  0.00949  1.0000
  O   O2        1.0  0.83600  0.54700  0.08980  1.0000
  O   O3        1.0  0.05630  0.23600  0.10500  1.0000
  O   O4        1.0  0.67100  0.80600  0.14800  1.0000
  O   O5        1.0  0.17100  0.85200  0.19400  1.0000
  O   O6        1.0  0.44400  0.10500  0.23600  1.0000
  O   O7        1.0  0.32300  0.38100  0.24000  1.0000
  O   O8        1.0  0.62800  0.59100  0.27900  1.0000
  O   O9        1.0  0.92400  0.99100  0.33700  1.0000
  O   O10       1.0  0.17700  0.24000  0.38100  1.0000
  O   O11       1.0  0.12800  0.72100  0.40900  1.0000
  O   O12       1.0  0.33600  0.91000  0.45300  1.0000
  O   O13       1.0  0.66400  0.08980  0.54700  1.0000
  O   O14       1.0  0.87200  0.27900  0.59100  1.0000
  O   O15       1.0  0.82300  0.76000  0.61900  1.0000
  O   O16       1.0  0.07620  0.00949  0.66300  1.0000
  O   O17       1.0  0.37200  0.40900  0.72100  1.0000
  O   O18       1.0  0.67700  0.61900  0.76000  1.0000
  O   O19       1.0  0.55600  0.89500  0.76400  1.0000
  O   O20       1.0  0.82900  0.14800  0.80600  1.0000
  O   O21       1.0  0.32900  0.19400  0.85200  1.0000
  O   O22       1.0  0.94400  0.76400  0.89500  1.0000
  O   O23       1.0  0.16400  0.45300  0.91000  1.0000
  O   O24       1.0  0.57600  0.33700  0.99100  1.0000
  P   P1        1.0  0.63900  0.65200  0.13400  1.0000
  P   P2        1.0  0.25000  0.24200  0.24200  1.0000
  P   P3        1.0  0.13900  0.86600  0.34800  1.0000
  P   P4        1.0  0.86100  0.13400  0.65200  1.0000
  P   P5        1.0  0.75000  0.75800  0.75800  1.0000
  P   P6        1.0  0.36100  0.34800  0.86600  1.0000
