data_image0
_chemical_formula_structural       As2Rb6Se32
_chemical_formula_sum              "As2 Rb6 Se32"
_cell_length_a       11.9442
_cell_length_b       11.9442
_cell_length_c       11.9442
_cell_angle_alpha    120
_cell_angle_beta     90
_cell_angle_gamma    120

_space_group_name_H-M_alt    "P 1"
_space_group_IT_number       1

loop_
  _space_group_symop_operation_xyz
  'x, y, z'

loop_
  _atom_site_type_symbol
  _atom_site_label
  _atom_site_symmetry_multiplicity
  _atom_site_fract_x
  _atom_site_fract_y
  _atom_site_fract_z
  _atom_site_occupancy
  As  As1       1.0  0.87500  0.75000  0.12500  1.0000
  As  As2       1.0  0.12500  0.25000  0.87500  1.0000
  Rb  Rb1       1.0  0.00000  0.00000  0.00000  1.0000
  Rb  Rb2       1.0  0.00000  0.50000  0.00000  1.0000
  Rb  Rb3       1.0  0.50000  0.50000  0.00000  1.0000
  Rb  Rb4       1.0  0.62500  0.25000  0.37500  1.0000
  Rb  Rb5       1.0  0.00000  0.00000  0.50000  1.0000
  Rb  Rb6       1.0  0.37500  0.75000  0.62500  1.0000
  Se  Se1       1.0  0.69200  0.22700  0.05200  1.0000
  Se  Se2       1.0  0.32500  0.01660  0.05200  1.0000
  Se  Se3       1.0  0.53500  0.86000  0.05200  1.0000
  Se  Se4       1.0  0.20600  0.41200  0.11800  1.0000
  Se  Se5       1.0  0.11800  0.91200  0.20600  1.0000
  Se  Se6       1.0  0.79400  0.91200  0.20600  1.0000
  Se  Se7       1.0  0.79400  0.58800  0.20600  1.0000
  Se  Se8       1.0  0.94800  0.27300  0.30800  1.0000
  Se  Se9       1.0  0.53500  0.48300  0.30800  1.0000
  Se  Se10      1.0  0.32500  0.86000  0.30800  1.0000
  Se  Se11      1.0  0.30800  0.36000  0.32500  1.0000
  Se  Se12      1.0  0.05200  0.51700  0.32500  1.0000
  Se  Se13      1.0  0.46500  0.77300  0.32500  1.0000
  Se  Se14      1.0  0.69200  0.01660  0.46500  1.0000
  Se  Se15      1.0  0.32500  0.27300  0.46500  1.0000
  Se  Se16      1.0  0.94800  0.64000  0.46500  1.0000
  Se  Se17      1.0  0.05200  0.36000  0.53500  1.0000
  Se  Se18      1.0  0.67500  0.72700  0.53500  1.0000
  Se  Se19      1.0  0.30800  0.98300  0.53500  1.0000
  Se  Se20      1.0  0.94800  0.48300  0.67500  1.0000
  Se  Se21      1.0  0.53500  0.22700  0.67500  1.0000
  Se  Se22      1.0  0.69200  0.64000  0.67500  1.0000
  Se  Se23      1.0  0.67500  0.14000  0.69200  1.0000
  Se  Se24      1.0  0.46500  0.51700  0.69200  1.0000
  Se  Se25      1.0  0.05200  0.72700  0.69200  1.0000
  Se  Se26      1.0  0.88200  0.08790  0.79400  1.0000
  Se  Se27      1.0  0.20600  0.08790  0.79400  1.0000
  Se  Se28      1.0  0.20600  0.41200  0.79400  1.0000
  Se  Se29      1.0  0.79400  0.58800  0.88200  1.0000
  Se  Se30      1.0  0.46500  0.14000  0.94800  1.0000
  Se  Se31      1.0  0.30800  0.77300  0.94800  1.0000
  Se  Se32      1.0  0.67500  0.98300  0.94800  1.0000
