data_image0
_chemical_formula_structural       Cu2Sn2Sr
_chemical_formula_sum              "Cu2 Sn2 Sr1"
_cell_length_a       4.33778
_cell_length_b       4.90201
_cell_length_c       6.02745
_cell_angle_alpha    107.169
_cell_angle_beta     111.09
_cell_angle_gamma    90

_space_group_name_H-M_alt    "P 1"
_space_group_IT_number       1

loop_
  _space_group_symop_operation_xyz
  'x, y, z'

loop_
  _atom_site_type_symbol
  _atom_site_label
  _atom_site_symmetry_multiplicity
  _atom_site_fract_x
  _atom_site_fract_y
  _atom_site_fract_z
  _atom_site_occupancy
  Cu  Cu1       1.0  0.74000  0.13900  0.48000  1.0000
  Cu  Cu2       1.0  0.26000  0.86100  0.52000  1.0000
  Sn  Sn1       1.0  0.64500  0.57200  0.28900  1.0000
  Sn  Sn2       1.0  0.35500  0.42800  0.71100  1.0000
  Sr  Sr1       1.0  0.00000  0.00000  0.00000  1.0000
