data_image0
_chemical_formula_structural       F32Tc8
_chemical_formula_sum              "F32 Tc8"
_cell_length_a       8.74665
_cell_length_b       10.7405
_cell_length_c       5.17112
_cell_angle_alpha    90
_cell_angle_beta     90
_cell_angle_gamma    90

_space_group_name_H-M_alt    "P 1"
_space_group_IT_number       1

loop_
  _space_group_symop_operation_xyz
  'x, y, z'

loop_
  _atom_site_type_symbol
  _atom_site_label
  _atom_site_symmetry_multiplicity
  _atom_site_fract_x
  _atom_site_fract_y
  _atom_site_fract_z
  _atom_site_occupancy
  F   F1        1.0  0.25900  0.05580  0.06970  1.0000
  F   F2        1.0  0.24100  0.55600  0.06970  1.0000
  F   F3        1.0  0.25000  0.31000  0.08060  1.0000
  F   F4        1.0  0.25000  0.81000  0.08060  1.0000
  F   F5        1.0  0.00542  0.19200  0.22700  1.0000
  F   F6        1.0  0.49500  0.69200  0.22700  1.0000
  F   F7        1.0  0.49600  0.44600  0.25000  1.0000
  F   F8        1.0  0.00410  0.94600  0.25000  1.0000
  F   F9        1.0  0.99600  0.44600  0.25000  1.0000
  F   F10       1.0  0.50400  0.94600  0.25000  1.0000
  F   F11       1.0  0.50500  0.19200  0.27300  1.0000
  F   F12       1.0  0.99500  0.69200  0.27300  1.0000
  F   F13       1.0  0.75000  0.31000  0.41900  1.0000
  F   F14       1.0  0.75000  0.81000  0.41900  1.0000
  F   F15       1.0  0.75900  0.05580  0.43000  1.0000
  F   F16       1.0  0.74100  0.55600  0.43000  1.0000
  F   F17       1.0  0.25900  0.44400  0.57000  1.0000
  F   F18       1.0  0.24100  0.94400  0.57000  1.0000
  F   F19       1.0  0.25000  0.19000  0.58100  1.0000
  F   F20       1.0  0.25000  0.69000  0.58100  1.0000
  F   F21       1.0  0.00542  0.30800  0.72700  1.0000
  F   F22       1.0  0.49500  0.80800  0.72700  1.0000
  F   F23       1.0  0.49600  0.05380  0.75000  1.0000
  F   F24       1.0  0.00410  0.55400  0.75000  1.0000
  F   F25       1.0  0.99600  0.05380  0.75000  1.0000
  F   F26       1.0  0.50400  0.55400  0.75000  1.0000
  F   F27       1.0  0.50500  0.30800  0.77300  1.0000
  F   F28       1.0  0.99500  0.80800  0.77300  1.0000
  F   F29       1.0  0.75000  0.19000  0.91900  1.0000
  F   F30       1.0  0.75000  0.69000  0.91900  1.0000
  F   F31       1.0  0.75900  0.44400  0.93000  1.0000
  F   F32       1.0  0.74100  0.94400  0.93000  1.0000
  Tc  Tc1       1.0  0.62800  0.33400  0.09450  1.0000
  Tc  Tc2       1.0  0.87200  0.83400  0.09450  1.0000
  Tc  Tc3       1.0  0.12800  0.33400  0.40500  1.0000
  Tc  Tc4       1.0  0.37200  0.83400  0.40500  1.0000
  Tc  Tc5       1.0  0.62800  0.16600  0.59500  1.0000
  Tc  Tc6       1.0  0.87200  0.66600  0.59500  1.0000
  Tc  Tc7       1.0  0.12800  0.16600  0.90500  1.0000
  Tc  Tc8       1.0  0.37200  0.66600  0.90500  1.0000
