data_image0
_chemical_formula_structural       Cu4I4P16Se16
_chemical_formula_sum              "Cu4 I4 P16 Se16"
_cell_length_a       9.67096
_cell_length_b       9.67096
_cell_length_c       12.531
_cell_angle_alpha    90
_cell_angle_beta     90
_cell_angle_gamma    79.1862

_space_group_name_H-M_alt    "P 1"
_space_group_IT_number       1

loop_
  _space_group_symop_operation_xyz
  'x, y, z'

loop_
  _atom_site_type_symbol
  _atom_site_label
  _atom_site_symmetry_multiplicity
  _atom_site_fract_x
  _atom_site_fract_y
  _atom_site_fract_z
  _atom_site_occupancy
  Cu  Cu1       1.0  0.40200  0.40200  0.00000  1.0000
  Cu  Cu2       1.0  0.59800  0.59800  0.00000  1.0000
  Cu  Cu3       1.0  0.09750  0.09750  0.50000  1.0000
  Cu  Cu4       1.0  0.90200  0.90200  0.50000  1.0000
  I   I1        1.0  0.32200  0.67800  0.02070  1.0000
  I   I2        1.0  0.82200  0.17800  0.47900  1.0000
  I   I3        1.0  0.17800  0.82200  0.52100  1.0000
  I   I4        1.0  0.67800  0.32200  0.97900  1.0000
  P   P1        1.0  0.35600  0.28000  0.14600  1.0000
  P   P2        1.0  0.72000  0.64400  0.14600  1.0000
  P   P3        1.0  0.03920  0.74400  0.24300  1.0000
  P   P4        1.0  0.25600  0.96100  0.24300  1.0000
  P   P5        1.0  0.53900  0.24400  0.25700  1.0000
  P   P6        1.0  0.75600  0.46100  0.25700  1.0000
  P   P7        1.0  0.22000  0.14400  0.35400  1.0000
  P   P8        1.0  0.85600  0.78000  0.35400  1.0000
  P   P9        1.0  0.14400  0.22000  0.64600  1.0000
  P   P10       1.0  0.78000  0.85600  0.64600  1.0000
  P   P11       1.0  0.24400  0.53900  0.74300  1.0000
  P   P12       1.0  0.46100  0.75600  0.74300  1.0000
  P   P13       1.0  0.74400  0.03920  0.75700  1.0000
  P   P14       1.0  0.96100  0.25600  0.75700  1.0000
  P   P15       1.0  0.28000  0.35600  0.85400  1.0000
  P   P16       1.0  0.64400  0.72000  0.85400  1.0000
  Se  Se1       1.0  0.35400  0.05200  0.09720  1.0000
  Se  Se2       1.0  0.94800  0.64600  0.09720  1.0000
  Se  Se3       1.0  0.02620  0.97400  0.19100  1.0000
  Se  Se4       1.0  0.16100  0.33900  0.25000  1.0000
  Se  Se5       1.0  0.66100  0.83900  0.25000  1.0000
  Se  Se6       1.0  0.52600  0.47400  0.30900  1.0000
  Se  Se7       1.0  0.44800  0.14600  0.40300  1.0000
  Se  Se8       1.0  0.85400  0.55200  0.40300  1.0000
  Se  Se9       1.0  0.14600  0.44800  0.59700  1.0000
  Se  Se10      1.0  0.55200  0.85400  0.59700  1.0000
  Se  Se11      1.0  0.47400  0.52600  0.69100  1.0000
  Se  Se12      1.0  0.33900  0.16100  0.75000  1.0000
  Se  Se13      1.0  0.83900  0.66100  0.75000  1.0000
  Se  Se14      1.0  0.97400  0.02620  0.80900  1.0000
  Se  Se15      1.0  0.05200  0.35400  0.90300  1.0000
  Se  Se16      1.0  0.64600  0.94800  0.90300  1.0000
