data_image0
_chemical_formula_structural       C8K4Nd4O24
_chemical_formula_sum              "C8 K4 Nd4 O24"
_cell_length_a       9.70644
_cell_length_b       6.44984
_cell_length_c       8.44269
_cell_angle_alpha    90
_cell_angle_beta     90
_cell_angle_gamma    90

_space_group_name_H-M_alt    "P 1"
_space_group_IT_number       1

loop_
  _space_group_symop_operation_xyz
  'x, y, z'

loop_
  _atom_site_type_symbol
  _atom_site_label
  _atom_site_symmetry_multiplicity
  _atom_site_fract_x
  _atom_site_fract_y
  _atom_site_fract_z
  _atom_site_occupancy
  C   C1        1.0  0.25100  0.03760  0.26100  1.0000
  C   C2        1.0  0.74900  0.03760  0.26100  1.0000
  C   C3        1.0  0.50000  0.47400  0.44400  1.0000
  C   C4        1.0  0.00000  0.59400  0.45600  1.0000
  C   C5        1.0  0.24900  0.96200  0.76100  1.0000
  C   C6        1.0  0.75100  0.96200  0.76100  1.0000
  C   C7        1.0  0.00000  0.52600  0.94400  1.0000
  C   C8        1.0  0.50000  0.40600  0.95600  1.0000
  K   K1        1.0  0.25800  0.53700  0.19100  1.0000
  K   K2        1.0  0.74200  0.53700  0.19100  1.0000
  K   K3        1.0  0.24200  0.46300  0.69100  1.0000
  K   K4        1.0  0.75800  0.46300  0.69100  1.0000
  Nd  Nd1       1.0  0.50000  0.03170  0.45200  1.0000
  Nd  Nd2       1.0  0.00000  0.03740  0.45400  1.0000
  Nd  Nd3       1.0  0.00000  0.96800  0.95200  1.0000
  Nd  Nd4       1.0  0.50000  0.96300  0.95400  1.0000
  O   O1        1.0  0.00000  0.62500  0.07780  1.0000
  O   O2        1.0  0.13300  0.03090  0.19300  1.0000
  O   O3        1.0  0.86700  0.03090  0.19300  1.0000
  O   O4        1.0  0.36100  0.95600  0.20300  1.0000
  O   O5        1.0  0.63900  0.95600  0.20300  1.0000
  O   O6        1.0  0.50000  0.36900  0.31200  1.0000
  O   O7        1.0  0.25600  0.12500  0.40000  1.0000
  O   O8        1.0  0.74400  0.12500  0.40000  1.0000
  O   O9        1.0  0.50000  0.67300  0.44100  1.0000
  O   O10       1.0  0.11600  0.69600  0.45000  1.0000
  O   O11       1.0  0.88400  0.69600  0.45000  1.0000
  O   O12       1.0  0.00000  0.39500  0.47100  1.0000
  O   O13       1.0  0.50000  0.37500  0.57800  1.0000
  O   O14       1.0  0.36700  0.96900  0.69300  1.0000
  O   O15       1.0  0.63300  0.96900  0.69300  1.0000
  O   O16       1.0  0.13900  0.04450  0.70300  1.0000
  O   O17       1.0  0.86100  0.04450  0.70300  1.0000
  O   O18       1.0  0.00000  0.63100  0.81200  1.0000
  O   O19       1.0  0.24400  0.87500  0.90000  1.0000
  O   O20       1.0  0.75600  0.87500  0.90000  1.0000
  O   O21       1.0  0.00000  0.32700  0.94100  1.0000
  O   O22       1.0  0.38400  0.30400  0.95000  1.0000
  O   O23       1.0  0.61600  0.30400  0.95000  1.0000
  O   O24       1.0  0.50000  0.60500  0.97100  1.0000
