data_image0
_chemical_formula_structural       Ba2Mn4O12Tb2
_chemical_formula_sum              "Ba2 Mn4 O12 Tb2"
_cell_length_a       5.49017
_cell_length_b       5.44422
_cell_length_c       7.6548
_cell_angle_alpha    90
_cell_angle_beta     90.0278
_cell_angle_gamma    90

_space_group_name_H-M_alt    "P 1"
_space_group_IT_number       1

loop_
  _space_group_symop_operation_xyz
  'x, y, z'

loop_
  _atom_site_type_symbol
  _atom_site_label
  _atom_site_symmetry_multiplicity
  _atom_site_fract_x
  _atom_site_fract_y
  _atom_site_fract_z
  _atom_site_occupancy
  Ba  Ba1       1.0  0.74300  0.25000  1.00000  1.0000
  Ba  Ba2       1.0  0.25700  0.75000  0.00026  1.0000
  Mn  Mn1       1.0  0.75200  0.75000  0.25600  1.0000
  Mn  Mn2       1.0  0.24800  0.25000  0.74400  1.0000
  Mn  Mn3       1.0  0.75100  0.75000  0.74400  1.0000
  Mn  Mn4       1.0  0.24900  0.25000  0.25600  1.0000
  O   O1        1.0  0.50000  0.00027  0.25500  1.0000
  O   O2        1.0  0.50000  0.50000  0.74500  1.0000
  O   O3        1.0  0.50000  0.00000  0.74500  1.0000
  O   O4        1.0  0.50000  0.50000  0.25500  1.0000
  O   O5        1.0  0.77900  0.75000  0.00003  1.0000
  O   O6        1.0  0.22100  0.25000  1.00000  1.0000
  O   O7        1.0  0.68400  0.75000  0.50000  1.0000
  O   O8        1.0  0.31600  0.25000  0.50000  1.0000
  O   O9        1.0  0.00023  0.50000  0.30300  1.0000
  O   O10       1.0  0.00000  0.00005  0.69700  1.0000
  O   O11       1.0  0.00000  0.50000  0.69700  1.0000
  O   O12       1.0  0.00023  0.00000  0.30300  1.0000
  Tb  Tb1       1.0  0.26000  0.75000  0.50000  1.0000
  Tb  Tb2       1.0  0.74000  0.25000  0.50000  1.0000
