data_image0
_chemical_formula_structural       H4N4S32
_chemical_formula_sum              "H4 N4 S32"
_cell_length_a       13.3731
_cell_length_b       8.28495
_cell_length_c       8.80591
_cell_angle_alpha    90
_cell_angle_beta     90
_cell_angle_gamma    90

_space_group_name_H-M_alt    "P 1"
_space_group_IT_number       1

loop_
  _space_group_symop_operation_xyz
  'x, y, z'

loop_
  _atom_site_type_symbol
  _atom_site_label
  _atom_site_symmetry_multiplicity
  _atom_site_fract_x
  _atom_site_fract_y
  _atom_site_fract_z
  _atom_site_occupancy
  H   H1        1.0  0.03450  0.20300  0.45500  1.0000
  H   H2        1.0  0.53500  0.79700  0.45500  1.0000
  H   H3        1.0  0.46500  0.20300  0.95500  1.0000
  H   H4        1.0  0.96500  0.79700  0.95500  1.0000
  N   N1        1.0  0.50100  0.12400  0.02630  1.0000
  N   N2        1.0  0.00118  0.87600  0.02630  1.0000
  N   N3        1.0  0.99900  0.12400  0.52600  1.0000
  N   N4        1.0  0.49900  0.87600  0.52600  1.0000
  S   S1        1.0  0.28700  0.40800  0.08480  1.0000
  S   S2        1.0  0.78700  0.59200  0.08480  1.0000
  S   S3        1.0  0.92700  0.02570  0.09350  1.0000
  S   S4        1.0  0.42700  0.97400  0.09350  1.0000
  S   S5        1.0  0.60300  0.20300  0.11100  1.0000
  S   S6        1.0  0.10300  0.79700  0.11100  1.0000
  S   S7        1.0  0.22900  0.20300  0.18600  1.0000
  S   S8        1.0  0.72900  0.79700  0.18600  1.0000
  S   S9        1.0  0.00327  0.44800  0.21600  1.0000
  S   S10       1.0  0.50300  0.55200  0.21600  1.0000
  S   S11       1.0  0.85100  0.45000  0.25300  1.0000
  S   S12       1.0  0.35100  0.55000  0.25300  1.0000
  S   S13       1.0  0.34700  0.06950  0.27200  1.0000
  S   S14       1.0  0.84700  0.93100  0.27200  1.0000
  S   S15       1.0  0.56200  0.33700  0.29900  1.0000
  S   S16       1.0  0.06220  0.66300  0.29900  1.0000
  S   S17       1.0  0.21300  0.40800  0.58500  1.0000
  S   S18       1.0  0.71300  0.59200  0.58500  1.0000
  S   S19       1.0  0.57300  0.02570  0.59300  1.0000
  S   S20       1.0  0.07260  0.97400  0.59300  1.0000
  S   S21       1.0  0.89700  0.20300  0.61100  1.0000
  S   S22       1.0  0.39700  0.79700  0.61100  1.0000
  S   S23       1.0  0.27100  0.20300  0.68600  1.0000
  S   S24       1.0  0.77100  0.79700  0.68600  1.0000
  S   S25       1.0  0.49700  0.44800  0.71600  1.0000
  S   S26       1.0  0.99700  0.55200  0.71600  1.0000
  S   S27       1.0  0.64900  0.45000  0.75300  1.0000
  S   S28       1.0  0.14900  0.55000  0.75300  1.0000
  S   S29       1.0  0.15300  0.06950  0.77200  1.0000
  S   S30       1.0  0.65300  0.93100  0.77200  1.0000
  S   S31       1.0  0.93800  0.33700  0.79900  1.0000
  S   S32       1.0  0.43800  0.66300  0.79900  1.0000
