data_image0
_chemical_formula_structural       Ag20C4F16
_chemical_formula_sum              "Ag20 C4 F16"
_cell_length_a       7.42273
_cell_length_b       7.42273
_cell_length_c       10.2812
_cell_angle_alpha    90
_cell_angle_beta     90
_cell_angle_gamma    90

_space_group_name_H-M_alt    "P 1"
_space_group_IT_number       1

loop_
  _space_group_symop_operation_xyz
  'x, y, z'

loop_
  _atom_site_type_symbol
  _atom_site_label
  _atom_site_symmetry_multiplicity
  _atom_site_fract_x
  _atom_site_fract_y
  _atom_site_fract_z
  _atom_site_occupancy
  Ag  Ag1       1.0  0.10800  0.23000  0.12100  1.0000
  Ag  Ag2       1.0  0.89200  0.77000  0.12100  1.0000
  Ag  Ag3       1.0  0.74100  0.40500  0.12300  1.0000
  Ag  Ag4       1.0  0.25900  0.59500  0.12300  1.0000
  Ag  Ag5       1.0  0.50000  0.00000  0.21000  1.0000
  Ag  Ag6       1.0  0.89400  0.19700  0.34500  1.0000
  Ag  Ag7       1.0  0.10600  0.80300  0.34500  1.0000
  Ag  Ag8       1.0  0.30400  0.37900  0.34800  1.0000
  Ag  Ag9       1.0  0.69600  0.62100  0.34800  1.0000
  Ag  Ag10      1.0  0.50000  0.00000  0.49700  1.0000
  Ag  Ag11      1.0  0.00000  0.50000  0.50300  1.0000
  Ag  Ag12      1.0  0.62100  0.30400  0.65200  1.0000
  Ag  Ag13      1.0  0.37900  0.69600  0.65200  1.0000
  Ag  Ag14      1.0  0.19700  0.10600  0.65500  1.0000
  Ag  Ag15      1.0  0.80300  0.89400  0.65500  1.0000
  Ag  Ag16      1.0  0.00000  0.50000  0.79000  1.0000
  Ag  Ag17      1.0  0.40500  0.25900  0.87700  1.0000
  Ag  Ag18      1.0  0.59500  0.74100  0.87700  1.0000
  Ag  Ag19      1.0  0.77000  0.10800  0.87900  1.0000
  Ag  Ag20      1.0  0.23000  0.89200  0.87900  1.0000
  C   C1        1.0  0.03990  0.42100  0.26600  1.0000
  C   C2        1.0  0.96000  0.57900  0.26600  1.0000
  C   C3        1.0  0.57900  0.03990  0.73400  1.0000
  C   C4        1.0  0.42100  0.96000  0.73400  1.0000
  F   F1        1.0  0.78900  0.06330  0.09940  1.0000
  F   F2        1.0  0.21100  0.93700  0.09940  1.0000
  F   F3        1.0  0.44900  0.28900  0.10400  1.0000
  F   F4        1.0  0.55100  0.71100  0.10400  1.0000
  F   F5        1.0  0.22200  0.06430  0.39700  1.0000
  F   F6        1.0  0.77800  0.93600  0.39700  1.0000
  F   F7        1.0  0.58200  0.29500  0.39900  1.0000
  F   F8        1.0  0.41800  0.70500  0.39900  1.0000
  F   F9        1.0  0.29500  0.41800  0.60100  1.0000
  F   F10       1.0  0.70500  0.58200  0.60100  1.0000
  F   F11       1.0  0.93600  0.22200  0.60300  1.0000
  F   F12       1.0  0.06430  0.77800  0.60300  1.0000
  F   F13       1.0  0.71100  0.44900  0.89600  1.0000
  F   F14       1.0  0.28900  0.55100  0.89600  1.0000
  F   F15       1.0  0.06330  0.21100  0.90100  1.0000
  F   F16       1.0  0.93700  0.78900  0.90100  1.0000
