data_image0
_chemical_formula_structural       F8Mn12O16Si4
_chemical_formula_sum              "F8 Mn12 O16 Si4"
_cell_length_a       10.7263
_cell_length_b       9.14161
_cell_length_c       4.84913
_cell_angle_alpha    90
_cell_angle_beta     90
_cell_angle_gamma    90

_space_group_name_H-M_alt    "P 1"
_space_group_IT_number       1

loop_
  _space_group_symop_operation_xyz
  'x, y, z'

loop_
  _atom_site_type_symbol
  _atom_site_label
  _atom_site_symmetry_multiplicity
  _atom_site_fract_x
  _atom_site_fract_y
  _atom_site_fract_z
  _atom_site_occupancy
  F   F1        1.0  0.53300  0.58200  0.23600  1.0000
  F   F2        1.0  0.53300  0.91800  0.23600  1.0000
  F   F3        1.0  0.03250  0.58200  0.26400  1.0000
  F   F4        1.0  0.03250  0.91800  0.26400  1.0000
  F   F5        1.0  0.96700  0.08160  0.73600  1.0000
  F   F6        1.0  0.96700  0.41800  0.73600  1.0000
  F   F7        1.0  0.46700  0.08160  0.76400  1.0000
  F   F8        1.0  0.46700  0.41800  0.76400  1.0000
  Mn  Mn1       1.0  0.91000  0.25000  0.00541  1.0000
  Mn  Mn2       1.0  0.36400  0.57100  0.01280  1.0000
  Mn  Mn3       1.0  0.36400  0.92900  0.01280  1.0000
  Mn  Mn4       1.0  0.86400  0.57100  0.48700  1.0000
  Mn  Mn5       1.0  0.86400  0.92900  0.48700  1.0000
  Mn  Mn6       1.0  0.41000  0.25000  0.49500  1.0000
  Mn  Mn7       1.0  0.59000  0.75000  0.50500  1.0000
  Mn  Mn8       1.0  0.13600  0.07070  0.51300  1.0000
  Mn  Mn9       1.0  0.13600  0.42900  0.51300  1.0000
  Mn  Mn10      1.0  0.63600  0.07070  0.98700  1.0000
  Mn  Mn11      1.0  0.63600  0.42900  0.98700  1.0000
  Mn  Mn12      1.0  0.08990  0.75000  0.99500  1.0000
  O   O1        1.0  0.08100  0.25000  0.21600  1.0000
  O   O2        1.0  0.29200  0.10800  0.22200  1.0000
  O   O3        1.0  0.29200  0.39200  0.22200  1.0000
  O   O4        1.0  0.27500  0.75000  0.24300  1.0000
  O   O5        1.0  0.77500  0.75000  0.25700  1.0000
  O   O6        1.0  0.79200  0.10800  0.27800  1.0000
  O   O7        1.0  0.79200  0.39200  0.27800  1.0000
  O   O8        1.0  0.58100  0.25000  0.28400  1.0000
  O   O9        1.0  0.41900  0.75000  0.71600  1.0000
  O   O10       1.0  0.20800  0.60800  0.72200  1.0000
  O   O11       1.0  0.20800  0.89200  0.72200  1.0000
  O   O12       1.0  0.22500  0.25000  0.74300  1.0000
  O   O13       1.0  0.72500  0.25000  0.75700  1.0000
  O   O14       1.0  0.70800  0.60800  0.77800  1.0000
  O   O15       1.0  0.70800  0.89200  0.77800  1.0000
  O   O16       1.0  0.91900  0.75000  0.78400  1.0000
  Si  Si1       1.0  0.22200  0.25000  0.07750  1.0000
  Si  Si2       1.0  0.72200  0.25000  0.42300  1.0000
  Si  Si3       1.0  0.27800  0.75000  0.57700  1.0000
  Si  Si4       1.0  0.77800  0.75000  0.92300  1.0000
