data_image0
_chemical_formula_structural       Na2O24P6Sn8
_chemical_formula_sum              "Na2 O24 P6 Sn8"
_cell_length_a       9.42619
_cell_length_b       9.42617
_cell_length_c       9.62915
_cell_angle_alpha    119.305
_cell_angle_beta     119.305
_cell_angle_gamma    59.9999

_space_group_name_H-M_alt    "P 1"
_space_group_IT_number       1

loop_
  _space_group_symop_operation_xyz
  'x, y, z'

loop_
  _atom_site_type_symbol
  _atom_site_label
  _atom_site_symmetry_multiplicity
  _atom_site_fract_x
  _atom_site_fract_y
  _atom_site_fract_z
  _atom_site_occupancy
  Na  Na1       1.0  0.04340  0.04340  0.13000  1.0000
  Na  Na2       1.0  0.54300  0.54300  0.63000  1.0000
  O   O1        1.0  0.18100  0.75300  0.18700  1.0000
  O   O2        1.0  0.25300  0.18100  0.18700  1.0000
  O   O3        1.0  0.75300  0.25300  0.18700  1.0000
  O   O4        1.0  0.66100  0.15100  0.31500  1.0000
  O   O5        1.0  0.50200  0.66100  0.31500  1.0000
  O   O6        1.0  0.15100  0.50200  0.31500  1.0000
  O   O7        1.0  0.32500  0.97900  0.41200  1.0000
  O   O8        1.0  0.97900  0.10800  0.41200  1.0000
  O   O9        1.0  0.10800  0.32500  0.41200  1.0000
  O   O10       1.0  0.31300  0.76700  0.49200  1.0000
  O   O11       1.0  0.41200  0.31300  0.49200  1.0000
  O   O12       1.0  0.76700  0.41200  0.49200  1.0000
  O   O13       1.0  0.75300  0.25300  0.68700  1.0000
  O   O14       1.0  0.25300  0.68100  0.68700  1.0000
  O   O15       1.0  0.68100  0.75300  0.68700  1.0000
  O   O16       1.0  0.00231  0.65100  0.81500  1.0000
  O   O17       1.0  0.65100  0.16100  0.81500  1.0000
  O   O18       1.0  0.16100  0.00231  0.81500  1.0000
  O   O19       1.0  0.60800  0.47900  0.91200  1.0000
  O   O20       1.0  0.82500  0.60800  0.91200  1.0000
  O   O21       1.0  0.47900  0.82500  0.91200  1.0000
  O   O22       1.0  0.91200  0.26700  0.99200  1.0000
  O   O23       1.0  0.26700  0.81300  0.99200  1.0000
  O   O24       1.0  0.81300  0.91200  0.99200  1.0000
  P   P1        1.0  0.33100  0.79000  0.35300  1.0000
  P   P2        1.0  0.79000  0.23200  0.35300  1.0000
  P   P3        1.0  0.23200  0.33100  0.35300  1.0000
  P   P4        1.0  0.73200  0.29000  0.85300  1.0000
  P   P5        1.0  0.83100  0.73200  0.85300  1.0000
  P   P6        1.0  0.29000  0.83100  0.85300  1.0000
  Sn  Sn1       1.0  0.69500  0.69500  0.08370  1.0000
  Sn  Sn2       1.0  0.62900  0.07360  0.47100  1.0000
  Sn  Sn3       1.0  0.76900  0.62900  0.47100  1.0000
  Sn  Sn4       1.0  0.07360  0.76900  0.47100  1.0000
  Sn  Sn5       1.0  0.19500  0.19500  0.58400  1.0000
  Sn  Sn6       1.0  0.26900  0.57400  0.97100  1.0000
  Sn  Sn7       1.0  0.57400  0.12900  0.97100  1.0000
  Sn  Sn8       1.0  0.12900  0.26900  0.97100  1.0000
