data_image0
_chemical_formula_structural       F4H12O16P4Rb4
_chemical_formula_sum              "F4 H12 O16 P4 Rb4"
_cell_length_a       8.8736
_cell_length_b       4.53456
_cell_length_c       11.575
_cell_angle_alpha    90
_cell_angle_beta     90
_cell_angle_gamma    90

_space_group_name_H-M_alt    "P 1"
_space_group_IT_number       1

loop_
  _space_group_symop_operation_xyz
  'x, y, z'

loop_
  _atom_site_type_symbol
  _atom_site_label
  _atom_site_symmetry_multiplicity
  _atom_site_fract_x
  _atom_site_fract_y
  _atom_site_fract_z
  _atom_site_occupancy
  F   F1        1.0  0.66100  0.09390  0.24700  1.0000
  F   F2        1.0  0.16100  0.40600  0.24700  1.0000
  F   F3        1.0  0.83900  0.59400  0.74700  1.0000
  F   F4        1.0  0.33900  0.90600  0.74700  1.0000
  H   H1        1.0  0.10100  0.24600  0.29400  1.0000
  H   H2        1.0  0.60100  0.25400  0.29400  1.0000
  H   H3        1.0  0.72000  0.68600  0.49000  1.0000
  H   H4        1.0  0.22000  0.81400  0.49000  1.0000
  H   H5        1.0  0.39300  0.12400  0.49300  1.0000
  H   H6        1.0  0.89300  0.37600  0.49300  1.0000
  H   H7        1.0  0.39900  0.74600  0.79400  1.0000
  H   H8        1.0  0.89900  0.75400  0.79400  1.0000
  H   H9        1.0  0.78000  0.18600  0.99000  1.0000
  H   H10       1.0  0.28000  0.31400  0.99000  1.0000
  H   H11       1.0  0.10700  0.62400  0.99300  1.0000
  H   H12       1.0  0.60700  0.87600  0.99300  1.0000
  O   O1        1.0  0.88600  0.18300  0.03160  1.0000
  O   O2        1.0  0.38600  0.31700  0.03160  1.0000
  O   O3        1.0  0.60100  0.66800  0.03190  1.0000
  O   O4        1.0  0.10100  0.83200  0.03190  1.0000
  O   O5        1.0  0.02320  0.03220  0.33900  1.0000
  O   O6        1.0  0.52300  0.46800  0.33900  1.0000
  O   O7        1.0  0.86700  0.66200  0.44600  1.0000
  O   O8        1.0  0.36700  0.83800  0.44600  1.0000
  O   O9        1.0  0.61400  0.68300  0.53200  1.0000
  O   O10       1.0  0.11400  0.81700  0.53200  1.0000
  O   O11       1.0  0.89900  0.16800  0.53200  1.0000
  O   O12       1.0  0.39900  0.33200  0.53200  1.0000
  O   O13       1.0  0.47700  0.53200  0.83900  1.0000
  O   O14       1.0  0.97700  0.96800  0.83900  1.0000
  O   O15       1.0  0.63300  0.16200  0.94600  1.0000
  O   O16       1.0  0.13300  0.33800  0.94600  1.0000
  P   P1        1.0  0.47700  0.57700  0.45700  1.0000
  P   P2        1.0  0.97700  0.92300  0.45700  1.0000
  P   P3        1.0  0.02260  0.07700  0.95700  1.0000
  P   P4        1.0  0.52300  0.42300  0.95700  1.0000
  Rb  Rb1       1.0  0.84700  0.62900  0.19800  1.0000
  Rb  Rb2       1.0  0.34700  0.87100  0.19800  1.0000
  Rb  Rb3       1.0  0.65300  0.12900  0.69800  1.0000
  Rb  Rb4       1.0  0.15300  0.37100  0.69800  1.0000
