data_image0
_chemical_formula_structural       Ag8C4Cl4N4O16S4
_chemical_formula_sum              "Ag8 C4 Cl4 N4 O16 S4"
_cell_length_a       4.74217
_cell_length_b       7.8872
_cell_length_c       17.2399
_cell_angle_alpha    92.1506
_cell_angle_beta     97.9052
_cell_angle_gamma    107.495

_space_group_name_H-M_alt    "P 1"
_space_group_IT_number       1

loop_
  _space_group_symop_operation_xyz
  'x, y, z'

loop_
  _atom_site_type_symbol
  _atom_site_label
  _atom_site_symmetry_multiplicity
  _atom_site_fract_x
  _atom_site_fract_y
  _atom_site_fract_z
  _atom_site_occupancy
  Ag  Ag1       1.0  0.50000  0.50000  0.00000  1.0000
  Ag  Ag2       1.0  0.72400  0.86700  0.12900  1.0000
  Ag  Ag3       1.0  0.46300  0.25000  0.25000  1.0000
  Ag  Ag4       1.0  0.22800  0.63300  0.37100  1.0000
  Ag  Ag5       1.0  0.50000  0.00000  0.50000  1.0000
  Ag  Ag6       1.0  0.77200  0.36700  0.62900  1.0000
  Ag  Ag7       1.0  0.53700  0.75000  0.75000  1.0000
  Ag  Ag8       1.0  0.27600  0.13300  0.87100  1.0000
  C   C1        1.0  0.33600  0.12500  0.06530  1.0000
  C   C2        1.0  0.64500  0.37500  0.43500  1.0000
  C   C3        1.0  0.35500  0.62500  0.56500  1.0000
  C   C4        1.0  0.66400  0.87500  0.93500  1.0000
  Cl  Cl1       1.0  0.02660  0.51900  0.15800  1.0000
  Cl  Cl2       1.0  0.85000  0.98100  0.34200  1.0000
  Cl  Cl3       1.0  0.15000  0.01920  0.65800  1.0000
  Cl  Cl4       1.0  0.97300  0.48100  0.84200  1.0000
  N   N1        1.0  0.35500  0.20900  0.00978  1.0000
  N   N2        1.0  0.63600  0.29100  0.49000  1.0000
  N   N3        1.0  0.36400  0.70900  0.51000  1.0000
  N   N4        1.0  0.64500  0.79100  0.99000  1.0000
  O   O1        1.0  0.10800  0.56200  0.08050  1.0000
  O   O2        1.0  0.73100  0.54400  0.16100  1.0000
  O   O3        1.0  0.00399  0.33400  0.17000  1.0000
  O   O4        1.0  0.24900  0.63900  0.21900  1.0000
  O   O5        1.0  0.89100  0.86100  0.28100  1.0000
  O   O6        1.0  0.00000  0.16600  0.33000  1.0000
  O   O7        1.0  0.52700  0.95600  0.33900  1.0000
  O   O8        1.0  0.96500  0.93800  0.41900  1.0000
  O   O9        1.0  0.03510  0.06230  0.58100  1.0000
  O   O10       1.0  0.47300  0.04360  0.66100  1.0000
  O   O11       1.0  0.00015  0.83400  0.67000  1.0000
  O   O12       1.0  0.10900  0.13900  0.71900  1.0000
  O   O13       1.0  0.75100  0.36100  0.78100  1.0000
  O   O14       1.0  0.99600  0.66600  0.83000  1.0000
  O   O15       1.0  0.26900  0.45600  0.83900  1.0000
  O   O16       1.0  0.89200  0.43800  0.91900  1.0000
  S   S1        1.0  0.30700  0.00514  0.14200  1.0000
  S   S2        1.0  0.66000  0.49500  0.35800  1.0000
  S   S3        1.0  0.34000  0.50500  0.64200  1.0000
  S   S4        1.0  0.69300  0.99500  0.85800  1.0000
