data_image0
_chemical_formula_structural       C24O16
_chemical_formula_sum              "C24 O16"
_cell_length_a       9.56599
_cell_length_b       11.1907
_cell_length_c       5.11586
_cell_angle_alpha    90
_cell_angle_beta     90
_cell_angle_gamma    90

_space_group_name_H-M_alt    "P 1"
_space_group_IT_number       1

loop_
  _space_group_symop_operation_xyz
  'x, y, z'

loop_
  _atom_site_type_symbol
  _atom_site_label
  _atom_site_symmetry_multiplicity
  _atom_site_fract_x
  _atom_site_fract_y
  _atom_site_fract_z
  _atom_site_occupancy
  C   C1        1.0  0.50000  0.00000  0.00000  1.0000
  C   C2        1.0  0.50000  0.50000  0.00000  1.0000
  C   C3        1.0  0.28500  0.75000  0.01430  1.0000
  C   C4        1.0  0.79400  0.25000  0.18600  1.0000
  C   C5        1.0  0.58000  0.00349  0.19800  1.0000
  C   C6        1.0  0.58000  0.49700  0.19800  1.0000
  C   C7        1.0  0.36800  0.75000  0.20900  1.0000
  C   C8        1.0  0.86800  0.75000  0.29100  1.0000
  C   C9        1.0  0.08030  0.00349  0.30200  1.0000
  C   C10       1.0  0.08030  0.49700  0.30200  1.0000
  C   C11       1.0  0.29400  0.25000  0.31400  1.0000
  C   C12       1.0  0.78500  0.75000  0.48600  1.0000
  C   C13       1.0  0.00000  0.00000  0.50000  1.0000
  C   C14       1.0  0.00000  0.50000  0.50000  1.0000
  C   C15       1.0  0.21500  0.25000  0.51400  1.0000
  C   C16       1.0  0.70600  0.75000  0.68600  1.0000
  C   C17       1.0  0.92000  0.50300  0.69800  1.0000
  C   C18       1.0  0.92000  0.99700  0.69800  1.0000
  C   C19       1.0  0.13200  0.25000  0.70900  1.0000
  C   C20       1.0  0.63200  0.25000  0.79100  1.0000
  C   C21       1.0  0.42000  0.50300  0.80200  1.0000
  C   C22       1.0  0.42000  0.99700  0.80200  1.0000
  C   C23       1.0  0.20600  0.75000  0.81400  1.0000
  C   C24       1.0  0.71500  0.25000  0.98600  1.0000
  O   O1        1.0  0.94400  0.75000  0.11000  1.0000
  O   O2        1.0  0.15400  0.00679  0.11800  1.0000
  O   O3        1.0  0.15400  0.49300  0.11800  1.0000
  O   O4        1.0  0.36600  0.25000  0.12800  1.0000
  O   O5        1.0  0.86600  0.25000  0.37200  1.0000
  O   O6        1.0  0.65400  0.00679  0.38200  1.0000
  O   O7        1.0  0.65400  0.49300  0.38200  1.0000
  O   O8        1.0  0.44400  0.75000  0.39000  1.0000
  O   O9        1.0  0.55600  0.25000  0.61000  1.0000
  O   O10       1.0  0.34600  0.50700  0.61800  1.0000
  O   O11       1.0  0.34600  0.99300  0.61800  1.0000
  O   O12       1.0  0.13400  0.75000  0.62800  1.0000
  O   O13       1.0  0.63400  0.75000  0.87200  1.0000
  O   O14       1.0  0.84600  0.50700  0.88200  1.0000
  O   O15       1.0  0.84600  0.99300  0.88200  1.0000
  O   O16       1.0  0.05570  0.25000  0.89000  1.0000
