data_image0
_chemical_formula_structural       U2Zn4
_chemical_formula_sum              "U2 Zn4"
_cell_length_a       5.19466
_cell_length_b       5.19465
_cell_length_c       4.80142
_cell_angle_alpha    90
_cell_angle_beta     90
_cell_angle_gamma    59.9964

_space_group_name_H-M_alt    "P 1"
_space_group_IT_number       1

loop_
  _space_group_symop_operation_xyz
  'x, y, z'

loop_
  _atom_site_type_symbol
  _atom_site_label
  _atom_site_symmetry_multiplicity
  _atom_site_fract_x
  _atom_site_fract_y
  _atom_site_fract_z
  _atom_site_occupancy
  U   U1        1.0  0.00000  0.00000  0.00000  1.0000
  U   U2        1.0  0.33300  0.33300  0.00000  1.0000
  Zn  Zn1       1.0  0.66700  0.66700  0.00000  1.0000
  Zn  Zn2       1.0  0.96800  0.36500  0.50000  1.0000
  Zn  Zn3       1.0  0.36500  0.66700  0.50000  1.0000
  Zn  Zn4       1.0  0.66700  0.96800  0.50000  1.0000
