data_image0
_chemical_formula_structural       PuZn5
_chemical_formula_sum              "Pu1 Zn5"
_cell_length_a       5.21329
_cell_length_b       5.21329
_cell_length_c       4.25184
_cell_angle_alpha    90
_cell_angle_beta     90
_cell_angle_gamma    60.1816

_space_group_name_H-M_alt    "P 1"
_space_group_IT_number       1

loop_
  _space_group_symop_operation_xyz
  'x, y, z'

loop_
  _atom_site_type_symbol
  _atom_site_label
  _atom_site_symmetry_multiplicity
  _atom_site_fract_x
  _atom_site_fract_y
  _atom_site_fract_z
  _atom_site_occupancy
  Pu  Pu1       1.0  0.00016  0.00000  0.00000  1.0000
  Zn  Zn1       1.0  0.33500  0.33400  0.00000  1.0000
  Zn  Zn2       1.0  0.66600  0.66500  0.00000  1.0000
  Zn  Zn3       1.0  0.51900  1.00000  0.50000  1.0000
  Zn  Zn4       1.0  0.00000  0.48100  0.50000  1.0000
  Zn  Zn5       1.0  0.48000  0.52000  0.50000  1.0000
