data_image0
_chemical_formula_structural       Ru8Si12
_chemical_formula_sum              "Ru8 Si12"
_cell_length_a       5.60418
_cell_length_b       5.60418
_cell_length_c       8.94034
_cell_angle_alpha    90
_cell_angle_beta     90
_cell_angle_gamma    90

_space_group_name_H-M_alt    "P 1"
_space_group_IT_number       1

loop_
  _space_group_symop_operation_xyz
  'x, y, z'

loop_
  _atom_site_type_symbol
  _atom_site_label
  _atom_site_symmetry_multiplicity
  _atom_site_fract_x
  _atom_site_fract_y
  _atom_site_fract_z
  _atom_site_occupancy
  Ru  Ru1       1.0  0.00000  0.00000  0.00000  1.0000
  Ru  Ru2       1.0  0.50000  0.00000  0.12800  1.0000
  Ru  Ru3       1.0  0.50000  0.50000  0.25000  1.0000
  Ru  Ru4       1.0  0.00000  0.50000  0.37200  1.0000
  Ru  Ru5       1.0  0.00000  0.00000  0.50000  1.0000
  Ru  Ru6       1.0  0.50000  0.00000  0.62800  1.0000
  Ru  Ru7       1.0  0.50000  0.50000  0.75000  1.0000
  Ru  Ru8       1.0  0.00000  0.50000  0.87200  1.0000
  Si  Si1       1.0  0.20700  0.35600  0.09020  1.0000
  Si  Si2       1.0  0.79300  0.64400  0.09020  1.0000
  Si  Si3       1.0  0.83000  0.17000  0.25000  1.0000
  Si  Si4       1.0  0.17000  0.83000  0.25000  1.0000
  Si  Si5       1.0  0.35600  0.20700  0.41000  1.0000
  Si  Si6       1.0  0.64400  0.79300  0.41000  1.0000
  Si  Si7       1.0  0.79300  0.35600  0.59000  1.0000
  Si  Si8       1.0  0.20700  0.64400  0.59000  1.0000
  Si  Si9       1.0  0.17000  0.17000  0.75000  1.0000
  Si  Si10      1.0  0.83000  0.83000  0.75000  1.0000
  Si  Si11      1.0  0.64400  0.20700  0.91000  1.0000
  Si  Si12      1.0  0.35600  0.79300  0.91000  1.0000
