data_image0
_chemical_formula_structural       N9O27Tl9
_chemical_formula_sum              "N9 O27 Tl9"
_cell_length_a       9.45976
_cell_length_b       9.45976
_cell_length_c       6.79044
_cell_angle_alpha    90
_cell_angle_beta     90
_cell_angle_gamma    120

_space_group_name_H-M_alt    "P 1"
_space_group_IT_number       1

loop_
  _space_group_symop_operation_xyz
  'x, y, z'

loop_
  _atom_site_type_symbol
  _atom_site_label
  _atom_site_symmetry_multiplicity
  _atom_site_fract_x
  _atom_site_fract_y
  _atom_site_fract_z
  _atom_site_occupancy
  N   N1        1.0  0.47400  0.59900  0.17700  1.0000
  N   N2        1.0  0.40100  0.87400  0.51100  1.0000
  N   N3        1.0  0.12600  0.52600  0.84400  1.0000
  N   N4        1.0  0.13600  0.22700  0.69700  1.0000
  N   N5        1.0  0.77300  0.90900  0.03050  1.0000
  N   N6        1.0  0.09110  0.86400  0.36400  1.0000
  N   N7        1.0  0.78300  0.24200  0.12600  1.0000
  N   N8        1.0  0.75800  0.54100  0.45900  1.0000
  N   N9        1.0  0.45900  0.21700  0.79200  1.0000
  O   O1        1.0  0.98600  0.11800  0.66800  1.0000
  O   O2        1.0  0.88200  0.86800  0.00142  1.0000
  O   O3        1.0  0.13200  0.01390  0.33500  1.0000
  O   O4        1.0  0.86300  0.25700  0.97300  1.0000
  O   O5        1.0  0.74300  0.60600  0.30700  1.0000
  O   O6        1.0  0.39400  0.13700  0.64000  1.0000
  O   O7        1.0  0.23000  0.29400  0.56200  1.0000
  O   O8        1.0  0.70600  0.93600  0.89500  1.0000
  O   O9        1.0  0.06390  0.77000  0.22800  1.0000
  O   O10       1.0  0.56600  0.19400  0.88200  1.0000
  O   O11       1.0  0.80600  0.37200  0.21500  1.0000
  O   O12       1.0  0.62800  0.43400  0.54800  1.0000
  O   O13       1.0  0.00897  0.20500  0.26700  1.0000
  O   O14       1.0  0.79500  0.80400  0.60100  1.0000
  O   O15       1.0  0.19600  0.99100  0.93400  1.0000
  O   O16       1.0  0.67900  0.10700  0.20000  1.0000
  O   O17       1.0  0.89300  0.57200  0.53300  1.0000
  O   O18       1.0  0.42800  0.32100  0.86600  1.0000
  O   O19       1.0  0.54900  0.61700  0.01990  1.0000
  O   O20       1.0  0.38300  0.93200  0.35300  1.0000
  O   O21       1.0  0.06810  0.45100  0.68700  1.0000
  O   O22       1.0  0.37700  0.45900  0.24800  1.0000
  O   O23       1.0  0.54100  0.91800  0.58100  1.0000
  O   O24       1.0  0.08220  0.62300  0.91400  1.0000
  O   O25       1.0  0.23300  0.50900  0.93700  1.0000
  O   O26       1.0  0.49100  0.72400  0.27000  1.0000
  O   O27       1.0  0.27600  0.76700  0.60400  1.0000
  Tl  Tl1       1.0  0.77100  0.22900  0.60800  1.0000
  Tl  Tl2       1.0  0.77100  0.54100  0.94100  1.0000
  Tl  Tl3       1.0  0.45900  0.22900  0.27400  1.0000
  Tl  Tl4       1.0  0.14300  0.18000  0.03950  1.0000
  Tl  Tl5       1.0  0.82000  0.96300  0.37300  1.0000
  Tl  Tl6       1.0  0.03710  0.85700  0.70600  1.0000
  Tl  Tl7       1.0  0.48500  0.60700  0.64600  1.0000
  Tl  Tl8       1.0  0.39300  0.87800  0.97900  1.0000
  Tl  Tl9       1.0  0.12200  0.51500  0.31300  1.0000
