data_image0
_chemical_formula_structural       PdZn5
_chemical_formula_sum              "Pd1 Zn5"
_cell_length_a       6.76062
_cell_length_b       3.18726
_cell_length_c       4.19325
_cell_angle_alpha    90
_cell_angle_beta     90
_cell_angle_gamma    75.7425

_space_group_name_H-M_alt    "P 1"
_space_group_IT_number       1

loop_
  _space_group_symop_operation_xyz
  'x, y, z'

loop_
  _atom_site_type_symbol
  _atom_site_label
  _atom_site_symmetry_multiplicity
  _atom_site_fract_x
  _atom_site_fract_y
  _atom_site_fract_z
  _atom_site_occupancy
  Pd  Pd1       1.0  0.36900  0.06590  0.00000  1.0000
  Zn  Zn1       1.0  0.69500  0.39800  0.00000  1.0000
  Zn  Zn2       1.0  0.03590  0.73500  0.00000  1.0000
  Zn  Zn3       1.0  0.96600  0.26800  0.50000  1.0000
  Zn  Zn4       1.0  0.29900  0.60100  0.50000  1.0000
  Zn  Zn5       1.0  0.63400  0.93200  0.50000  1.0000
