data_image0
_chemical_formula_structural       Ce4O28P8
_chemical_formula_sum              "Ce4 O28 P8"
_cell_length_a       9.04342
_cell_length_b       9.04342
_cell_length_c       9.04342
_cell_angle_alpha    90
_cell_angle_beta     90
_cell_angle_gamma    90

_space_group_name_H-M_alt    "P 1"
_space_group_IT_number       1

loop_
  _space_group_symop_operation_xyz
  'x, y, z'

loop_
  _atom_site_type_symbol
  _atom_site_label
  _atom_site_symmetry_multiplicity
  _atom_site_fract_x
  _atom_site_fract_y
  _atom_site_fract_z
  _atom_site_occupancy
  Ce  Ce1       1.0  0.00000  0.00000  0.00000  1.0000
  Ce  Ce2       1.0  0.50000  0.50000  0.00000  1.0000
  Ce  Ce3       1.0  0.50000  0.00000  0.50000  1.0000
  Ce  Ce4       1.0  0.00000  0.50000  0.50000  1.0000
  O   O1        1.0  0.50000  0.00000  0.00000  1.0000
  O   O2        1.0  0.00000  0.50000  0.00000  1.0000
  O   O3        1.0  0.74200  0.41700  0.04720  1.0000
  O   O4        1.0  0.75800  0.91700  0.04720  1.0000
  O   O5        1.0  0.95300  0.24200  0.08280  1.0000
  O   O6        1.0  0.54700  0.74200  0.08280  1.0000
  O   O7        1.0  0.41700  0.45300  0.24200  1.0000
  O   O8        1.0  0.08280  0.95300  0.24200  1.0000
  O   O9        1.0  0.91700  0.45300  0.25800  1.0000
  O   O10       1.0  0.58300  0.95300  0.25800  1.0000
  O   O11       1.0  0.45300  0.24200  0.41700  1.0000
  O   O12       1.0  0.04720  0.74200  0.41700  1.0000
  O   O13       1.0  0.24200  0.41700  0.45300  1.0000
  O   O14       1.0  0.25800  0.91700  0.45300  1.0000
  O   O15       1.0  0.00000  0.00000  0.50000  1.0000
  O   O16       1.0  0.50000  0.50000  0.50000  1.0000
  O   O17       1.0  0.74200  0.08280  0.54700  1.0000
  O   O18       1.0  0.75800  0.58300  0.54700  1.0000
  O   O19       1.0  0.95300  0.25800  0.58300  1.0000
  O   O20       1.0  0.54700  0.75800  0.58300  1.0000
  O   O21       1.0  0.41700  0.04720  0.74200  1.0000
  O   O22       1.0  0.08280  0.54700  0.74200  1.0000
  O   O23       1.0  0.91700  0.04720  0.75800  1.0000
  O   O24       1.0  0.58300  0.54700  0.75800  1.0000
  O   O25       1.0  0.45300  0.25800  0.91700  1.0000
  O   O26       1.0  0.04720  0.75800  0.91700  1.0000
  O   O27       1.0  0.24200  0.08280  0.95300  1.0000
  O   O28       1.0  0.25800  0.58300  0.95300  1.0000
  P   P1        1.0  0.89900  0.39900  0.10100  1.0000
  P   P2        1.0  0.60100  0.89900  0.10100  1.0000
  P   P3        1.0  0.39900  0.39900  0.39900  1.0000
  P   P4        1.0  0.10100  0.89900  0.39900  1.0000
  P   P5        1.0  0.89900  0.10100  0.60100  1.0000
  P   P6        1.0  0.60100  0.60100  0.60100  1.0000
  P   P7        1.0  0.39900  0.10100  0.89900  1.0000
  P   P8        1.0  0.10100  0.60100  0.89900  1.0000
