data_image0
_chemical_formula_structural       Al8Cl24O4Sn4
_chemical_formula_sum              "Al8 Cl24 O4 Sn4"
_cell_length_a       9.57577
_cell_length_b       12.3892
_cell_length_c       9.52116
_cell_angle_alpha    90
_cell_angle_beta     96.6103
_cell_angle_gamma    90

_space_group_name_H-M_alt    "P 1"
_space_group_IT_number       1

loop_
  _space_group_symop_operation_xyz
  'x, y, z'

loop_
  _atom_site_type_symbol
  _atom_site_label
  _atom_site_symmetry_multiplicity
  _atom_site_fract_x
  _atom_site_fract_y
  _atom_site_fract_z
  _atom_site_occupancy
  Al  Al1       1.0  0.07830  0.49200  0.12500  1.0000
  Al  Al2       1.0  0.77200  0.60900  0.14000  1.0000
  Al  Al3       1.0  0.72800  0.10900  0.36000  1.0000
  Al  Al4       1.0  0.42200  0.99200  0.37500  1.0000
  Al  Al5       1.0  0.57800  0.00778  0.62500  1.0000
  Al  Al6       1.0  0.27200  0.89100  0.64000  1.0000
  Al  Al7       1.0  0.22800  0.39100  0.86000  1.0000
  Al  Al8       1.0  0.92200  0.50800  0.87500  1.0000
  Cl  Cl1       1.0  0.33000  0.27500  0.00188  1.0000
  Cl  Cl2       1.0  0.03190  0.86400  0.02180  1.0000
  Cl  Cl3       1.0  0.64400  0.16900  0.15700  1.0000
  Cl  Cl4       1.0  0.62800  0.48000  0.18700  1.0000
  Cl  Cl5       1.0  0.24800  0.59800  0.19600  1.0000
  Cl  Cl6       1.0  0.44600  0.87700  0.21600  1.0000
  Cl  Cl7       1.0  0.05420  0.37700  0.28400  1.0000
  Cl  Cl8       1.0  0.25200  0.09830  0.30400  1.0000
  Cl  Cl9       1.0  0.87200  0.98000  0.31300  1.0000
  Cl  Cl10      1.0  0.85600  0.66900  0.34300  1.0000
  Cl  Cl11      1.0  0.46800  0.36400  0.47800  1.0000
  Cl  Cl12      1.0  0.17000  0.77500  0.49800  1.0000
  Cl  Cl13      1.0  0.83000  0.22500  0.50200  1.0000
  Cl  Cl14      1.0  0.53200  0.63600  0.52200  1.0000
  Cl  Cl15      1.0  0.14400  0.33100  0.65700  1.0000
  Cl  Cl16      1.0  0.12800  0.01980  0.68700  1.0000
  Cl  Cl17      1.0  0.74800  0.90200  0.69600  1.0000
  Cl  Cl18      1.0  0.94600  0.62300  0.71600  1.0000
  Cl  Cl19      1.0  0.55400  0.12300  0.78400  1.0000
  Cl  Cl20      1.0  0.75200  0.40200  0.80400  1.0000
  Cl  Cl21      1.0  0.37200  0.52000  0.81300  1.0000
  Cl  Cl22      1.0  0.35600  0.83100  0.84300  1.0000
  Cl  Cl23      1.0  0.96800  0.13600  0.97800  1.0000
  Cl  Cl24      1.0  0.67000  0.72500  0.99800  1.0000
  O   O1        1.0  0.91100  0.55200  0.05540  1.0000
  O   O2        1.0  0.58900  0.05240  0.44500  1.0000
  O   O3        1.0  0.41100  0.94800  0.55500  1.0000
  O   O4        1.0  0.08850  0.44800  0.94500  1.0000
  Sn  Sn1       1.0  0.79400  0.97700  0.01400  1.0000
  Sn  Sn2       1.0  0.70600  0.47700  0.48600  1.0000
  Sn  Sn3       1.0  0.29400  0.52300  0.51400  1.0000
  Sn  Sn4       1.0  0.20600  0.02290  0.98600  1.0000
