data_image0
_chemical_formula_structural       C8Cs4Gd4O24
_chemical_formula_sum              "C8 Cs4 Gd4 O24"
_cell_length_a       8.34303
_cell_length_b       8.65417
_cell_length_c       8.74294
_cell_angle_alpha    98.6611
_cell_angle_beta     96.4506
_cell_angle_gamma    115.217

_space_group_name_H-M_alt    "P 1"
_space_group_IT_number       1

loop_
  _space_group_symop_operation_xyz
  'x, y, z'

loop_
  _atom_site_type_symbol
  _atom_site_label
  _atom_site_symmetry_multiplicity
  _atom_site_fract_x
  _atom_site_fract_y
  _atom_site_fract_z
  _atom_site_occupancy
  C   C1        1.0  0.00348  0.72700  0.21300  1.0000
  C   C2        1.0  0.58500  0.40100  0.23500  1.0000
  C   C3        1.0  0.45600  0.85900  0.25800  1.0000
  C   C4        1.0  0.02710  0.29100  0.28800  1.0000
  C   C5        1.0  0.97300  0.70900  0.71200  1.0000
  C   C6        1.0  0.54400  0.14100  0.74200  1.0000
  C   C7        1.0  0.41500  0.59900  0.76500  1.0000
  C   C8        1.0  0.99700  0.27300  0.78700  1.0000
  Cs  Cs1       1.0  0.24100  0.02990  0.04040  1.0000
  Cs  Cs2       1.0  0.76100  0.81400  0.47400  1.0000
  Cs  Cs3       1.0  0.23900  0.18600  0.52600  1.0000
  Cs  Cs4       1.0  0.75900  0.97000  0.96000  1.0000
  Gd  Gd1       1.0  0.26200  0.52200  0.04770  1.0000
  Gd  Gd2       1.0  0.75900  0.28600  0.45800  1.0000
  Gd  Gd3       1.0  0.24100  0.71400  0.54200  1.0000
  Gd  Gd4       1.0  0.73800  0.47800  0.95200  1.0000
  O   O1        1.0  0.44600  0.82600  0.10700  1.0000
  O   O2        1.0  0.04810  0.62800  0.11600  1.0000
  O   O3        1.0  0.50300  0.44300  0.12600  1.0000
  O   O4        1.0  0.86100  0.74200  0.16100  1.0000
  O   O5        1.0  0.12000  0.30200  0.17900  1.0000
  O   O6        1.0  0.72700  0.38200  0.20800  1.0000
  O   O7        1.0  0.89200  0.14600  0.29400  1.0000
  O   O8        1.0  0.39000  0.72100  0.32100  1.0000
  O   O9        1.0  0.52500  0.01470  0.34200  1.0000
  O   O10       1.0  0.09600  0.80500  0.35400  1.0000
  O   O11       1.0  0.53500  0.37600  0.36700  1.0000
  O   O12       1.0  0.06540  0.42600  0.40200  1.0000
  O   O13       1.0  0.93500  0.57400  0.59800  1.0000
  O   O14       1.0  0.46500  0.62400  0.63300  1.0000
  O   O15       1.0  0.90400  0.19500  0.64600  1.0000
  O   O16       1.0  0.47500  0.98500  0.65800  1.0000
  O   O17       1.0  0.61000  0.27900  0.67900  1.0000
  O   O18       1.0  0.10800  0.85400  0.70600  1.0000
  O   O19       1.0  0.27300  0.61800  0.79200  1.0000
  O   O20       1.0  0.88000  0.69800  0.82100  1.0000
  O   O21       1.0  0.13900  0.25800  0.83900  1.0000
  O   O22       1.0  0.49700  0.55700  0.87400  1.0000
  O   O23       1.0  0.95200  0.37200  0.88400  1.0000
  O   O24       1.0  0.55400  0.17400  0.89300  1.0000
