data_image0
_chemical_formula_structural       Al4H8Li4O20Si4
_chemical_formula_sum              "Al4 H8 Li4 O20 Si4"
_cell_length_a       10.3664
_cell_length_b       8.07533
_cell_length_c       4.92653
_cell_angle_alpha    90
_cell_angle_beta     90
_cell_angle_gamma    90

_space_group_name_H-M_alt    "P 1"
_space_group_IT_number       1

loop_
  _space_group_symop_operation_xyz
  'x, y, z'

loop_
  _atom_site_type_symbol
  _atom_site_label
  _atom_site_symmetry_multiplicity
  _atom_site_fract_x
  _atom_site_fract_y
  _atom_site_fract_z
  _atom_site_occupancy
  Al  Al1       1.0  0.15600  0.08220  0.25400  1.0000
  Al  Al2       1.0  0.65600  0.41800  0.25400  1.0000
  Al  Al3       1.0  0.34400  0.58200  0.75400  1.0000
  Al  Al4       1.0  0.84400  0.91800  0.75400  1.0000
  H   H1        1.0  0.98400  0.53000  0.09790  1.0000
  H   H2        1.0  0.48400  0.97000  0.09790  1.0000
  H   H3        1.0  0.95300  0.66700  0.32600  1.0000
  H   H4        1.0  0.45300  0.83300  0.32600  1.0000
  H   H5        1.0  0.51600  0.03040  0.59800  1.0000
  H   H6        1.0  0.01560  0.47000  0.59800  1.0000
  H   H7        1.0  0.54700  0.16700  0.82600  1.0000
  H   H8        1.0  0.04710  0.33300  0.82600  1.0000
  Li  Li1       1.0  0.18200  0.67900  0.26000  1.0000
  Li  Li2       1.0  0.68200  0.82100  0.26000  1.0000
  Li  Li3       1.0  0.31800  0.17900  0.76000  1.0000
  Li  Li4       1.0  0.81800  0.32100  0.76000  1.0000
  O   O1        1.0  0.67100  0.60800  0.07730  1.0000
  O   O2        1.0  0.17100  0.89200  0.07730  1.0000
  O   O3        1.0  0.31500  0.54500  0.10100  1.0000
  O   O4        1.0  0.81500  0.95500  0.10100  1.0000
  O   O5        1.0  0.27300  0.21900  0.13200  1.0000
  O   O6        1.0  0.77300  0.28100  0.13200  1.0000
  O   O7        1.0  0.00723  0.17000  0.18600  1.0000
  O   O8        1.0  0.50700  0.33000  0.18600  1.0000
  O   O9        1.0  0.01030  0.57600  0.27700  1.0000
  O   O10       1.0  0.51000  0.92400  0.27700  1.0000
  O   O11       1.0  0.82900  0.10800  0.57700  1.0000
  O   O12       1.0  0.32900  0.39200  0.57700  1.0000
  O   O13       1.0  0.18500  0.04510  0.60100  1.0000
  O   O14       1.0  0.68500  0.45500  0.60100  1.0000
  O   O15       1.0  0.22700  0.71900  0.63200  1.0000
  O   O16       1.0  0.72700  0.78100  0.63200  1.0000
  O   O17       1.0  0.49300  0.67000  0.68600  1.0000
  O   O18       1.0  0.99300  0.83000  0.68600  1.0000
  O   O19       1.0  0.49000  0.07630  0.77700  1.0000
  O   O20       1.0  0.99000  0.42400  0.77700  1.0000
  Si  Si1       1.0  0.85800  0.12800  0.25200  1.0000
  Si  Si2       1.0  0.35800  0.37200  0.25200  1.0000
  Si  Si3       1.0  0.64200  0.62800  0.75200  1.0000
  Si  Si4       1.0  0.14200  0.87200  0.75200  1.0000
