data_image0
_chemical_formula_structural       C8K8O24
_chemical_formula_sum              "C8 K8 O24"
_cell_length_a       8.3149
_cell_length_b       10.6024
_cell_length_c       6.98512
_cell_angle_alpha    90
_cell_angle_beta     110.92
_cell_angle_gamma    90

_space_group_name_H-M_alt    "P 1"
_space_group_IT_number       1

loop_
  _space_group_symop_operation_xyz
  'x, y, z'

loop_
  _atom_site_type_symbol
  _atom_site_label
  _atom_site_symmetry_multiplicity
  _atom_site_fract_x
  _atom_site_fract_y
  _atom_site_fract_z
  _atom_site_occupancy
  C   C1        1.0  0.03800  0.12400  0.16900  1.0000
  C   C2        1.0  0.55500  0.63000  0.22400  1.0000
  C   C3        1.0  0.44500  0.13000  0.27600  1.0000
  C   C4        1.0  0.96200  0.62400  0.33100  1.0000
  C   C5        1.0  0.03800  0.37600  0.66900  1.0000
  C   C6        1.0  0.55500  0.87000  0.72400  1.0000
  C   C7        1.0  0.44500  0.37000  0.77600  1.0000
  C   C8        1.0  0.96200  0.87600  0.83100  1.0000
  K   K1        1.0  0.18900  0.40800  0.19200  1.0000
  K   K2        1.0  0.69300  0.33800  0.22100  1.0000
  K   K3        1.0  0.30700  0.83800  0.27900  1.0000
  K   K4        1.0  0.81100  0.90800  0.30800  1.0000
  K   K5        1.0  0.18900  0.09180  0.69200  1.0000
  K   K6        1.0  0.69300  0.16200  0.72100  1.0000
  K   K7        1.0  0.30700  0.66200  0.77900  1.0000
  K   K8        1.0  0.81100  0.59200  0.80800  1.0000
  O   O1        1.0  0.14800  0.15900  0.06040  1.0000
  O   O2        1.0  0.90900  0.19500  0.11300  1.0000
  O   O3        1.0  0.30300  0.07750  0.11600  1.0000
  O   O4        1.0  0.56700  0.73500  0.15100  1.0000
  O   O5        1.0  0.43100  0.55400  0.18100  1.0000
  O   O6        1.0  0.91700  0.53500  0.20600  1.0000
  O   O7        1.0  0.08270  0.03550  0.29400  1.0000
  O   O8        1.0  0.56900  0.05390  0.31900  1.0000
  O   O9        1.0  0.43300  0.23500  0.34900  1.0000
  O   O10       1.0  0.69700  0.57700  0.38400  1.0000
  O   O11       1.0  0.09130  0.69500  0.38700  1.0000
  O   O12       1.0  0.85200  0.65900  0.44000  1.0000
  O   O13       1.0  0.14800  0.34100  0.56000  1.0000
  O   O14       1.0  0.90900  0.30500  0.61300  1.0000
  O   O15       1.0  0.30300  0.42300  0.61600  1.0000
  O   O16       1.0  0.56700  0.76500  0.65100  1.0000
  O   O17       1.0  0.43100  0.94600  0.68100  1.0000
  O   O18       1.0  0.91700  0.96500  0.70600  1.0000
  O   O19       1.0  0.08270  0.46500  0.79400  1.0000
  O   O20       1.0  0.56900  0.44600  0.81900  1.0000
  O   O21       1.0  0.43300  0.26500  0.84900  1.0000
  O   O22       1.0  0.69700  0.92300  0.88400  1.0000
  O   O23       1.0  0.09130  0.80500  0.88700  1.0000
  O   O24       1.0  0.85200  0.84100  0.94000  1.0000
