data_image0
_chemical_formula_structural       Mo4Na8O24Se4
_chemical_formula_sum              "Mo4 Na8 O24 Se4"
_cell_length_a       8.28443
_cell_length_b       8.28443
_cell_length_c       8.28443
_cell_angle_alpha    90
_cell_angle_beta     90
_cell_angle_gamma    90

_space_group_name_H-M_alt    "P 1"
_space_group_IT_number       1

loop_
  _space_group_symop_operation_xyz
  'x, y, z'

loop_
  _atom_site_type_symbol
  _atom_site_label
  _atom_site_symmetry_multiplicity
  _atom_site_fract_x
  _atom_site_fract_y
  _atom_site_fract_z
  _atom_site_occupancy
  Mo  Mo1       1.0  0.00779  0.00779  0.00779  1.0000
  Mo  Mo2       1.0  0.99200  0.50800  0.49200  1.0000
  Mo  Mo3       1.0  0.49200  0.99200  0.50800  1.0000
  Mo  Mo4       1.0  0.50800  0.49200  0.99200  1.0000
  Na  Na1       1.0  0.53000  0.97000  0.02970  1.0000
  Na  Na2       1.0  0.74500  0.75500  0.24500  1.0000
  Na  Na3       1.0  0.25500  0.25500  0.25500  1.0000
  Na  Na4       1.0  0.47000  0.47000  0.47000  1.0000
  Na  Na5       1.0  0.97000  0.02970  0.53000  1.0000
  Na  Na6       1.0  0.75500  0.24500  0.74500  1.0000
  Na  Na7       1.0  0.24500  0.74500  0.75500  1.0000
  Na  Na8       1.0  0.02970  0.53000  0.97000  1.0000
  O   O1        1.0  0.25600  0.10100  0.00734  1.0000
  O   O2        1.0  0.57700  0.69500  0.00959  1.0000
  O   O3        1.0  0.80500  0.99000  0.07690  1.0000
  O   O4        1.0  0.00734  0.25600  0.10100  1.0000
  O   O5        1.0  0.49000  0.42300  0.19500  1.0000
  O   O6        1.0  0.89900  0.50700  0.24400  1.0000
  O   O7        1.0  0.10100  0.00734  0.25600  1.0000
  O   O8        1.0  0.51000  0.92300  0.30500  1.0000
  O   O9        1.0  0.99300  0.75600  0.39900  1.0000
  O   O10       1.0  0.19500  0.49000  0.42300  1.0000
  O   O11       1.0  0.42300  0.19500  0.49000  1.0000
  O   O12       1.0  0.74400  0.60100  0.49300  1.0000
  O   O13       1.0  0.24400  0.89900  0.50700  1.0000
  O   O14       1.0  0.92300  0.30500  0.51000  1.0000
  O   O15       1.0  0.69500  0.00959  0.57700  1.0000
  O   O16       1.0  0.49300  0.74400  0.60100  1.0000
  O   O17       1.0  0.00959  0.57700  0.69500  1.0000
  O   O18       1.0  0.60100  0.49300  0.74400  1.0000
  O   O19       1.0  0.39900  0.99300  0.75600  1.0000
  O   O20       1.0  0.99000  0.07690  0.80500  1.0000
  O   O21       1.0  0.50700  0.24400  0.89900  1.0000
  O   O22       1.0  0.30500  0.51000  0.92300  1.0000
  O   O23       1.0  0.07690  0.80500  0.99000  1.0000
  O   O24       1.0  0.75600  0.39900  0.99300  1.0000
  Se  Se1       1.0  0.82400  0.32400  0.17600  1.0000
  Se  Se2       1.0  0.17600  0.82400  0.32400  1.0000
  Se  Se3       1.0  0.67600  0.67600  0.67600  1.0000
  Se  Se4       1.0  0.32400  0.17600  0.82400  1.0000
