data_image0
_chemical_formula_structural       Dy6F2O24Se8
_chemical_formula_sum              "Dy6 F2 O24 Se8"
_cell_length_a       10.2649
_cell_length_b       10.2648
_cell_length_c       6.75782
_cell_angle_alpha    90
_cell_angle_beta     90
_cell_angle_gamma    120

_space_group_name_H-M_alt    "P 1"
_space_group_IT_number       1

loop_
  _space_group_symop_operation_xyz
  'x, y, z'

loop_
  _atom_site_type_symbol
  _atom_site_label
  _atom_site_symmetry_multiplicity
  _atom_site_fract_x
  _atom_site_fract_y
  _atom_site_fract_z
  _atom_site_occupancy
  Dy  Dy1       1.0  0.46200  0.53800  0.31600  1.0000
  Dy  Dy2       1.0  0.07550  0.53800  0.31600  1.0000
  Dy  Dy3       1.0  0.46200  0.92400  0.31600  1.0000
  Dy  Dy4       1.0  0.92400  0.46200  0.81600  1.0000
  Dy  Dy5       1.0  0.53800  0.07550  0.81600  1.0000
  Dy  Dy6       1.0  0.53800  0.46200  0.81600  1.0000
  F   F1        1.0  0.33300  0.66700  0.26500  1.0000
  F   F2        1.0  0.66700  0.33300  0.76500  1.0000
  O   O1        1.0  0.07950  0.41400  0.01200  1.0000
  O   O2        1.0  0.07950  0.66500  0.01200  1.0000
  O   O3        1.0  0.58600  0.66500  0.01200  1.0000
  O   O4        1.0  0.33500  0.41400  0.01200  1.0000
  O   O5        1.0  0.33500  0.92000  0.01200  1.0000
  O   O6        1.0  0.58600  0.92000  0.01200  1.0000
  O   O7        1.0  0.58000  0.42000  0.14100  1.0000
  O   O8        1.0  0.83900  0.42000  0.14100  1.0000
  O   O9        1.0  0.58000  0.16100  0.14100  1.0000
  O   O10       1.0  0.17900  0.35700  0.32800  1.0000
  O   O11       1.0  0.17900  0.82100  0.32800  1.0000
  O   O12       1.0  0.64300  0.82100  0.32800  1.0000
  O   O13       1.0  0.41400  0.33500  0.51200  1.0000
  O   O14       1.0  0.92000  0.33500  0.51200  1.0000
  O   O15       1.0  0.92000  0.58600  0.51200  1.0000
  O   O16       1.0  0.66500  0.07950  0.51200  1.0000
  O   O17       1.0  0.66500  0.58600  0.51200  1.0000
  O   O18       1.0  0.41400  0.07950  0.51200  1.0000
  O   O19       1.0  0.16100  0.58000  0.64100  1.0000
  O   O20       1.0  0.42000  0.58000  0.64100  1.0000
  O   O21       1.0  0.42000  0.83900  0.64100  1.0000
  O   O22       1.0  0.82100  0.64300  0.82800  1.0000
  O   O23       1.0  0.35700  0.17900  0.82800  1.0000
  O   O24       1.0  0.82100  0.17900  0.82800  1.0000
  Se  Se1       1.0  0.15100  0.30200  0.08400  1.0000
  Se  Se2       1.0  0.69800  0.84900  0.08400  1.0000
  Se  Se3       1.0  0.15100  0.84900  0.08400  1.0000
  Se  Se4       1.0  0.66700  0.33300  0.25900  1.0000
  Se  Se5       1.0  0.84900  0.69800  0.58400  1.0000
  Se  Se6       1.0  0.84900  0.15100  0.58400  1.0000
  Se  Se7       1.0  0.30200  0.15100  0.58400  1.0000
  Se  Se8       1.0  0.33300  0.66700  0.75900  1.0000
