data_image0
_chemical_formula_structural       Mo4Na16O20
_chemical_formula_sum              "Mo4 Na16 O20"
_cell_length_a       9.90477
_cell_length_b       9.91181
_cell_length_c       5.60621
_cell_angle_alpha    96.3924
_cell_angle_beta     96.2938
_cell_angle_gamma    113.361

_space_group_name_H-M_alt    "P 1"
_space_group_IT_number       1

loop_
  _space_group_symop_operation_xyz
  'x, y, z'

loop_
  _atom_site_type_symbol
  _atom_site_label
  _atom_site_symmetry_multiplicity
  _atom_site_fract_x
  _atom_site_fract_y
  _atom_site_fract_z
  _atom_site_occupancy
  Mo  Mo1       1.0  0.78400  0.75200  0.21500  1.0000
  Mo  Mo2       1.0  0.29900  0.73800  0.47900  1.0000
  Mo  Mo3       1.0  0.70100  0.26200  0.52100  1.0000
  Mo  Mo4       1.0  0.21600  0.24800  0.78500  1.0000
  Na  Na1       1.0  0.00000  0.00000  0.00000  1.0000
  Na  Na2       1.0  0.39900  0.60000  0.00110  1.0000
  Na  Na3       1.0  0.80600  0.19100  0.01630  1.0000
  Na  Na4       1.0  0.54800  0.93400  0.21700  1.0000
  Na  Na5       1.0  0.94400  0.53600  0.23800  1.0000
  Na  Na6       1.0  0.35500  0.15600  0.26500  1.0000
  Na  Na7       1.0  0.15100  0.35900  0.28200  1.0000
  Na  Na8       1.0  0.89800  0.09070  0.49200  1.0000
  Na  Na9       1.0  0.50000  0.50000  0.50000  1.0000
  Na  Na10      1.0  0.10200  0.90900  0.50800  1.0000
  Na  Na11      1.0  0.84900  0.64100  0.71800  1.0000
  Na  Na12      1.0  0.64500  0.84400  0.73500  1.0000
  Na  Na13      1.0  0.05650  0.46400  0.76200  1.0000
  Na  Na14      1.0  0.45200  0.06590  0.78400  1.0000
  Na  Na15      1.0  0.19400  0.80900  0.98400  1.0000
  Na  Na16      1.0  0.60100  0.40000  0.99900  1.0000
  O   O1        1.0  0.35800  0.35100  0.06620  1.0000
  O   O2        1.0  0.96000  0.77300  0.11500  1.0000
  O   O3        1.0  0.77200  0.93400  0.13600  1.0000
  O   O4        1.0  0.60200  0.19100  0.19000  1.0000
  O   O5        1.0  0.18800  0.59600  0.19100  1.0000
  O   O6        1.0  0.72700  0.57100  0.33700  1.0000
  O   O7        1.0  0.32300  0.91200  0.37600  1.0000
  O   O8        1.0  0.88600  0.31900  0.40100  1.0000
  O   O9        1.0  0.46900  0.71200  0.40300  1.0000
  O   O10       1.0  0.15100  0.14800  0.45300  1.0000
  O   O11       1.0  0.84900  0.85200  0.54700  1.0000
  O   O12       1.0  0.53100  0.28800  0.59700  1.0000
  O   O13       1.0  0.11400  0.68100  0.59900  1.0000
  O   O14       1.0  0.67700  0.08780  0.62400  1.0000
  O   O15       1.0  0.27300  0.42900  0.66300  1.0000
  O   O16       1.0  0.81200  0.40400  0.80900  1.0000
  O   O17       1.0  0.39800  0.80900  0.81000  1.0000
  O   O18       1.0  0.22800  0.06630  0.86400  1.0000
  O   O19       1.0  0.04040  0.22700  0.88500  1.0000
  O   O20       1.0  0.64200  0.64900  0.93400  1.0000
