data_image0
_chemical_formula_structural       Eu3F
_chemical_formula_sum              "Eu3 F1"
_cell_length_a       7.04386
_cell_length_b       7.04386
_cell_length_c       7.04386
_cell_angle_alpha    145.157
_cell_angle_beta     145.157
_cell_angle_gamma    50.1008

_space_group_name_H-M_alt    "P 1"
_space_group_IT_number       1

loop_
  _space_group_symop_operation_xyz
  'x, y, z'

loop_
  _atom_site_type_symbol
  _atom_site_label
  _atom_site_symmetry_multiplicity
  _atom_site_fract_x
  _atom_site_fract_y
  _atom_site_fract_z
  _atom_site_occupancy
  Eu  Eu1       1.0  0.75000  0.25000  0.50000  1.0000
  Eu  Eu2       1.0  0.25000  0.75000  0.50000  1.0000
  Eu  Eu3       1.0  0.50000  0.50000  0.00000  1.0000
  F   F1        1.0  0.00000  0.00000  0.00000  1.0000
