data_image0
_chemical_formula_structural       Hg8N8O24
_chemical_formula_sum              "Hg8 N8 O24"
_cell_length_a       6.1656
_cell_length_b       8.19967
_cell_length_c       11.505
_cell_angle_alpha    90
_cell_angle_beta     92.9246
_cell_angle_gamma    90

_space_group_name_H-M_alt    "P 1"
_space_group_IT_number       1

loop_
  _space_group_symop_operation_xyz
  'x, y, z'

loop_
  _atom_site_type_symbol
  _atom_site_label
  _atom_site_symmetry_multiplicity
  _atom_site_fract_x
  _atom_site_fract_y
  _atom_site_fract_z
  _atom_site_occupancy
  Hg  Hg1       1.0  0.35100  0.01300  0.08630  1.0000
  Hg  Hg2       1.0  0.72700  0.00824  0.19100  1.0000
  Hg  Hg3       1.0  0.80000  0.54500  0.32500  1.0000
  Hg  Hg4       1.0  0.17600  0.67400  0.35800  1.0000
  Hg  Hg5       1.0  0.82400  0.17400  0.64200  1.0000
  Hg  Hg6       1.0  0.20000  0.04490  0.67500  1.0000
  Hg  Hg7       1.0  0.27300  0.50800  0.80900  1.0000
  Hg  Hg8       1.0  0.64900  0.51300  0.91400  1.0000
  N   N1        1.0  0.00509  0.65700  0.06500  1.0000
  N   N2        1.0  0.44800  0.39000  0.17300  1.0000
  N   N3        1.0  0.08540  0.13700  0.33600  1.0000
  N   N4        1.0  0.51900  0.88700  0.44400  1.0000
  N   N5        1.0  0.48100  0.38700  0.55600  1.0000
  N   N6        1.0  0.91500  0.63700  0.66400  1.0000
  N   N7        1.0  0.55200  0.89000  0.82700  1.0000
  N   N8        1.0  0.99500  0.15700  0.93500  1.0000
  O   O1        1.0  0.00454  0.04910  0.01880  1.0000
  O   O2        1.0  0.18800  0.70200  0.10400  1.0000
  O   O3        1.0  0.83000  0.70500  0.10400  1.0000
  O   O4        1.0  0.62100  0.36500  0.12100  1.0000
  O   O5        1.0  0.26600  0.33900  0.13800  1.0000
  O   O6        1.0  0.46200  0.47000  0.27100  1.0000
  O   O7        1.0  0.06530  0.00000  0.27500  1.0000
  O   O8        1.0  0.92000  0.22600  0.33800  1.0000
  O   O9        1.0  0.51000  0.79500  0.35100  1.0000
  O   O10       1.0  0.26200  0.16800  0.38600  1.0000
  O   O11       1.0  0.67400  0.98200  0.46000  1.0000
  O   O12       1.0  0.63600  0.37200  0.49000  1.0000
  O   O13       1.0  0.36400  0.87200  0.51000  1.0000
  O   O14       1.0  0.32600  0.48200  0.54000  1.0000
  O   O15       1.0  0.73800  0.66800  0.61400  1.0000
  O   O16       1.0  0.49000  0.29500  0.64900  1.0000
  O   O17       1.0  0.08010  0.72600  0.66200  1.0000
  O   O18       1.0  0.93500  0.50000  0.72500  1.0000
  O   O19       1.0  0.53800  0.97000  0.72900  1.0000
  O   O20       1.0  0.73400  0.83900  0.86200  1.0000
  O   O21       1.0  0.37900  0.86500  0.87900  1.0000
  O   O22       1.0  0.17000  0.20500  0.89600  1.0000
  O   O23       1.0  0.81200  0.20200  0.89600  1.0000
  O   O24       1.0  0.99500  0.54900  0.98100  1.0000
