data_image0
_chemical_formula_structural       Cl8Hg8O24
_chemical_formula_sum              "Cl8 Hg8 O24"
_cell_length_a       8.06322
_cell_length_b       6.44064
_cell_length_c       12.7642
_cell_angle_alpha    90
_cell_angle_beta     97.5538
_cell_angle_gamma    90

_space_group_name_H-M_alt    "P 1"
_space_group_IT_number       1

loop_
  _space_group_symop_operation_xyz
  'x, y, z'

loop_
  _atom_site_type_symbol
  _atom_site_label
  _atom_site_symmetry_multiplicity
  _atom_site_fract_x
  _atom_site_fract_y
  _atom_site_fract_z
  _atom_site_occupancy
  Cl  Cl1       1.0  0.27500  0.02690  0.00547  1.0000
  Cl  Cl2       1.0  0.48300  0.52200  0.12800  1.0000
  Cl  Cl3       1.0  0.01690  0.02180  0.37200  1.0000
  Cl  Cl4       1.0  0.22500  0.52700  0.49500  1.0000
  Cl  Cl5       1.0  0.77500  0.47300  0.50500  1.0000
  Cl  Cl6       1.0  0.98300  0.97800  0.62800  1.0000
  Cl  Cl7       1.0  0.51700  0.47800  0.87200  1.0000
  Cl  Cl8       1.0  0.72500  0.97300  0.99500  1.0000
  Hg  Hg1       1.0  0.93400  0.32400  0.14300  1.0000
  Hg  Hg2       1.0  0.02540  0.69800  0.18900  1.0000
  Hg  Hg3       1.0  0.47500  0.19800  0.31100  1.0000
  Hg  Hg4       1.0  0.56600  0.82400  0.35700  1.0000
  Hg  Hg5       1.0  0.43400  0.17600  0.64300  1.0000
  Hg  Hg6       1.0  0.52500  0.80200  0.68900  1.0000
  Hg  Hg7       1.0  0.97500  0.30200  0.81100  1.0000
  Hg  Hg8       1.0  0.06610  0.67600  0.85700  1.0000
  O   O1        1.0  0.21400  0.21800  0.05150  1.0000
  O   O2        1.0  0.24600  0.84300  0.07110  1.0000
  O   O3        1.0  0.84700  0.00399  0.10100  1.0000
  O   O4        1.0  0.57800  0.32300  0.12400  1.0000
  O   O5        1.0  0.60200  0.69500  0.15500  1.0000
  O   O6        1.0  0.38500  0.49600  0.22400  1.0000
  O   O7        1.0  0.11500  0.99600  0.27600  1.0000
  O   O8        1.0  0.89800  0.19500  0.34500  1.0000
  O   O9        1.0  0.92200  0.82300  0.37600  1.0000
  O   O10       1.0  0.65300  0.50400  0.39900  1.0000
  O   O11       1.0  0.25400  0.34300  0.42900  1.0000
  O   O12       1.0  0.28600  0.71800  0.44900  1.0000
  O   O13       1.0  0.71400  0.28200  0.55100  1.0000
  O   O14       1.0  0.74600  0.65700  0.57100  1.0000
  O   O15       1.0  0.34700  0.49600  0.60100  1.0000
  O   O16       1.0  0.07850  0.17700  0.62400  1.0000
  O   O17       1.0  0.10200  0.80500  0.65500  1.0000
  O   O18       1.0  0.88500  0.00364  0.72400  1.0000
  O   O19       1.0  0.61500  0.50400  0.77600  1.0000
  O   O20       1.0  0.39800  0.30500  0.84500  1.0000
  O   O21       1.0  0.42200  0.67700  0.87600  1.0000
  O   O22       1.0  0.15300  0.99600  0.89900  1.0000
  O   O23       1.0  0.75400  0.15700  0.92900  1.0000
  O   O24       1.0  0.78600  0.78200  0.94900  1.0000
