data_image0
_chemical_formula_structural       Cl8I4N12S16
_chemical_formula_sum              "Cl8 I4 N12 S16"
_cell_length_a       6.17346
_cell_length_b       8.80879
_cell_length_c       17.6986
_cell_angle_alpha    90
_cell_angle_beta     92.1535
_cell_angle_gamma    90

_space_group_name_H-M_alt    "P 1"
_space_group_IT_number       1

loop_
  _space_group_symop_operation_xyz
  'x, y, z'

loop_
  _atom_site_type_symbol
  _atom_site_label
  _atom_site_symmetry_multiplicity
  _atom_site_fract_x
  _atom_site_fract_y
  _atom_site_fract_z
  _atom_site_occupancy
  Cl  Cl1       1.0  0.93600  0.01230  0.10500  1.0000
  Cl  Cl2       1.0  0.51800  0.42000  0.15000  1.0000
  Cl  Cl3       1.0  0.48200  0.92000  0.35000  1.0000
  Cl  Cl4       1.0  0.06370  0.51200  0.39500  1.0000
  Cl  Cl5       1.0  0.93600  0.48800  0.60500  1.0000
  Cl  Cl6       1.0  0.51800  0.07970  0.65000  1.0000
  Cl  Cl7       1.0  0.48200  0.58000  0.85000  1.0000
  Cl  Cl8       1.0  0.06370  0.98800  0.89500  1.0000
  I   I1        1.0  0.22100  0.21000  0.12600  1.0000
  I   I2        1.0  0.77900  0.71000  0.37400  1.0000
  I   I3        1.0  0.22100  0.29000  0.62600  1.0000
  I   I4        1.0  0.77900  0.79000  0.87400  1.0000
  N   N1        1.0  0.14500  0.64600  0.03660  1.0000
  N   N2        1.0  0.46600  0.81400  0.09980  1.0000
  N   N3        1.0  0.06180  0.65400  0.18400  1.0000
  N   N4        1.0  0.93800  0.15400  0.31600  1.0000
  N   N5        1.0  0.53400  0.31400  0.40000  1.0000
  N   N6        1.0  0.85500  0.14600  0.46300  1.0000
  N   N7        1.0  0.14500  0.85400  0.53700  1.0000
  N   N8        1.0  0.46600  0.68600  0.60000  1.0000
  N   N9        1.0  0.06180  0.84600  0.68400  1.0000
  N   N10       1.0  0.93800  0.34600  0.81600  1.0000
  N   N11       1.0  0.53400  0.18600  0.90000  1.0000
  N   N12       1.0  0.85500  0.35400  0.96300  1.0000
  S   S1        1.0  0.35700  0.74400  0.02730  1.0000
  S   S2        1.0  0.99700  0.59800  0.10400  1.0000
  S   S3        1.0  0.47400  0.84800  0.18700  1.0000
  S   S4        1.0  0.21200  0.74400  0.24200  1.0000
  S   S5        1.0  0.78800  0.24400  0.25800  1.0000
  S   S6        1.0  0.52600  0.34800  0.31300  1.0000
  S   S7        1.0  0.00314  0.09780  0.39600  1.0000
  S   S8        1.0  0.64300  0.24400  0.47300  1.0000
  S   S9        1.0  0.35700  0.75600  0.52700  1.0000
  S   S10       1.0  0.99700  0.90200  0.60400  1.0000
  S   S11       1.0  0.47400  0.65200  0.68700  1.0000
  S   S12       1.0  0.21200  0.75600  0.74200  1.0000
  S   S13       1.0  0.78800  0.25600  0.75800  1.0000
  S   S14       1.0  0.52600  0.15200  0.81300  1.0000
  S   S15       1.0  0.00314  0.40200  0.89600  1.0000
  S   S16       1.0  0.64300  0.25600  0.97300  1.0000
