data_image0
_chemical_formula_structural       C8O24Rb8
_chemical_formula_sum              "C8 O24 Rb8"
_cell_length_a       7.84541
_cell_length_b       10.4933
_cell_length_c       7.39076
_cell_angle_alpha    90
_cell_angle_beta     102.973
_cell_angle_gamma    90

_space_group_name_H-M_alt    "P 1"
_space_group_IT_number       1

loop_
  _space_group_symop_operation_xyz
  'x, y, z'

loop_
  _atom_site_type_symbol
  _atom_site_label
  _atom_site_symmetry_multiplicity
  _atom_site_fract_x
  _atom_site_fract_y
  _atom_site_fract_z
  _atom_site_occupancy
  C   C1        1.0  0.96500  0.22400  0.18500  1.0000
  C   C2        1.0  0.45100  0.77900  0.19300  1.0000
  C   C3        1.0  0.54900  0.27900  0.30700  1.0000
  C   C4        1.0  0.03480  0.72400  0.31500  1.0000
  C   C5        1.0  0.96500  0.27600  0.68500  1.0000
  C   C6        1.0  0.45100  0.72100  0.69300  1.0000
  C   C7        1.0  0.54900  0.22100  0.80700  1.0000
  C   C8        1.0  0.03480  0.77600  0.81500  1.0000
  O   O1        1.0  0.07030  0.30100  0.13700  1.0000
  O   O2        1.0  0.55600  0.70200  0.14700  1.0000
  O   O3        1.0  0.96700  0.10500  0.19600  1.0000
  O   O4        1.0  0.45600  0.89700  0.21100  1.0000
  O   O5        1.0  0.31000  0.70800  0.22900  1.0000
  O   O6        1.0  0.83000  0.29500  0.23300  1.0000
  O   O7        1.0  0.17000  0.79500  0.26700  1.0000
  O   O8        1.0  0.69000  0.20800  0.27100  1.0000
  O   O9        1.0  0.54400  0.39700  0.28900  1.0000
  O   O10       1.0  0.03250  0.60500  0.30400  1.0000
  O   O11       1.0  0.44400  0.20200  0.35300  1.0000
  O   O12       1.0  0.93000  0.80100  0.36300  1.0000
  O   O13       1.0  0.07030  0.19900  0.63700  1.0000
  O   O14       1.0  0.55600  0.79800  0.64700  1.0000
  O   O15       1.0  0.96700  0.39500  0.69600  1.0000
  O   O16       1.0  0.45600  0.60300  0.71100  1.0000
  O   O17       1.0  0.31000  0.79200  0.72900  1.0000
  O   O18       1.0  0.83000  0.20500  0.73300  1.0000
  O   O19       1.0  0.17000  0.70500  0.76700  1.0000
  O   O20       1.0  0.69000  0.29200  0.77100  1.0000
  O   O21       1.0  0.54400  0.10300  0.78900  1.0000
  O   O22       1.0  0.03250  0.89500  0.80400  1.0000
  O   O23       1.0  0.44400  0.29800  0.85300  1.0000
  O   O24       1.0  0.93000  0.69900  0.86300  1.0000
  Rb  Rb1       1.0  0.74600  0.51200  0.00614  1.0000
  Rb  Rb2       1.0  0.74700  0.91300  0.00715  1.0000
  Rb  Rb3       1.0  0.25300  0.41300  0.49300  1.0000
  Rb  Rb4       1.0  0.25400  0.01190  0.49400  1.0000
  Rb  Rb5       1.0  0.74600  0.98800  0.50600  1.0000
  Rb  Rb6       1.0  0.74700  0.58700  0.50700  1.0000
  Rb  Rb7       1.0  0.25300  0.08700  0.99300  1.0000
  Rb  Rb8       1.0  0.25400  0.48800  0.99400  1.0000
