data_image0
_chemical_formula_structural       Cl8H20O10Sn2
_chemical_formula_sum              "Cl8 H20 O10 Sn2"
_cell_length_a       7.78511
_cell_length_b       7.78511
_cell_length_c       8.52018
_cell_angle_alpha    100.976
_cell_angle_beta     100.976
_cell_angle_gamma    76.7339

_space_group_name_H-M_alt    "P 1"
_space_group_IT_number       1

loop_
  _space_group_symop_operation_xyz
  'x, y, z'

loop_
  _atom_site_type_symbol
  _atom_site_label
  _atom_site_symmetry_multiplicity
  _atom_site_fract_x
  _atom_site_fract_y
  _atom_site_fract_z
  _atom_site_occupancy
  Cl  Cl1       1.0  0.79800  0.97500  0.06380  1.0000
  Cl  Cl2       1.0  0.87500  0.41100  0.09720  1.0000
  Cl  Cl3       1.0  0.58900  0.12500  0.40300  1.0000
  Cl  Cl4       1.0  0.02480  0.20200  0.43600  1.0000
  Cl  Cl5       1.0  0.97500  0.79800  0.56400  1.0000
  Cl  Cl6       1.0  0.41100  0.87500  0.59700  1.0000
  Cl  Cl7       1.0  0.12500  0.58900  0.90300  1.0000
  Cl  Cl8       1.0  0.20200  0.02480  0.93600  1.0000
  H   H1        1.0  0.53100  0.69800  0.01190  1.0000
  H   H2        1.0  0.10000  0.83800  0.15800  1.0000
  H   H3        1.0  0.38800  0.37700  0.16800  1.0000
  H   H4        1.0  0.40500  0.78800  0.22100  1.0000
  H   H5        1.0  0.57900  0.86800  0.24600  1.0000
  H   H6        1.0  0.13200  0.42100  0.25400  1.0000
  H   H7        1.0  0.21200  0.59500  0.27900  1.0000
  H   H8        1.0  0.62300  0.61200  0.33200  1.0000
  H   H9        1.0  0.16200  0.90000  0.34200  1.0000
  H   H10       1.0  0.30200  0.46900  0.48800  1.0000
  H   H11       1.0  0.69800  0.53100  0.51200  1.0000
  H   H12       1.0  0.83800  0.10000  0.65800  1.0000
  H   H13       1.0  0.37700  0.38800  0.66800  1.0000
  H   H14       1.0  0.78800  0.40500  0.72100  1.0000
  H   H15       1.0  0.86800  0.57900  0.74600  1.0000
  H   H16       1.0  0.42100  0.13200  0.75400  1.0000
  H   H17       1.0  0.59500  0.21200  0.77900  1.0000
  H   H18       1.0  0.61200  0.62300  0.83200  1.0000
  H   H19       1.0  0.90000  0.16200  0.84200  1.0000
  H   H20       1.0  0.46900  0.30200  0.98800  1.0000
  O   O1        1.0  0.49500  0.34300  0.10900  1.0000
  O   O2        1.0  0.53400  0.75600  0.20600  1.0000
  O   O3        1.0  0.19300  0.80700  0.25000  1.0000
  O   O4        1.0  0.24400  0.46600  0.29400  1.0000
  O   O5        1.0  0.65700  0.50500  0.39100  1.0000
  O   O6        1.0  0.34300  0.49500  0.60900  1.0000
  O   O7        1.0  0.75600  0.53400  0.70600  1.0000
  O   O8        1.0  0.80700  0.19300  0.75000  1.0000
  O   O9        1.0  0.46600  0.24400  0.79400  1.0000
  O   O10       1.0  0.50500  0.65700  0.89100  1.0000
  Sn  Sn1       1.0  0.74700  0.25300  0.25000  1.0000
  Sn  Sn2       1.0  0.25300  0.74700  0.75000  1.0000
