data_image0
_chemical_formula_structural       Ag26O12Os2
_chemical_formula_sum              "Ag26 O12 Os2"
_cell_length_a       9.39878
_cell_length_b       9.39878
_cell_length_c       9.39878
_cell_angle_alpha    120
_cell_angle_beta     90
_cell_angle_gamma    120

_space_group_name_H-M_alt    "P 1"
_space_group_IT_number       1

loop_
  _space_group_symop_operation_xyz
  'x, y, z'

loop_
  _atom_site_type_symbol
  _atom_site_label
  _atom_site_symmetry_multiplicity
  _atom_site_fract_x
  _atom_site_fract_y
  _atom_site_fract_z
  _atom_site_occupancy
  Ag  Ag1       1.0  0.00000  0.00000  0.00000  1.0000
  Ag  Ag2       1.0  0.70800  0.77200  0.06430  1.0000
  Ag  Ag3       1.0  0.29200  0.00000  0.06430  1.0000
  Ag  Ag4       1.0  0.06430  0.35700  0.06430  1.0000
  Ag  Ag5       1.0  0.56400  0.00000  0.20800  1.0000
  Ag  Ag6       1.0  0.20800  0.77200  0.20800  1.0000
  Ag  Ag7       1.0  0.43600  0.64300  0.20800  1.0000
  Ag  Ag8       1.0  0.06430  0.00000  0.29200  1.0000
  Ag  Ag9       1.0  0.93600  0.22800  0.29200  1.0000
  Ag  Ag10      1.0  0.29200  0.35700  0.29200  1.0000
  Ag  Ag11      1.0  0.43600  0.22800  0.43600  1.0000
  Ag  Ag12      1.0  0.20800  0.64300  0.43600  1.0000
  Ag  Ag13      1.0  0.79200  0.00000  0.43600  1.0000
  Ag  Ag14      1.0  0.50000  0.00000  0.50000  1.0000
  Ag  Ag15      1.0  0.20800  0.00000  0.56400  1.0000
  Ag  Ag16      1.0  0.79200  0.35700  0.56400  1.0000
  Ag  Ag17      1.0  0.56400  0.77200  0.56400  1.0000
  Ag  Ag18      1.0  0.70800  0.64300  0.70800  1.0000
  Ag  Ag19      1.0  0.06430  0.77200  0.70800  1.0000
  Ag  Ag20      1.0  0.93600  0.00000  0.70800  1.0000
  Ag  Ag21      1.0  0.79200  0.22800  0.79200  1.0000
  Ag  Ag22      1.0  0.56400  0.35700  0.79200  1.0000
  Ag  Ag23      1.0  0.43600  0.00000  0.79200  1.0000
  Ag  Ag24      1.0  0.29200  0.22800  0.93600  1.0000
  Ag  Ag25      1.0  0.93600  0.64300  0.93600  1.0000
  Ag  Ag26      1.0  0.70800  0.00000  0.93600  1.0000
  O   O1        1.0  0.60600  0.21200  0.10600  1.0000
  O   O2        1.0  0.60600  0.50000  0.10600  1.0000
  O   O3        1.0  0.89400  0.50000  0.10600  1.0000
  O   O4        1.0  0.60600  0.50000  0.39400  1.0000
  O   O5        1.0  0.89400  0.50000  0.39400  1.0000
  O   O6        1.0  0.89400  0.78800  0.39400  1.0000
  O   O7        1.0  0.10600  0.21200  0.60600  1.0000
  O   O8        1.0  0.10600  0.50000  0.60600  1.0000
  O   O9        1.0  0.39400  0.50000  0.60600  1.0000
  O   O10       1.0  0.10600  0.50000  0.89400  1.0000
  O   O11       1.0  0.39400  0.50000  0.89400  1.0000
  O   O12       1.0  0.39400  0.78800  0.89400  1.0000
  Os  Os1       1.0  0.75000  0.50000  0.25000  1.0000
  Os  Os2       1.0  0.25000  0.50000  0.75000  1.0000
