data_image0
_chemical_formula_structural       As4N36
_chemical_formula_sum              "As4 N36"
_cell_length_a       7.05619
_cell_length_b       11.2389
_cell_length_c       6.71472
_cell_angle_alpha    90
_cell_angle_beta     107.524
_cell_angle_gamma    90

_space_group_name_H-M_alt    "P 1"
_space_group_IT_number       1

loop_
  _space_group_symop_operation_xyz
  'x, y, z'

loop_
  _atom_site_type_symbol
  _atom_site_label
  _atom_site_symmetry_multiplicity
  _atom_site_fract_x
  _atom_site_fract_y
  _atom_site_fract_z
  _atom_site_occupancy
  As  As1       1.0  0.29000  0.04730  0.13300  1.0000
  As  As2       1.0  0.71000  0.54700  0.36700  1.0000
  As  As3       1.0  0.29000  0.45300  0.63300  1.0000
  As  As4       1.0  0.71000  0.95300  0.86700  1.0000
  N   N1        1.0  0.52700  0.32700  0.01740  1.0000
  N   N2        1.0  0.50700  0.22500  0.02150  1.0000
  N   N3        1.0  0.49500  0.11700  0.02260  1.0000
  N   N4        1.0  0.02100  0.22500  0.02270  1.0000
  N   N5        1.0  0.22100  0.47900  0.06510  1.0000
  N   N6        1.0  0.12500  0.74700  0.10000  1.0000
  N   N7        1.0  0.89800  0.98500  0.14000  1.0000
  N   N8        1.0  0.17500  0.20100  0.15900  1.0000
  N   N9        1.0  0.16800  0.48100  0.21100  1.0000
  N   N10       1.0  0.83200  0.98100  0.28900  1.0000
  N   N11       1.0  0.82500  0.70100  0.34100  1.0000
  N   N12       1.0  0.10200  0.48500  0.36000  1.0000
  N   N13       1.0  0.87500  0.24700  0.40000  1.0000
  N   N14       1.0  0.77900  0.97900  0.43500  1.0000
  N   N15       1.0  0.97900  0.72500  0.47700  1.0000
  N   N16       1.0  0.50500  0.61700  0.47700  1.0000
  N   N17       1.0  0.49300  0.72500  0.47900  1.0000
  N   N18       1.0  0.47300  0.82700  0.48300  1.0000
  N   N19       1.0  0.52700  0.17300  0.51700  1.0000
  N   N20       1.0  0.50700  0.27500  0.52100  1.0000
  N   N21       1.0  0.49500  0.38300  0.52300  1.0000
  N   N22       1.0  0.02100  0.27500  0.52300  1.0000
  N   N23       1.0  0.22100  0.02120  0.56500  1.0000
  N   N24       1.0  0.12500  0.75300  0.60000  1.0000
  N   N25       1.0  0.89800  0.51500  0.64000  1.0000
  N   N26       1.0  0.17500  0.29900  0.65900  1.0000
  N   N27       1.0  0.16800  0.01890  0.71100  1.0000
  N   N28       1.0  0.83200  0.51900  0.78900  1.0000
  N   N29       1.0  0.82500  0.79900  0.84100  1.0000
  N   N30       1.0  0.10200  0.01460  0.86000  1.0000
  N   N31       1.0  0.87500  0.25300  0.90000  1.0000
  N   N32       1.0  0.77900  0.52100  0.93500  1.0000
  N   N33       1.0  0.97900  0.77500  0.97700  1.0000
  N   N34       1.0  0.50500  0.88300  0.97700  1.0000
  N   N35       1.0  0.49300  0.77500  0.97900  1.0000
  N   N36       1.0  0.47300  0.67300  0.98300  1.0000
