data_image0
_chemical_formula_structural       B6Ce2O12
_chemical_formula_sum              "B6 Ce2 O12"
_cell_length_a       6.38328
_cell_length_b       6.38328
_cell_length_c       6.40318
_cell_angle_alpha    117.226
_cell_angle_beta     62.7737
_cell_angle_gamma    100.742

_space_group_name_H-M_alt    "P 1"
_space_group_IT_number       1

loop_
  _space_group_symop_operation_xyz
  'x, y, z'

loop_
  _atom_site_type_symbol
  _atom_site_label
  _atom_site_symmetry_multiplicity
  _atom_site_fract_x
  _atom_site_fract_y
  _atom_site_fract_z
  _atom_site_occupancy
  B   B1        1.0  0.20700  0.65700  0.08250  1.0000
  B   B2        1.0  0.77900  0.77900  0.25000  1.0000
  B   B3        1.0  0.65700  0.20700  0.41800  1.0000
  B   B4        1.0  0.34300  0.79300  0.58200  1.0000
  B   B5        1.0  0.22100  0.22100  0.75000  1.0000
  B   B6        1.0  0.79300  0.34300  0.91800  1.0000
  Ce  Ce1       1.0  0.19600  0.19600  0.25000  1.0000
  Ce  Ce2       1.0  0.80400  0.80400  0.75000  1.0000
  O   O1        1.0  0.61300  0.21500  0.00229  1.0000
  O   O2        1.0  0.79100  0.58700  0.00797  1.0000
  O   O3        1.0  0.78200  0.99400  0.21300  1.0000
  O   O4        1.0  0.99400  0.78200  0.28700  1.0000
  O   O5        1.0  0.58700  0.79100  0.49200  1.0000
  O   O6        1.0  0.21500  0.61300  0.49800  1.0000
  O   O7        1.0  0.78500  0.38700  0.50200  1.0000
  O   O8        1.0  0.41300  0.20900  0.50800  1.0000
  O   O9        1.0  0.00577  0.21800  0.71300  1.0000
  O   O10       1.0  0.21800  0.00576  0.78700  1.0000
  O   O11       1.0  0.20900  0.41300  0.99200  1.0000
  O   O12       1.0  0.38700  0.78500  0.99800  1.0000
