data_image0
_chemical_formula_structural       Al4Te6
_chemical_formula_sum              "Al4 Te6"
_cell_length_a       7.06094
_cell_length_b       7.06094
_cell_length_c       7.55989
_cell_angle_alpha    117.84
_cell_angle_beta     62.1602
_cell_angle_gamma    120

_space_group_name_H-M_alt    "P 1"
_space_group_IT_number       1

loop_
  _space_group_symop_operation_xyz
  'x, y, z'

loop_
  _atom_site_type_symbol
  _atom_site_label
  _atom_site_symmetry_multiplicity
  _atom_site_fract_x
  _atom_site_fract_y
  _atom_site_fract_z
  _atom_site_occupancy
  Al  Al1       1.0  0.65100  0.34900  0.04560  1.0000
  Al  Al2       1.0  0.84900  0.15100  0.45400  1.0000
  Al  Al3       1.0  0.15100  0.84900  0.54600  1.0000
  Al  Al4       1.0  0.34900  0.65100  0.95400  1.0000
  Te  Te1       1.0  0.55400  0.75000  0.25000  1.0000
  Te  Te2       1.0  0.94600  0.44600  0.25000  1.0000
  Te  Te3       1.0  0.25000  0.05410  0.25000  1.0000
  Te  Te4       1.0  0.75000  0.94600  0.75000  1.0000
  Te  Te5       1.0  0.05410  0.55400  0.75000  1.0000
  Te  Te6       1.0  0.44600  0.25000  0.75000  1.0000
