data_image0
_chemical_formula_structural       Cl2NSc2
_chemical_formula_sum              "Cl2 N1 Sc2"
_cell_length_a       3.35869
_cell_length_b       3.35862
_cell_length_c       8.8578
_cell_angle_alpha    89.9995
_cell_angle_beta     90
_cell_angle_gamma    120.001

_space_group_name_H-M_alt    "P 1"
_space_group_IT_number       1

loop_
  _space_group_symop_operation_xyz
  'x, y, z'

loop_
  _atom_site_type_symbol
  _atom_site_label
  _atom_site_symmetry_multiplicity
  _atom_site_fract_x
  _atom_site_fract_y
  _atom_site_fract_z
  _atom_site_occupancy
  Cl  Cl1       1.0  0.66700  0.33300  0.17600  1.0000
  Cl  Cl2       1.0  0.33300  0.66700  0.82400  1.0000
  N   N1        1.0  0.00000  0.00000  0.50000  1.0000
  Sc  Sc1       1.0  0.33300  0.66700  0.36600  1.0000
  Sc  Sc2       1.0  0.66700  0.33300  0.63400  1.0000
