data_image0
_chemical_formula_structural       Mo4O24Rb8Se4
_chemical_formula_sum              "Mo4 O24 Rb8 Se4"
_cell_length_a       7.73506
_cell_length_b       6.13905
_cell_length_c       14.2687
_cell_angle_alpha    90
_cell_angle_beta     90
_cell_angle_gamma    90

_space_group_name_H-M_alt    "P 1"
_space_group_IT_number       1

loop_
  _space_group_symop_operation_xyz
  'x, y, z'

loop_
  _atom_site_type_symbol
  _atom_site_label
  _atom_site_symmetry_multiplicity
  _atom_site_fract_x
  _atom_site_fract_y
  _atom_site_fract_z
  _atom_site_occupancy
  Mo  Mo1       1.0  0.40300  0.25000  0.22900  1.0000
  Mo  Mo2       1.0  0.90300  0.25000  0.27100  1.0000
  Mo  Mo3       1.0  0.09700  0.75000  0.72900  1.0000
  Mo  Mo4       1.0  0.59700  0.75000  0.77100  1.0000
  O   O1        1.0  0.25900  0.75000  0.00743  1.0000
  O   O2        1.0  0.88700  0.04200  0.14300  1.0000
  O   O3        1.0  0.88700  0.45800  0.14300  1.0000
  O   O4        1.0  0.45500  0.02120  0.16100  1.0000
  O   O5        1.0  0.45500  0.47900  0.16100  1.0000
  O   O6        1.0  0.16900  0.25000  0.22100  1.0000
  O   O7        1.0  0.66900  0.25000  0.27900  1.0000
  O   O8        1.0  0.95500  0.02120  0.33900  1.0000
  O   O9        1.0  0.95500  0.47900  0.33900  1.0000
  O   O10       1.0  0.38700  0.04200  0.35700  1.0000
  O   O11       1.0  0.38700  0.45800  0.35700  1.0000
  O   O12       1.0  0.75900  0.75000  0.49300  1.0000
  O   O13       1.0  0.24100  0.25000  0.50700  1.0000
  O   O14       1.0  0.61300  0.54200  0.64300  1.0000
  O   O15       1.0  0.61300  0.95800  0.64300  1.0000
  O   O16       1.0  0.04470  0.52100  0.66100  1.0000
  O   O17       1.0  0.04470  0.97900  0.66100  1.0000
  O   O18       1.0  0.33100  0.75000  0.72100  1.0000
  O   O19       1.0  0.83100  0.75000  0.77900  1.0000
  O   O20       1.0  0.54500  0.52100  0.83900  1.0000
  O   O21       1.0  0.54500  0.97900  0.83900  1.0000
  O   O22       1.0  0.11300  0.54200  0.85700  1.0000
  O   O23       1.0  0.11300  0.95800  0.85700  1.0000
  O   O24       1.0  0.74100  0.25000  0.99300  1.0000
  Rb  Rb1       1.0  0.63300  0.75000  0.02990  1.0000
  Rb  Rb2       1.0  0.15900  0.75000  0.20300  1.0000
  Rb  Rb3       1.0  0.65900  0.75000  0.29700  1.0000
  Rb  Rb4       1.0  0.13300  0.75000  0.47000  1.0000
  Rb  Rb5       1.0  0.86700  0.25000  0.53000  1.0000
  Rb  Rb6       1.0  0.34100  0.25000  0.70300  1.0000
  Rb  Rb7       1.0  0.84100  0.25000  0.79700  1.0000
  Rb  Rb8       1.0  0.36700  0.25000  0.97000  1.0000
  Se  Se1       1.0  0.91800  0.25000  0.06020  1.0000
  Se  Se2       1.0  0.41800  0.25000  0.44000  1.0000
  Se  Se3       1.0  0.58200  0.75000  0.56000  1.0000
  Se  Se4       1.0  0.08170  0.75000  0.94000  1.0000
