data_image0
_chemical_formula_structural       K8Mo4O24Se4
_chemical_formula_sum              "K8 Mo4 O24 Se4"
_cell_length_a       6.00769
_cell_length_b       15.3081
_cell_length_c       7.48661
_cell_angle_alpha    90
_cell_angle_beta     111.936
_cell_angle_gamma    90

_space_group_name_H-M_alt    "P 1"
_space_group_IT_number       1

loop_
  _space_group_symop_operation_xyz
  'x, y, z'

loop_
  _atom_site_type_symbol
  _atom_site_label
  _atom_site_symmetry_multiplicity
  _atom_site_fract_x
  _atom_site_fract_y
  _atom_site_fract_z
  _atom_site_occupancy
  K   K1        1.0  0.35900  0.69900  0.11300  1.0000
  K   K2        1.0  0.88600  0.55600  0.18700  1.0000
  K   K3        1.0  0.11400  0.05640  0.31300  1.0000
  K   K4        1.0  0.64100  0.19900  0.38700  1.0000
  K   K5        1.0  0.35900  0.80100  0.61300  1.0000
  K   K6        1.0  0.88600  0.94400  0.68700  1.0000
  K   K7        1.0  0.11400  0.44400  0.81300  1.0000
  K   K8        1.0  0.64100  0.30100  0.88700  1.0000
  Mo  Mo1       1.0  0.53900  0.93700  0.18700  1.0000
  Mo  Mo2       1.0  0.46100  0.43700  0.31300  1.0000
  Mo  Mo3       1.0  0.53900  0.56300  0.68700  1.0000
  Mo  Mo4       1.0  0.46100  0.06270  0.81300  1.0000
  O   O1        1.0  0.59700  0.83700  0.00182  1.0000
  O   O2        1.0  0.71900  0.01950  0.00799  1.0000
  O   O3        1.0  0.37200  0.52400  0.14600  1.0000
  O   O4        1.0  0.09560  0.39600  0.19300  1.0000
  O   O5        1.0  0.58700  0.36100  0.20200  1.0000
  O   O6        1.0  0.95500  0.72700  0.22700  1.0000
  O   O7        1.0  0.04540  0.22700  0.27300  1.0000
  O   O8        1.0  0.41300  0.86100  0.29800  1.0000
  O   O9        1.0  0.90400  0.89600  0.30700  1.0000
  O   O10       1.0  0.62800  0.02410  0.35400  1.0000
  O   O11       1.0  0.28100  0.51900  0.49200  1.0000
  O   O12       1.0  0.40300  0.33700  0.49800  1.0000
  O   O13       1.0  0.59700  0.66300  0.50200  1.0000
  O   O14       1.0  0.71900  0.48100  0.50800  1.0000
  O   O15       1.0  0.37200  0.97600  0.64600  1.0000
  O   O16       1.0  0.09560  0.10400  0.69300  1.0000
  O   O17       1.0  0.58700  0.13900  0.70200  1.0000
  O   O18       1.0  0.95500  0.77300  0.72700  1.0000
  O   O19       1.0  0.04540  0.27300  0.77300  1.0000
  O   O20       1.0  0.41300  0.63900  0.79800  1.0000
  O   O21       1.0  0.90400  0.60400  0.80700  1.0000
  O   O22       1.0  0.62800  0.47600  0.85400  1.0000
  O   O23       1.0  0.28100  0.98100  0.99200  1.0000
  O   O24       1.0  0.40300  0.16300  0.99800  1.0000
  Se  Se1       1.0  0.91000  0.82600  0.12100  1.0000
  Se  Se2       1.0  0.08990  0.32600  0.37900  1.0000
  Se  Se3       1.0  0.91000  0.67400  0.62100  1.0000
  Se  Se4       1.0  0.08990  0.17400  0.87900  1.0000
