data_image0
_chemical_formula_structural       F2Gd6O24Se8
_chemical_formula_sum              "F2 Gd6 O24 Se8"
_cell_length_a       10.3334
_cell_length_b       10.3335
_cell_length_c       6.83937
_cell_angle_alpha    90
_cell_angle_beta     90
_cell_angle_gamma    120

_space_group_name_H-M_alt    "P 1"
_space_group_IT_number       1

loop_
  _space_group_symop_operation_xyz
  'x, y, z'

loop_
  _atom_site_type_symbol
  _atom_site_label
  _atom_site_symmetry_multiplicity
  _atom_site_fract_x
  _atom_site_fract_y
  _atom_site_fract_z
  _atom_site_occupancy
  F   F1        1.0  0.33300  0.66700  0.46800  1.0000
  F   F2        1.0  0.66700  0.33300  0.96800  1.0000
  Gd  Gd1       1.0  0.07530  0.53800  0.41800  1.0000
  Gd  Gd2       1.0  0.46200  0.53800  0.41800  1.0000
  Gd  Gd3       1.0  0.46200  0.92500  0.41800  1.0000
  Gd  Gd4       1.0  0.53800  0.46200  0.91800  1.0000
  Gd  Gd5       1.0  0.92500  0.46200  0.91800  1.0000
  Gd  Gd6       1.0  0.53800  0.07530  0.91800  1.0000
  O   O1        1.0  0.16200  0.58100  0.09180  1.0000
  O   O2        1.0  0.41900  0.58100  0.09180  1.0000
  O   O3        1.0  0.41900  0.83800  0.09180  1.0000
  O   O4        1.0  0.41400  0.07980  0.22100  1.0000
  O   O5        1.0  0.66600  0.07980  0.22100  1.0000
  O   O6        1.0  0.66600  0.58600  0.22100  1.0000
  O   O7        1.0  0.92000  0.58600  0.22100  1.0000
  O   O8        1.0  0.41400  0.33400  0.22100  1.0000
  O   O9        1.0  0.92000  0.33400  0.22100  1.0000
  O   O10       1.0  0.17900  0.35700  0.40800  1.0000
  O   O11       1.0  0.17900  0.82100  0.40800  1.0000
  O   O12       1.0  0.64300  0.82100  0.40800  1.0000
  O   O13       1.0  0.58100  0.41900  0.59200  1.0000
  O   O14       1.0  0.83800  0.41900  0.59200  1.0000
  O   O15       1.0  0.58100  0.16200  0.59200  1.0000
  O   O16       1.0  0.33400  0.92000  0.72100  1.0000
  O   O17       1.0  0.58600  0.92000  0.72100  1.0000
  O   O18       1.0  0.07980  0.41400  0.72100  1.0000
  O   O19       1.0  0.33400  0.41400  0.72100  1.0000
  O   O20       1.0  0.07980  0.66600  0.72100  1.0000
  O   O21       1.0  0.58600  0.66600  0.72100  1.0000
  O   O22       1.0  0.82100  0.64300  0.90800  1.0000
  O   O23       1.0  0.35700  0.17900  0.90800  1.0000
  O   O24       1.0  0.82100  0.17900  0.90800  1.0000
  Se  Se1       1.0  0.30300  0.15200  0.14900  1.0000
  Se  Se2       1.0  0.84800  0.15200  0.14900  1.0000
  Se  Se3       1.0  0.84800  0.69700  0.14900  1.0000
  Se  Se4       1.0  0.66700  0.33300  0.47500  1.0000
  Se  Se5       1.0  0.15200  0.84800  0.64900  1.0000
  Se  Se6       1.0  0.69700  0.84800  0.64900  1.0000
  Se  Se7       1.0  0.15200  0.30300  0.64900  1.0000
  Se  Se8       1.0  0.33300  0.66700  0.97500  1.0000
