data_image0
_chemical_formula_structural       C4Co8H8O20
_chemical_formula_sum              "C4 Co8 H8 O20"
_cell_length_a       9.26687
_cell_length_b       12.1622
_cell_length_c       3.05906
_cell_angle_alpha    90
_cell_angle_beta     90.7259
_cell_angle_gamma    90

_space_group_name_H-M_alt    "P 1"
_space_group_IT_number       1

loop_
  _space_group_symop_operation_xyz
  'x, y, z'

loop_
  _atom_site_type_symbol
  _atom_site_label
  _atom_site_symmetry_multiplicity
  _atom_site_fract_x
  _atom_site_fract_y
  _atom_site_fract_z
  _atom_site_occupancy
  C   C1        1.0  0.27100  0.14600  0.06810  1.0000
  C   C2        1.0  0.77100  0.35400  0.06810  1.0000
  C   C3        1.0  0.22900  0.64600  0.93200  1.0000
  C   C4        1.0  0.72900  0.85400  0.93200  1.0000
  Co  Co1       1.0  0.72800  0.10200  0.14400  1.0000
  Co  Co2       1.0  0.22800  0.39800  0.14400  1.0000
  Co  Co3       1.0  0.00146  0.79000  0.34700  1.0000
  Co  Co4       1.0  0.50100  0.71000  0.34700  1.0000
  Co  Co5       1.0  0.99900  0.21000  0.65300  1.0000
  Co  Co6       1.0  0.49900  0.29000  0.65300  1.0000
  Co  Co7       1.0  0.77200  0.60200  0.85600  1.0000
  Co  Co8       1.0  0.27200  0.89800  0.85600  1.0000
  H   H1        1.0  0.99900  0.59500  0.30900  1.0000
  H   H2        1.0  0.49900  0.90500  0.30900  1.0000
  H   H3        1.0  0.09620  0.00000  0.30900  1.0000
  H   H4        1.0  0.59600  0.50000  0.30900  1.0000
  H   H5        1.0  0.40400  0.50000  0.69100  1.0000
  H   H6        1.0  0.90400  0.00000  0.69100  1.0000
  H   H7        1.0  0.50100  0.09530  0.69100  1.0000
  H   H8        1.0  0.00145  0.40500  0.69100  1.0000
  O   O1        1.0  0.66400  0.93500  0.09320  1.0000
  O   O2        1.0  0.16400  0.56500  0.09320  1.0000
  O   O3        1.0  0.33900  0.24000  0.13400  1.0000
  O   O4        1.0  0.83900  0.26000  0.13400  1.0000
  O   O5        1.0  0.63200  0.35800  0.15800  1.0000
  O   O6        1.0  0.13200  0.14200  0.15800  1.0000
  O   O7        1.0  0.62500  0.57700  0.35500  1.0000
  O   O8        1.0  0.12500  0.92300  0.35500  1.0000
  O   O9        1.0  0.41200  0.85900  0.36000  1.0000
  O   O10       1.0  0.91200  0.64100  0.36000  1.0000
  O   O11       1.0  0.08830  0.35900  0.64000  1.0000
  O   O12       1.0  0.58800  0.14100  0.64000  1.0000
  O   O13       1.0  0.87500  0.07710  0.64500  1.0000
  O   O14       1.0  0.37500  0.42300  0.64500  1.0000
  O   O15       1.0  0.86800  0.85800  0.84200  1.0000
  O   O16       1.0  0.36800  0.64200  0.84200  1.0000
  O   O17       1.0  0.16100  0.74000  0.86600  1.0000
  O   O18       1.0  0.66100  0.76000  0.86600  1.0000
  O   O19       1.0  0.83600  0.43500  0.90700  1.0000
  O   O20       1.0  0.33600  0.06470  0.90700  1.0000
