data_image0
_chemical_formula_structural       Na16O20Se4
_chemical_formula_sum              "Na16 O20 Se4"
_cell_length_a       9.80537
_cell_length_b       9.81145
_cell_length_c       5.54186
_cell_angle_alpha    96.3138
_cell_angle_beta     96.0608
_cell_angle_gamma    113.406

_space_group_name_H-M_alt    "P 1"
_space_group_IT_number       1

loop_
  _space_group_symop_operation_xyz
  'x, y, z'

loop_
  _atom_site_type_symbol
  _atom_site_label
  _atom_site_symmetry_multiplicity
  _atom_site_fract_x
  _atom_site_fract_y
  _atom_site_fract_z
  _atom_site_occupancy
  Na  Na1       1.0  0.00000  0.00000  0.00000  1.0000
  Na  Na2       1.0  0.39900  0.60200  0.00067  1.0000
  Na  Na3       1.0  0.81000  0.19600  0.00796  1.0000
  Na  Na4       1.0  0.54800  0.93500  0.23300  1.0000
  Na  Na5       1.0  0.93900  0.54000  0.24000  1.0000
  Na  Na6       1.0  0.35700  0.15300  0.27100  1.0000
  Na  Na7       1.0  0.16100  0.36200  0.27900  1.0000
  Na  Na8       1.0  0.90100  0.09630  0.49500  1.0000
  Na  Na9       1.0  0.50000  0.50000  0.50000  1.0000
  Na  Na10      1.0  0.09870  0.90400  0.50500  1.0000
  Na  Na11      1.0  0.83900  0.63800  0.72100  1.0000
  Na  Na12      1.0  0.64300  0.84700  0.72900  1.0000
  Na  Na13      1.0  0.06080  0.46000  0.76000  1.0000
  Na  Na14      1.0  0.45200  0.06490  0.76700  1.0000
  Na  Na15      1.0  0.19000  0.80400  0.99200  1.0000
  Na  Na16      1.0  0.60100  0.39800  0.99900  1.0000
  O   O1        1.0  0.35200  0.34400  0.05820  1.0000
  O   O2        1.0  0.94900  0.77200  0.11700  1.0000
  O   O3        1.0  0.77300  0.92900  0.13300  1.0000
  O   O4        1.0  0.18900  0.60200  0.20300  1.0000
  O   O5        1.0  0.60800  0.19100  0.20400  1.0000
  O   O6        1.0  0.72700  0.58200  0.32700  1.0000
  O   O7        1.0  0.31900  0.90100  0.38200  1.0000
  O   O8        1.0  0.88100  0.31800  0.40100  1.0000
  O   O9        1.0  0.45500  0.70800  0.41000  1.0000
  O   O10       1.0  0.15600  0.15100  0.47300  1.0000
  O   O11       1.0  0.84400  0.84900  0.52700  1.0000
  O   O12       1.0  0.54500  0.29200  0.59000  1.0000
  O   O13       1.0  0.11900  0.68200  0.59900  1.0000
  O   O14       1.0  0.68100  0.09870  0.61800  1.0000
  O   O15       1.0  0.27300  0.41800  0.67300  1.0000
  O   O16       1.0  0.39200  0.80900  0.79600  1.0000
  O   O17       1.0  0.81100  0.39800  0.79700  1.0000
  O   O18       1.0  0.22700  0.07120  0.86700  1.0000
  O   O19       1.0  0.05140  0.22800  0.88300  1.0000
  O   O20       1.0  0.64800  0.65600  0.94200  1.0000
  Se  Se1       1.0  0.77900  0.75500  0.21300  1.0000
  Se  Se2       1.0  0.29400  0.73300  0.48300  1.0000
  Se  Se3       1.0  0.70600  0.26700  0.51700  1.0000
  Se  Se4       1.0  0.22100  0.24500  0.78700  1.0000
