data_image0
_chemical_formula_structural       Cd24N16
_chemical_formula_sum              "Cd24 N16"
_cell_length_a       9.44464
_cell_length_b       9.44464
_cell_length_c       9.44464
_cell_angle_alpha    109.471
_cell_angle_beta     109.471
_cell_angle_gamma    109.471

_space_group_name_H-M_alt    "P 1"
_space_group_IT_number       1

loop_
  _space_group_symop_operation_xyz
  'x, y, z'

loop_
  _atom_site_type_symbol
  _atom_site_label
  _atom_site_symmetry_multiplicity
  _atom_site_fract_x
  _atom_site_fract_y
  _atom_site_fract_z
  _atom_site_occupancy
  Cd  Cd1       1.0  0.46900  0.24400  0.02200  1.0000
  Cd  Cd2       1.0  0.05310  0.77500  0.03110  1.0000
  Cd  Cd3       1.0  0.27500  0.53100  0.05310  1.0000
  Cd  Cd4       1.0  0.44700  0.97800  0.22200  1.0000
  Cd  Cd5       1.0  0.27800  0.25600  0.22500  1.0000
  Cd  Cd6       1.0  0.77500  0.22200  0.24400  1.0000
  Cd  Cd7       1.0  0.97800  0.03110  0.25600  1.0000
  Cd  Cd8       1.0  0.03110  0.55300  0.27500  1.0000
  Cd  Cd9       1.0  0.75600  0.72500  0.27800  1.0000
  Cd  Cd10      1.0  0.47800  0.72200  0.44700  1.0000
  Cd  Cd11      1.0  0.74400  0.52200  0.46900  1.0000
  Cd  Cd12      1.0  0.22200  0.94700  0.47800  1.0000
  Cd  Cd13      1.0  0.77800  0.05310  0.52200  1.0000
  Cd  Cd14      1.0  0.25600  0.47800  0.53100  1.0000
  Cd  Cd15      1.0  0.52200  0.27800  0.55300  1.0000
  Cd  Cd16      1.0  0.24400  0.27500  0.72200  1.0000
  Cd  Cd17      1.0  0.96900  0.44700  0.72500  1.0000
  Cd  Cd18      1.0  0.02200  0.96900  0.74400  1.0000
  Cd  Cd19      1.0  0.22500  0.77800  0.75600  1.0000
  Cd  Cd20      1.0  0.72200  0.74400  0.77500  1.0000
  Cd  Cd21      1.0  0.55300  0.02200  0.77800  1.0000
  Cd  Cd22      1.0  0.72500  0.46900  0.94700  1.0000
  Cd  Cd23      1.0  0.94700  0.22500  0.96900  1.0000
  Cd  Cd24      1.0  0.53100  0.75600  0.97800  1.0000
  N   N1        1.0  0.50000  0.00000  0.00000  1.0000
  N   N2        1.0  0.00000  0.50000  0.00000  1.0000
  N   N3        1.0  0.77900  0.75000  0.02890  1.0000
  N   N4        1.0  0.75000  0.47100  0.22100  1.0000
  N   N5        1.0  0.02890  0.27900  0.25000  1.0000
  N   N6        1.0  0.52900  0.77900  0.25000  1.0000
  N   N7        1.0  0.25000  0.02890  0.27900  1.0000
  N   N8        1.0  0.72100  0.25000  0.47100  1.0000
  N   N9        1.0  0.00000  0.00000  0.50000  1.0000
  N   N10       1.0  0.50000  0.50000  0.50000  1.0000
  N   N11       1.0  0.27900  0.75000  0.52900  1.0000
  N   N12       1.0  0.75000  0.97100  0.72100  1.0000
  N   N13       1.0  0.47100  0.22100  0.75000  1.0000
  N   N14       1.0  0.97100  0.72100  0.75000  1.0000
  N   N15       1.0  0.25000  0.52900  0.77900  1.0000
  N   N16       1.0  0.22100  0.25000  0.97100  1.0000
