data_image0
_chemical_formula_structural       Cu4Eu8K4S24
_chemical_formula_sum              "Cu4 Eu8 K4 S24"
_cell_length_a       7.22241
_cell_length_b       7.22241
_cell_length_c       19.3063
_cell_angle_alpha    97.9399
_cell_angle_beta     97.9399
_cell_angle_gamma    105.159

_space_group_name_H-M_alt    "P 1"
_space_group_IT_number       1

loop_
  _space_group_symop_operation_xyz
  'x, y, z'

loop_
  _atom_site_type_symbol
  _atom_site_label
  _atom_site_symmetry_multiplicity
  _atom_site_fract_x
  _atom_site_fract_y
  _atom_site_fract_z
  _atom_site_occupancy
  Cu  Cu1       1.0  0.54000  0.29000  0.08070  1.0000
  Cu  Cu2       1.0  0.21000  0.96000  0.41900  1.0000
  Cu  Cu3       1.0  0.79000  0.04040  0.58100  1.0000
  Cu  Cu4       1.0  0.46000  0.71000  0.91900  1.0000
  Eu  Eu1       1.0  0.02820  0.27800  0.05640  1.0000
  Eu  Eu2       1.0  0.53800  0.78800  0.07650  1.0000
  Eu  Eu3       1.0  0.71200  0.96200  0.42300  1.0000
  Eu  Eu4       1.0  0.22200  0.47200  0.44400  1.0000
  Eu  Eu5       1.0  0.77800  0.52800  0.55600  1.0000
  Eu  Eu6       1.0  0.28800  0.03830  0.57700  1.0000
  Eu  Eu7       1.0  0.46200  0.21200  0.92300  1.0000
  Eu  Eu8       1.0  0.97200  0.72200  0.94400  1.0000
  K   K1        1.0  0.37200  0.12800  0.25000  1.0000
  K   K2        1.0  0.87800  0.62200  0.25000  1.0000
  K   K3        1.0  0.12200  0.37800  0.75000  1.0000
  K   K4        1.0  0.62800  0.87200  0.75000  1.0000
  S   S1        1.0  0.28200  0.03250  0.03890  1.0000
  S   S2        1.0  0.75700  0.50600  0.03890  1.0000
  S   S3        1.0  0.92100  0.02010  0.16400  1.0000
  S   S4        1.0  0.24300  0.64400  0.16400  1.0000
  S   S5        1.0  0.73400  0.18300  0.17600  1.0000
  S   S6        1.0  0.44100  0.49300  0.17600  1.0000
  S   S7        1.0  0.00748  0.05860  0.32400  1.0000
  S   S8        1.0  0.31700  0.76600  0.32400  1.0000
  S   S9        1.0  0.85600  0.25700  0.33600  1.0000
  S   S10       1.0  0.48000  0.57900  0.33600  1.0000
  S   S11       1.0  0.46700  0.21800  0.46100  1.0000
  S   S12       1.0  0.99400  0.74300  0.46100  1.0000
  S   S13       1.0  0.00638  0.25700  0.53900  1.0000
  S   S14       1.0  0.53300  0.78200  0.53900  1.0000
  S   S15       1.0  0.52000  0.42100  0.66400  1.0000
  S   S16       1.0  0.14400  0.74300  0.66400  1.0000
  S   S17       1.0  0.68300  0.23400  0.67600  1.0000
  S   S18       1.0  0.99300  0.94100  0.67600  1.0000
  S   S19       1.0  0.55900  0.50700  0.82400  1.0000
  S   S20       1.0  0.26600  0.81700  0.82400  1.0000
  S   S21       1.0  0.75700  0.35600  0.83600  1.0000
  S   S22       1.0  0.07930  0.98000  0.83600  1.0000
  S   S23       1.0  0.24300  0.49400  0.96100  1.0000
  S   S24       1.0  0.71800  0.96700  0.96100  1.0000
