data_image0
_chemical_formula_structural       As4H12O22U2
_chemical_formula_sum              "As4 H12 O22 U2"
_cell_length_a       7.84183
_cell_length_b       7.84183
_cell_length_c       8.63295
_cell_angle_alpha    98.1659
_cell_angle_beta     114.778
_cell_angle_gamma    112.472

_space_group_name_H-M_alt    "P 1"
_space_group_IT_number       1

loop_
  _space_group_symop_operation_xyz
  'x, y, z'

loop_
  _atom_site_type_symbol
  _atom_site_label
  _atom_site_symmetry_multiplicity
  _atom_site_fract_x
  _atom_site_fract_y
  _atom_site_fract_z
  _atom_site_occupancy
  As  As1       1.0  0.23600  0.80300  0.06170  1.0000
  As  As2       1.0  0.24200  0.17400  0.43800  1.0000
  As  As3       1.0  0.75800  0.82600  0.56200  1.0000
  As  As4       1.0  0.76400  0.19700  0.93800  1.0000
  H   H1        1.0  0.08900  0.19900  0.08530  1.0000
  H   H2        1.0  0.85200  0.70400  0.17200  1.0000
  H   H3        1.0  0.37200  0.63300  0.22600  1.0000
  H   H4        1.0  0.90600  0.14600  0.27400  1.0000
  H   H5        1.0  0.03170  0.68000  0.32800  1.0000
  H   H6        1.0  0.61400  0.00374  0.41500  1.0000
  H   H7        1.0  0.38600  0.99600  0.58500  1.0000
  H   H8        1.0  0.96800  0.32000  0.67200  1.0000
  H   H9        1.0  0.09360  0.85400  0.72600  1.0000
  H   H10       1.0  0.62800  0.36700  0.77400  1.0000
  H   H11       1.0  0.14800  0.29600  0.82800  1.0000
  H   H12       1.0  0.91100  0.80100  0.91500  1.0000
  O   O1        1.0  0.41700  0.29500  0.01560  1.0000
  O   O2        1.0  0.02340  0.83600  0.04730  1.0000
  O   O3        1.0  0.22100  0.61100  0.14100  1.0000
  O   O4        1.0  0.79800  0.24100  0.15100  1.0000
  O   O5        1.0  0.47600  0.00931  0.21900  1.0000
  O   O6        1.0  0.87600  0.62600  0.25000  1.0000
  O   O7        1.0  0.29000  0.25700  0.28100  1.0000
  O   O8        1.0  0.59000  0.64700  0.34900  1.0000
  O   O9        1.0  0.97000  0.08020  0.35900  1.0000
  O   O10       1.0  0.28800  0.97600  0.45300  1.0000
  O   O11       1.0  0.78000  0.40100  0.48400  1.0000
  O   O12       1.0  0.22000  0.59900  0.51600  1.0000
  O   O13       1.0  0.71200  0.02390  0.54700  1.0000
  O   O14       1.0  0.02980  0.92000  0.64100  1.0000
  O   O15       1.0  0.41000  0.35300  0.65100  1.0000
  O   O16       1.0  0.71000  0.74300  0.71900  1.0000
  O   O17       1.0  0.12400  0.37400  0.75000  1.0000
  O   O18       1.0  0.52400  0.99100  0.78100  1.0000
  O   O19       1.0  0.20200  0.75900  0.84900  1.0000
  O   O20       1.0  0.77900  0.38900  0.85900  1.0000
  O   O21       1.0  0.97700  0.16400  0.95300  1.0000
  O   O22       1.0  0.58300  0.70500  0.98400  1.0000
  U   U1        1.0  0.60000  0.35000  0.25000  1.0000
  U   U2        1.0  0.40000  0.65000  0.75000  1.0000
