data_image0
_chemical_formula_structural       Te3Zr9
_chemical_formula_sum              "Te3 Zr9"
_cell_length_a       5.78161
_cell_length_b       5.78161
_cell_length_c       10.8083
_cell_angle_alpha    105.513
_cell_angle_beta     74.4867
_cell_angle_gamma    120

_space_group_name_H-M_alt    "P 1"
_space_group_IT_number       1

loop_
  _space_group_symop_operation_xyz
  'x, y, z'

loop_
  _atom_site_type_symbol
  _atom_site_label
  _atom_site_symmetry_multiplicity
  _atom_site_fract_x
  _atom_site_fract_y
  _atom_site_fract_z
  _atom_site_occupancy
  Te  Te1       1.0  0.00000  0.00000  0.00000  1.0000
  Te  Te2       1.0  0.87100  0.12900  0.38600  1.0000
  Te  Te3       1.0  0.12900  0.87100  0.61400  1.0000
  Zr  Zr1       1.0  0.33300  0.66700  0.00221  1.0000
  Zr  Zr2       1.0  0.91100  0.58700  0.26200  1.0000
  Zr  Zr3       1.0  0.41300  0.08860  0.26200  1.0000
  Zr  Zr4       1.0  0.41300  0.58700  0.26200  1.0000
  Zr  Zr5       1.0  0.50000  0.50000  0.50000  1.0000
  Zr  Zr6       1.0  0.58700  0.41300  0.73800  1.0000
  Zr  Zr7       1.0  0.58700  0.91100  0.73800  1.0000
  Zr  Zr8       1.0  0.08860  0.41300  0.73800  1.0000
  Zr  Zr9       1.0  0.66700  0.33300  0.99800  1.0000
