data_image0
_chemical_formula_structural       As4Hg16I20
_chemical_formula_sum              "As4 Hg16 I20"
_cell_length_a       8.60919
_cell_length_b       8.60919
_cell_length_c       19.9929
_cell_angle_alpha    90
_cell_angle_beta     90
_cell_angle_gamma    90.9535

_space_group_name_H-M_alt    "P 1"
_space_group_IT_number       1

loop_
  _space_group_symop_operation_xyz
  'x, y, z'

loop_
  _atom_site_type_symbol
  _atom_site_label
  _atom_site_symmetry_multiplicity
  _atom_site_fract_x
  _atom_site_fract_y
  _atom_site_fract_z
  _atom_site_occupancy
  As  As1       1.0  0.39400  0.60600  0.24900  1.0000
  As  As2       1.0  0.89400  0.10600  0.25100  1.0000
  As  As3       1.0  0.10600  0.89400  0.74900  1.0000
  As  As4       1.0  0.60600  0.39400  0.75100  1.0000
  Hg  Hg1       1.0  0.55600  0.44400  0.16900  1.0000
  Hg  Hg2       1.0  0.23300  0.76700  0.16900  1.0000
  Hg  Hg3       1.0  0.06000  0.26900  0.17000  1.0000
  Hg  Hg4       1.0  0.73100  0.94000  0.17000  1.0000
  Hg  Hg5       1.0  0.23100  0.44000  0.33000  1.0000
  Hg  Hg6       1.0  0.56000  0.76900  0.33000  1.0000
  Hg  Hg7       1.0  0.73300  0.26700  0.33100  1.0000
  Hg  Hg8       1.0  0.05590  0.94400  0.33100  1.0000
  Hg  Hg9       1.0  0.94400  0.05590  0.66900  1.0000
  Hg  Hg10      1.0  0.26700  0.73300  0.66900  1.0000
  Hg  Hg11      1.0  0.44000  0.23100  0.67000  1.0000
  Hg  Hg12      1.0  0.76900  0.56000  0.67000  1.0000
  Hg  Hg13      1.0  0.26900  0.06000  0.83000  1.0000
  Hg  Hg14      1.0  0.94000  0.73100  0.83000  1.0000
  Hg  Hg15      1.0  0.76700  0.23300  0.83100  1.0000
  Hg  Hg16      1.0  0.44400  0.55600  0.83100  1.0000
  I   I1        1.0  0.21300  0.43600  0.07710  1.0000
  I   I2        1.0  0.56400  0.78700  0.07710  1.0000
  I   I3        1.0  0.71800  0.28200  0.07780  1.0000
  I   I4        1.0  0.06900  0.93100  0.07940  1.0000
  I   I5        1.0  0.39200  0.10800  0.25000  1.0000
  I   I6        1.0  0.89200  0.60800  0.25000  1.0000
  I   I7        1.0  0.56900  0.43100  0.42100  1.0000
  I   I8        1.0  0.21800  0.78200  0.42200  1.0000
  I   I9        1.0  0.06370  0.28700  0.42300  1.0000
  I   I10       1.0  0.71300  0.93600  0.42300  1.0000
  I   I11       1.0  0.28700  0.06370  0.57700  1.0000
  I   I12       1.0  0.93600  0.71300  0.57700  1.0000
  I   I13       1.0  0.78200  0.21800  0.57800  1.0000
  I   I14       1.0  0.43100  0.56900  0.57900  1.0000
  I   I15       1.0  0.10800  0.39200  0.75000  1.0000
  I   I16       1.0  0.60800  0.89200  0.75000  1.0000
  I   I17       1.0  0.93100  0.06900  0.92100  1.0000
  I   I18       1.0  0.28200  0.71800  0.92200  1.0000
  I   I19       1.0  0.43600  0.21300  0.92300  1.0000
  I   I20       1.0  0.78700  0.56400  0.92300  1.0000
