data_image0
_chemical_formula_structural       Dy4O26Te10
_chemical_formula_sum              "Dy4 O26 Te10"
_cell_length_a       6.92347
_cell_length_b       8.5545
_cell_length_c       10.4341
_cell_angle_alpha    89.07
_cell_angle_beta     86.9485
_cell_angle_gamma    75.0224

_space_group_name_H-M_alt    "P 1"
_space_group_IT_number       1

loop_
  _space_group_symop_operation_xyz
  'x, y, z'

loop_
  _atom_site_type_symbol
  _atom_site_label
  _atom_site_symmetry_multiplicity
  _atom_site_fract_x
  _atom_site_fract_y
  _atom_site_fract_z
  _atom_site_occupancy
  Dy  Dy1       1.0  0.55300  0.52900  0.18000  1.0000
  Dy  Dy2       1.0  0.99700  0.73600  0.23800  1.0000
  Dy  Dy3       1.0  0.00260  0.26400  0.76200  1.0000
  Dy  Dy4       1.0  0.44700  0.47100  0.82000  1.0000
  O   O1        1.0  0.53200  0.32400  0.00402  1.0000
  O   O2        1.0  0.05750  0.82100  0.03090  1.0000
  O   O3        1.0  0.87800  0.51300  0.10600  1.0000
  O   O4        1.0  0.34200  0.99200  0.12400  1.0000
  O   O5        1.0  0.23800  0.49500  0.18600  1.0000
  O   O6        1.0  0.66700  0.78100  0.22300  1.0000
  O   O7        1.0  0.66900  0.25400  0.23200  1.0000
  O   O8        1.0  0.06650  0.26700  0.28200  1.0000
  O   O9        1.0  0.31200  0.73600  0.29200  1.0000
  O   O10       1.0  0.94300  0.98000  0.31800  1.0000
  O   O11       1.0  0.66400  0.48500  0.38700  1.0000
  O   O12       1.0  0.95700  0.65100  0.43900  1.0000
  O   O13       1.0  0.53900  0.81100  0.48800  1.0000
  O   O14       1.0  0.46100  0.18900  0.51200  1.0000
  O   O15       1.0  0.04250  0.34900  0.56100  1.0000
  O   O16       1.0  0.33600  0.51500  0.61300  1.0000
  O   O17       1.0  0.05670  0.01980  0.68200  1.0000
  O   O18       1.0  0.68800  0.26400  0.70800  1.0000
  O   O19       1.0  0.93400  0.73300  0.71800  1.0000
  O   O20       1.0  0.33100  0.74600  0.76800  1.0000
  O   O21       1.0  0.33300  0.21900  0.77700  1.0000
  O   O22       1.0  0.76200  0.50500  0.81400  1.0000
  O   O23       1.0  0.65800  0.00783  0.87600  1.0000
  O   O24       1.0  0.12200  0.48700  0.89400  1.0000
  O   O25       1.0  0.94200  0.17900  0.96900  1.0000
  O   O26       1.0  0.46800  0.67600  0.99600  1.0000
  Te  Te1       1.0  0.70900  0.11500  0.03240  1.0000
  Te  Te2       1.0  0.12600  0.34400  0.10400  1.0000
  Te  Te3       1.0  0.43100  0.91000  0.30600  1.0000
  Te  Te4       1.0  0.84400  0.19700  0.37000  1.0000
  Te  Te5       1.0  0.27300  0.39400  0.47700  1.0000
  Te  Te6       1.0  0.72700  0.60600  0.52300  1.0000
  Te  Te7       1.0  0.15600  0.80300  0.63000  1.0000
  Te  Te8       1.0  0.56900  0.09010  0.69400  1.0000
  Te  Te9       1.0  0.87400  0.65600  0.89600  1.0000
  Te  Te10      1.0  0.29100  0.88500  0.96800  1.0000
