data_image0
_chemical_formula_structural       Fe2Zr6
_chemical_formula_sum              "Fe2 Zr6"
_cell_length_a       3.28965
_cell_length_b       5.67999
_cell_length_c       8.9083
_cell_angle_alpha    90
_cell_angle_beta     90
_cell_angle_gamma    73.167

_space_group_name_H-M_alt    "P 1"
_space_group_IT_number       1

loop_
  _space_group_symop_operation_xyz
  'x, y, z'

loop_
  _atom_site_type_symbol
  _atom_site_label
  _atom_site_symmetry_multiplicity
  _atom_site_fract_x
  _atom_site_fract_y
  _atom_site_fract_z
  _atom_site_occupancy
  Fe  Fe1       1.0  0.73200  0.53600  0.25000  1.0000
  Fe  Fe2       1.0  0.26800  0.46400  0.75000  1.0000
  Zr  Zr1       1.0  0.13800  0.72500  0.05960  1.0000
  Zr  Zr2       1.0  0.42100  0.15800  0.25000  1.0000
  Zr  Zr3       1.0  0.13800  0.72500  0.44000  1.0000
  Zr  Zr4       1.0  0.86200  0.27500  0.56000  1.0000
  Zr  Zr5       1.0  0.57900  0.84200  0.75000  1.0000
  Zr  Zr6       1.0  0.86200  0.27500  0.94000  1.0000
