data_image0
_chemical_formula_structural       As4Cs12Ge4Se20
_chemical_formula_sum              "As4 Cs12 Ge4 Se20"
_cell_length_a       7.91669
_cell_length_b       9.863
_cell_length_c       20.0389
_cell_angle_alpha    90
_cell_angle_beta     99.9474
_cell_angle_gamma    90

_space_group_name_H-M_alt    "P 1"
_space_group_IT_number       1

loop_
  _space_group_symop_operation_xyz
  'x, y, z'

loop_
  _atom_site_type_symbol
  _atom_site_label
  _atom_site_symmetry_multiplicity
  _atom_site_fract_x
  _atom_site_fract_y
  _atom_site_fract_z
  _atom_site_occupancy
  As  As1       1.0  0.87000  0.04120  0.19900  1.0000
  As  As2       1.0  0.63000  0.54100  0.30100  1.0000
  As  As3       1.0  0.37000  0.45900  0.69900  1.0000
  As  As4       1.0  0.13000  0.95900  0.80100  1.0000
  Cs  Cs1       1.0  0.12700  0.79800  0.04300  1.0000
  Cs  Cs2       1.0  0.46700  0.29300  0.08440  1.0000
  Cs  Cs3       1.0  0.08140  0.43900  0.23600  1.0000
  Cs  Cs4       1.0  0.41900  0.93900  0.26400  1.0000
  Cs  Cs5       1.0  0.03330  0.79300  0.41600  1.0000
  Cs  Cs6       1.0  0.37300  0.29800  0.45700  1.0000
  Cs  Cs7       1.0  0.62700  0.70200  0.54300  1.0000
  Cs  Cs8       1.0  0.96700  0.20700  0.58400  1.0000
  Cs  Cs9       1.0  0.58100  0.06080  0.73600  1.0000
  Cs  Cs10      1.0  0.91900  0.56100  0.76400  1.0000
  Cs  Cs11      1.0  0.53300  0.70700  0.91600  1.0000
  Cs  Cs12      1.0  0.87300  0.20200  0.95700  1.0000
  Ge  Ge1       1.0  0.70200  0.70900  0.13000  1.0000
  Ge  Ge2       1.0  0.79800  0.20900  0.37000  1.0000
  Ge  Ge3       1.0  0.20200  0.79100  0.63000  1.0000
  Ge  Ge4       1.0  0.29800  0.29100  0.87000  1.0000
  Se  Se1       1.0  0.81600  0.54100  0.06890  1.0000
  Se  Se2       1.0  0.58900  0.90400  0.07260  1.0000
  Se  Se3       1.0  0.07560  0.11400  0.13500  1.0000
  Se  Se4       1.0  0.47200  0.61500  0.18500  1.0000
  Se  Se5       1.0  0.92500  0.79400  0.22300  1.0000
  Se  Se6       1.0  0.57500  0.29400  0.27700  1.0000
  Se  Se7       1.0  0.02790  0.11500  0.31500  1.0000
  Se  Se8       1.0  0.42400  0.61400  0.36500  1.0000
  Se  Se9       1.0  0.91100  0.40400  0.42700  1.0000
  Se  Se10      1.0  0.68400  0.04100  0.43100  1.0000
  Se  Se11      1.0  0.31600  0.95900  0.56900  1.0000
  Se  Se12      1.0  0.08920  0.59600  0.57300  1.0000
  Se  Se13      1.0  0.57600  0.38600  0.63500  1.0000
  Se  Se14      1.0  0.97200  0.88500  0.68500  1.0000
  Se  Se15      1.0  0.42500  0.70600  0.72300  1.0000
  Se  Se16      1.0  0.07540  0.20600  0.77700  1.0000
  Se  Se17      1.0  0.52800  0.38500  0.81500  1.0000
  Se  Se18      1.0  0.92400  0.88600  0.86500  1.0000
  Se  Se19      1.0  0.41100  0.09560  0.92700  1.0000
  Se  Se20      1.0  0.18400  0.45900  0.93100  1.0000
