data_image0
_chemical_formula_structural       Er4O26Te10
_chemical_formula_sum              "Er4 O26 Te10"
_cell_length_a       6.87069
_cell_length_b       8.53216
_cell_length_c       10.3996
_cell_angle_alpha    88.944
_cell_angle_beta     86.8609
_cell_angle_gamma    74.9367

_space_group_name_H-M_alt    "P 1"
_space_group_IT_number       1

loop_
  _space_group_symop_operation_xyz
  'x, y, z'

loop_
  _atom_site_type_symbol
  _atom_site_label
  _atom_site_symmetry_multiplicity
  _atom_site_fract_x
  _atom_site_fract_y
  _atom_site_fract_z
  _atom_site_occupancy
  Er  Er1       1.0  0.55200  0.53000  0.18000  1.0000
  Er  Er2       1.0  0.99800  0.73500  0.23800  1.0000
  Er  Er3       1.0  0.00213  0.26500  0.76200  1.0000
  Er  Er4       1.0  0.44800  0.47000  0.82000  1.0000
  O   O1        1.0  0.53200  0.32600  0.00311  1.0000
  O   O2        1.0  0.05510  0.82100  0.03280  1.0000
  O   O3        1.0  0.87600  0.51200  0.10500  1.0000
  O   O4        1.0  0.34400  0.99300  0.12300  1.0000
  O   O5        1.0  0.23800  0.49600  0.18700  1.0000
  O   O6        1.0  0.66900  0.77900  0.22300  1.0000
  O   O7        1.0  0.66600  0.25700  0.23100  1.0000
  O   O8        1.0  0.06740  0.26600  0.28200  1.0000
  O   O9        1.0  0.31100  0.73600  0.29100  1.0000
  O   O10       1.0  0.93800  0.98000  0.31500  1.0000
  O   O11       1.0  0.66200  0.48500  0.38600  1.0000
  O   O12       1.0  0.95900  0.65000  0.43800  1.0000
  O   O13       1.0  0.53800  0.81100  0.48900  1.0000
  O   O14       1.0  0.46200  0.18900  0.51100  1.0000
  O   O15       1.0  0.04080  0.35000  0.56200  1.0000
  O   O16       1.0  0.33800  0.51500  0.61400  1.0000
  O   O17       1.0  0.06180  0.02050  0.68500  1.0000
  O   O18       1.0  0.68900  0.26400  0.70900  1.0000
  O   O19       1.0  0.93300  0.73400  0.71800  1.0000
  O   O20       1.0  0.33400  0.74300  0.76900  1.0000
  O   O21       1.0  0.33100  0.22100  0.77700  1.0000
  O   O22       1.0  0.76200  0.50400  0.81300  1.0000
  O   O23       1.0  0.65600  0.00741  0.87700  1.0000
  O   O24       1.0  0.12400  0.48800  0.89500  1.0000
  O   O25       1.0  0.94500  0.17900  0.96700  1.0000
  O   O26       1.0  0.46800  0.67400  0.99700  1.0000
  Te  Te1       1.0  0.71000  0.11600  0.03270  1.0000
  Te  Te2       1.0  0.12800  0.34400  0.10300  1.0000
  Te  Te3       1.0  0.43200  0.91000  0.30500  1.0000
  Te  Te4       1.0  0.84200  0.19600  0.36900  1.0000
  Te  Te5       1.0  0.27200  0.39600  0.47600  1.0000
  Te  Te6       1.0  0.72800  0.60400  0.52400  1.0000
  Te  Te7       1.0  0.15800  0.80400  0.63100  1.0000
  Te  Te8       1.0  0.56800  0.09010  0.69500  1.0000
  Te  Te9       1.0  0.87200  0.65600  0.89700  1.0000
  Te  Te10      1.0  0.29000  0.88400  0.96700  1.0000
