data_image0
_chemical_formula_structural       H28Mg8Sm4
_chemical_formula_sum              "H28 Mg8 Sm4"
_cell_length_a       6.14399
_cell_length_b       6.14399
_cell_length_c       9.23737
_cell_angle_alpha    90
_cell_angle_beta     90
_cell_angle_gamma    90

_space_group_name_H-M_alt    "P 1"
_space_group_IT_number       1

loop_
  _space_group_symop_operation_xyz
  'x, y, z'

loop_
  _atom_site_type_symbol
  _atom_site_label
  _atom_site_symmetry_multiplicity
  _atom_site_fract_x
  _atom_site_fract_y
  _atom_site_fract_z
  _atom_site_occupancy
  H   H1        1.0  0.75500  0.75500  0.00000  1.0000
  H   H2        1.0  0.65700  0.18900  0.00153  1.0000
  H   H3        1.0  0.42100  0.93700  0.07280  1.0000
  H   H4        1.0  0.46100  0.53300  0.12200  1.0000
  H   H5        1.0  0.03880  0.03290  0.12800  1.0000
  H   H6        1.0  0.07900  0.43700  0.17700  1.0000
  H   H7        1.0  0.84300  0.68900  0.24800  1.0000
  H   H8        1.0  0.74500  0.25500  0.25000  1.0000
  H   H9        1.0  0.31100  0.15700  0.25200  1.0000
  H   H10       1.0  0.56300  0.92100  0.32300  1.0000
  H   H11       1.0  0.96700  0.96100  0.37200  1.0000
  H   H12       1.0  0.46700  0.53900  0.37800  1.0000
  H   H13       1.0  0.06270  0.57900  0.42700  1.0000
  H   H14       1.0  0.81100  0.34300  0.49800  1.0000
  H   H15       1.0  0.24500  0.24500  0.50000  1.0000
  H   H16       1.0  0.34300  0.81100  0.50200  1.0000
  H   H17       1.0  0.57900  0.06270  0.57300  1.0000
  H   H18       1.0  0.53900  0.46700  0.62200  1.0000
  H   H19       1.0  0.96100  0.96700  0.62800  1.0000
  H   H20       1.0  0.92100  0.56300  0.67700  1.0000
  H   H21       1.0  0.15700  0.31100  0.74800  1.0000
  H   H22       1.0  0.25500  0.74500  0.75000  1.0000
  H   H23       1.0  0.68900  0.84300  0.75200  1.0000
  H   H24       1.0  0.43700  0.07900  0.82300  1.0000
  H   H25       1.0  0.03290  0.03880  0.87200  1.0000
  H   H26       1.0  0.53300  0.46100  0.87800  1.0000
  H   H27       1.0  0.93700  0.42100  0.92700  1.0000
  H   H28       1.0  0.18900  0.65700  0.99800  1.0000
  Mg  Mg1       1.0  0.76200  0.47000  0.09900  1.0000
  Mg  Mg2       1.0  0.73800  0.97000  0.15100  1.0000
  Mg  Mg3       1.0  0.02960  0.26200  0.34900  1.0000
  Mg  Mg4       1.0  0.53000  0.23800  0.40100  1.0000
  Mg  Mg5       1.0  0.23800  0.53000  0.59900  1.0000
  Mg  Mg6       1.0  0.26200  0.02960  0.65100  1.0000
  Mg  Mg7       1.0  0.97000  0.73800  0.84900  1.0000
  Mg  Mg8       1.0  0.47000  0.76200  0.90100  1.0000
  Sm  Sm1       1.0  0.27200  0.27200  0.00000  1.0000
  Sm  Sm2       1.0  0.22800  0.77200  0.25000  1.0000
  Sm  Sm3       1.0  0.72800  0.72800  0.50000  1.0000
  Sm  Sm4       1.0  0.77200  0.22800  0.75000  1.0000
