data_image0
_chemical_formula_structural       Pd2Si2Tm
_chemical_formula_sum              "Pd2 Si2 Tm1"
_cell_length_a       4.11992
_cell_length_b       4.11992
_cell_length_c       5.74928
_cell_angle_alpha    110.996
_cell_angle_beta     110.996
_cell_angle_gamma    90

_space_group_name_H-M_alt    "P 1"
_space_group_IT_number       1

loop_
  _space_group_symop_operation_xyz
  'x, y, z'

loop_
  _atom_site_type_symbol
  _atom_site_label
  _atom_site_symmetry_multiplicity
  _atom_site_fract_x
  _atom_site_fract_y
  _atom_site_fract_z
  _atom_site_occupancy
  Pd  Pd1       1.0  0.75000  0.25000  0.50000  1.0000
  Pd  Pd2       1.0  0.25000  0.75000  0.50000  1.0000
  Si  Si1       1.0  0.61600  0.61600  0.23100  1.0000
  Si  Si2       1.0  0.38400  0.38400  0.76900  1.0000
  Tm  Tm1       1.0  0.00000  0.00000  0.00000  1.0000
