data_image0
_chemical_formula_structural       O26Te10Tm4
_chemical_formula_sum              "O26 Te10 Tm4"
_cell_length_a       6.839
_cell_length_b       8.52065
_cell_length_c       10.3832
_cell_angle_alpha    88.7892
_cell_angle_beta     86.8345
_cell_angle_gamma    74.9202

_space_group_name_H-M_alt    "P 1"
_space_group_IT_number       1

loop_
  _space_group_symop_operation_xyz
  'x, y, z'

loop_
  _atom_site_type_symbol
  _atom_site_label
  _atom_site_symmetry_multiplicity
  _atom_site_fract_x
  _atom_site_fract_y
  _atom_site_fract_z
  _atom_site_occupancy
  O   O1        1.0  0.52900  0.32600  0.00230  1.0000
  O   O2        1.0  0.05520  0.82100  0.03410  1.0000
  O   O3        1.0  0.87400  0.51200  0.10400  1.0000
  O   O4        1.0  0.34500  0.99300  0.12300  1.0000
  O   O5        1.0  0.23700  0.49900  0.18500  1.0000
  O   O6        1.0  0.67100  0.77800  0.22300  1.0000
  O   O7        1.0  0.66500  0.25900  0.23100  1.0000
  O   O8        1.0  0.06810  0.26700  0.28300  1.0000
  O   O9        1.0  0.31200  0.73600  0.29100  1.0000
  O   O10       1.0  0.93800  0.98000  0.31500  1.0000
  O   O11       1.0  0.66200  0.48600  0.38600  1.0000
  O   O12       1.0  0.96200  0.64900  0.43700  1.0000
  O   O13       1.0  0.54000  0.81200  0.48900  1.0000
  O   O14       1.0  0.46000  0.18800  0.51100  1.0000
  O   O15       1.0  0.03840  0.35100  0.56300  1.0000
  O   O16       1.0  0.33800  0.51400  0.61400  1.0000
  O   O17       1.0  0.06220  0.02020  0.68500  1.0000
  O   O18       1.0  0.68800  0.26400  0.70900  1.0000
  O   O19       1.0  0.93200  0.73300  0.71700  1.0000
  O   O20       1.0  0.33500  0.74100  0.76900  1.0000
  O   O21       1.0  0.32900  0.22200  0.77700  1.0000
  O   O22       1.0  0.76300  0.50100  0.81500  1.0000
  O   O23       1.0  0.65500  0.00661  0.87700  1.0000
  O   O24       1.0  0.12600  0.48800  0.89600  1.0000
  O   O25       1.0  0.94500  0.17900  0.96600  1.0000
  O   O26       1.0  0.47100  0.67400  0.99800  1.0000
  Te  Te1       1.0  0.70900  0.11600  0.03270  1.0000
  Te  Te2       1.0  0.13000  0.34600  0.10200  1.0000
  Te  Te3       1.0  0.43400  0.91100  0.30500  1.0000
  Te  Te4       1.0  0.84200  0.19700  0.37000  1.0000
  Te  Te5       1.0  0.27100  0.39600  0.47600  1.0000
  Te  Te6       1.0  0.72900  0.60400  0.52400  1.0000
  Te  Te7       1.0  0.15800  0.80300  0.63000  1.0000
  Te  Te8       1.0  0.56600  0.08940  0.69500  1.0000
  Te  Te9       1.0  0.87000  0.65400  0.89800  1.0000
  Te  Te10      1.0  0.29100  0.88400  0.96700  1.0000
  Tm  Tm1       1.0  0.55200  0.53100  0.18100  1.0000
  Tm  Tm2       1.0  0.99900  0.73700  0.23800  1.0000
  Tm  Tm3       1.0  0.00082  0.26300  0.76200  1.0000
  Tm  Tm4       1.0  0.44800  0.46900  0.81900  1.0000
