data_image0
_chemical_formula_structural       O28Se8Th4
_chemical_formula_sum              "O28 Se8 Th4"
_cell_length_a       6.97687
_cell_length_b       9.56912
_cell_length_c       9.00317
_cell_angle_alpha    90
_cell_angle_beta     102.633
_cell_angle_gamma    90

_space_group_name_H-M_alt    "P 1"
_space_group_IT_number       1

loop_
  _space_group_symop_operation_xyz
  'x, y, z'

loop_
  _atom_site_type_symbol
  _atom_site_label
  _atom_site_symmetry_multiplicity
  _atom_site_fract_x
  _atom_site_fract_y
  _atom_site_fract_z
  _atom_site_occupancy
  O   O1        1.0  0.73600  0.69300  0.02380  1.0000
  O   O2        1.0  0.94200  0.22800  0.09640  1.0000
  O   O3        1.0  0.45400  0.55400  0.11200  1.0000
  O   O4        1.0  0.10400  0.56600  0.12400  1.0000
  O   O5        1.0  0.94900  0.91700  0.13900  1.0000
  O   O6        1.0  0.27900  0.07910  0.14300  1.0000
  O   O7        1.0  0.65100  0.27300  0.24500  1.0000
  O   O8        1.0  0.34900  0.77300  0.25500  1.0000
  O   O9        1.0  0.72100  0.57900  0.35700  1.0000
  O   O10       1.0  0.05150  0.41700  0.36100  1.0000
  O   O11       1.0  0.89600  0.06550  0.37600  1.0000
  O   O12       1.0  0.54600  0.05440  0.38800  1.0000
  O   O13       1.0  0.05790  0.72800  0.40400  1.0000
  O   O14       1.0  0.26400  0.19300  0.47600  1.0000
  O   O15       1.0  0.73600  0.80700  0.52400  1.0000
  O   O16       1.0  0.94200  0.27200  0.59600  1.0000
  O   O17       1.0  0.45400  0.94600  0.61200  1.0000
  O   O18       1.0  0.10400  0.93400  0.62400  1.0000
  O   O19       1.0  0.94900  0.58300  0.63900  1.0000
  O   O20       1.0  0.27900  0.42100  0.64300  1.0000
  O   O21       1.0  0.65100  0.22700  0.74500  1.0000
  O   O22       1.0  0.34900  0.72700  0.75500  1.0000
  O   O23       1.0  0.72100  0.92100  0.85700  1.0000
  O   O24       1.0  0.05150  0.08300  0.86100  1.0000
  O   O25       1.0  0.89600  0.43400  0.87600  1.0000
  O   O26       1.0  0.54600  0.44600  0.88800  1.0000
  O   O27       1.0  0.05790  0.77200  0.90400  1.0000
  O   O28       1.0  0.26400  0.30700  0.97600  1.0000
  Se  Se1       1.0  0.12600  0.17800  0.01670  1.0000
  Se  Se2       1.0  0.67100  0.09540  0.24600  1.0000
  Se  Se3       1.0  0.32900  0.59500  0.25400  1.0000
  Se  Se4       1.0  0.87400  0.67800  0.48300  1.0000
  Se  Se5       1.0  0.12600  0.32200  0.51700  1.0000
  Se  Se6       1.0  0.67100  0.40500  0.74600  1.0000
  Se  Se7       1.0  0.32900  0.90500  0.75400  1.0000
  Se  Se8       1.0  0.87400  0.82200  0.98300  1.0000
  Th  Th1       1.0  0.79000  0.45900  0.13200  1.0000
  Th  Th2       1.0  0.21000  0.95900  0.36800  1.0000
  Th  Th3       1.0  0.79000  0.04090  0.63200  1.0000
  Th  Th4       1.0  0.21000  0.54100  0.86800  1.0000
