data_image0
_chemical_formula_structural       Cs20Fe4O16
_chemical_formula_sum              "Cs20 Fe4 O16"
_cell_length_a       8.83177
_cell_length_b       10.6753
_cell_length_c       11.151
_cell_angle_alpha    90
_cell_angle_beta     97.2836
_cell_angle_gamma    90

_space_group_name_H-M_alt    "P 1"
_space_group_IT_number       1

loop_
  _space_group_symop_operation_xyz
  'x, y, z'

loop_
  _atom_site_type_symbol
  _atom_site_label
  _atom_site_symmetry_multiplicity
  _atom_site_fract_x
  _atom_site_fract_y
  _atom_site_fract_z
  _atom_site_occupancy
  Cs  Cs1       1.0  0.44200  0.18900  0.02220  1.0000
  Cs  Cs2       1.0  0.03890  0.33100  0.03180  1.0000
  Cs  Cs3       1.0  0.39600  0.53300  0.14000  1.0000
  Cs  Cs4       1.0  0.88900  0.99400  0.14100  1.0000
  Cs  Cs5       1.0  0.27100  0.84800  0.23900  1.0000
  Cs  Cs6       1.0  0.72900  0.34800  0.26100  1.0000
  Cs  Cs7       1.0  0.11100  0.49400  0.35900  1.0000
  Cs  Cs8       1.0  0.60400  0.03270  0.36000  1.0000
  Cs  Cs9       1.0  0.96100  0.83100  0.46800  1.0000
  Cs  Cs10      1.0  0.55800  0.68900  0.47800  1.0000
  Cs  Cs11      1.0  0.44200  0.31100  0.52200  1.0000
  Cs  Cs12      1.0  0.03890  0.16900  0.53200  1.0000
  Cs  Cs13      1.0  0.39600  0.96700  0.64000  1.0000
  Cs  Cs14      1.0  0.88900  0.50600  0.64100  1.0000
  Cs  Cs15      1.0  0.27100  0.65200  0.73900  1.0000
  Cs  Cs16      1.0  0.72900  0.15200  0.76100  1.0000
  Cs  Cs17      1.0  0.11100  0.00646  0.85900  1.0000
  Cs  Cs18      1.0  0.60400  0.46700  0.86000  1.0000
  Cs  Cs19      1.0  0.96100  0.66900  0.96800  1.0000
  Cs  Cs20      1.0  0.55800  0.81100  0.97800  1.0000
  Fe  Fe1       1.0  0.77900  0.66700  0.23200  1.0000
  Fe  Fe2       1.0  0.22100  0.16700  0.26800  1.0000
  Fe  Fe3       1.0  0.77900  0.83300  0.73200  1.0000
  Fe  Fe4       1.0  0.22100  0.33300  0.76800  1.0000
  O   O1        1.0  0.71200  0.56000  0.09500  1.0000
  O   O2        1.0  0.20600  0.07130  0.11900  1.0000
  O   O3        1.0  0.97700  0.73100  0.21600  1.0000
  O   O4        1.0  0.63500  0.79900  0.24400  1.0000
  O   O5        1.0  0.36500  0.29900  0.25600  1.0000
  O   O6        1.0  0.02320  0.23100  0.28400  1.0000
  O   O7        1.0  0.79400  0.57100  0.38100  1.0000
  O   O8        1.0  0.28800  0.06020  0.40500  1.0000
  O   O9        1.0  0.71200  0.94000  0.59500  1.0000
  O   O10       1.0  0.20600  0.42900  0.61900  1.0000
  O   O11       1.0  0.97700  0.76900  0.71600  1.0000
  O   O12       1.0  0.63500  0.70100  0.74400  1.0000
  O   O13       1.0  0.36500  0.20100  0.75600  1.0000
  O   O14       1.0  0.02320  0.26900  0.78400  1.0000
  O   O15       1.0  0.79400  0.92900  0.88100  1.0000
  O   O16       1.0  0.28800  0.44000  0.90500  1.0000
