data_image0
_chemical_formula_structural       Eu8Lu2S24Sn6
_chemical_formula_sum              "Eu8 Lu2 S24 Sn6"
_cell_length_a       3.94288
_cell_length_b       20.2037
_cell_length_c       11.3456
_cell_angle_alpha    90
_cell_angle_beta     90
_cell_angle_gamma    90

_space_group_name_H-M_alt    "P 1"
_space_group_IT_number       1

loop_
  _space_group_symop_operation_xyz
  'x, y, z'

loop_
  _atom_site_type_symbol
  _atom_site_label
  _atom_site_symmetry_multiplicity
  _atom_site_fract_x
  _atom_site_fract_y
  _atom_site_fract_z
  _atom_site_occupancy
  Eu  Eu1       1.0  0.50000  0.74100  0.08530  1.0000
  Eu  Eu2       1.0  0.50000  0.38000  0.22900  1.0000
  Eu  Eu3       1.0  0.50000  0.91600  0.31000  1.0000
  Eu  Eu4       1.0  0.50000  0.58700  0.35100  1.0000
  Eu  Eu5       1.0  0.50000  0.25900  0.58500  1.0000
  Eu  Eu6       1.0  0.50000  0.62000  0.72900  1.0000
  Eu  Eu7       1.0  0.50000  0.08420  0.81000  1.0000
  Eu  Eu8       1.0  0.50000  0.41300  0.85100  1.0000
  Lu  Lu1       1.0  0.50000  0.10300  0.17000  1.0000
  Lu  Lu2       1.0  0.50000  0.89700  0.67000  1.0000
  S   S1        1.0  0.00000  0.12200  0.00389  1.0000
  S   S2        1.0  0.00000  0.37200  0.03570  1.0000
  S   S3        1.0  0.50000  0.98700  0.04780  1.0000
  S   S4        1.0  0.50000  0.51200  0.07990  1.0000
  S   S5        1.0  0.50000  0.23800  0.15800  1.0000
  S   S6        1.0  0.00000  0.84400  0.16400  1.0000
  S   S7        1.0  0.00000  0.65100  0.19500  1.0000
  S   S8        1.0  0.00000  0.02990  0.27900  1.0000
  S   S9        1.0  0.00000  0.48000  0.31500  1.0000
  S   S10       1.0  0.50000  0.74800  0.35500  1.0000
  S   S11       1.0  0.50000  0.15900  0.39100  1.0000
  S   S12       1.0  0.00000  0.31700  0.40200  1.0000
  S   S13       1.0  0.00000  0.87800  0.50400  1.0000
  S   S14       1.0  0.00000  0.62800  0.53600  1.0000
  S   S15       1.0  0.50000  0.01350  0.54800  1.0000
  S   S16       1.0  0.50000  0.48800  0.58000  1.0000
  S   S17       1.0  0.50000  0.76200  0.65800  1.0000
  S   S18       1.0  0.00000  0.15600  0.66400  1.0000
  S   S19       1.0  0.00000  0.34900  0.69500  1.0000
  S   S20       1.0  0.00000  0.97000  0.77900  1.0000
  S   S21       1.0  0.00000  0.52000  0.81500  1.0000
  S   S22       1.0  0.50000  0.25200  0.85500  1.0000
  S   S23       1.0  0.50000  0.84100  0.89100  1.0000
  S   S24       1.0  0.00000  0.68300  0.90200  1.0000
  Sn  Sn1       1.0  0.00000  0.25000  0.00256  1.0000
  Sn  Sn2       1.0  0.00000  0.57800  0.01210  1.0000
  Sn  Sn3       1.0  0.00000  0.08860  0.48000  1.0000
  Sn  Sn4       1.0  0.00000  0.75000  0.50300  1.0000
  Sn  Sn5       1.0  0.00000  0.42200  0.51200  1.0000
  Sn  Sn6       1.0  0.00000  0.91100  0.98000  1.0000
