data_image0
_chemical_formula_structural       Ga4Zr4
_chemical_formula_sum              "Ga4 Zr4"
_cell_length_a       3.88476
_cell_length_b       3.88476
_cell_length_c       10.6398
_cell_angle_alpha    100.519
_cell_angle_beta     100.519
_cell_angle_gamma    90

_space_group_name_H-M_alt    "P 1"
_space_group_IT_number       1

loop_
  _space_group_symop_operation_xyz
  'x, y, z'

loop_
  _atom_site_type_symbol
  _atom_site_label
  _atom_site_symmetry_multiplicity
  _atom_site_fract_x
  _atom_site_fract_y
  _atom_site_fract_z
  _atom_site_occupancy
  Ga  Ga1       1.0  0.58500  0.08490  0.17000  1.0000
  Ga  Ga2       1.0  0.66500  0.66500  0.33000  1.0000
  Ga  Ga3       1.0  0.33500  0.33500  0.67000  1.0000
  Ga  Ga4       1.0  0.91500  0.41500  0.83000  1.0000
  Zr  Zr1       1.0  0.05270  0.55300  0.10500  1.0000
  Zr  Zr2       1.0  0.19700  0.19700  0.39500  1.0000
  Zr  Zr3       1.0  0.80300  0.80300  0.60500  1.0000
  Zr  Zr4       1.0  0.44700  0.94700  0.89500  1.0000
