data_image0
_chemical_formula_structural       Lu4O26Te10
_chemical_formula_sum              "Lu4 O26 Te10"
_cell_length_a       6.79378
_cell_length_b       8.51029
_cell_length_c       10.3547
_cell_angle_alpha    88.6191
_cell_angle_beta     86.7509
_cell_angle_gamma    74.8402

_space_group_name_H-M_alt    "P 1"
_space_group_IT_number       1

loop_
  _space_group_symop_operation_xyz
  'x, y, z'

loop_
  _atom_site_type_symbol
  _atom_site_label
  _atom_site_symmetry_multiplicity
  _atom_site_fract_x
  _atom_site_fract_y
  _atom_site_fract_z
  _atom_site_occupancy
  Lu  Lu1       1.0  0.55100  0.53200  0.18100  1.0000
  Lu  Lu2       1.0  0.00019  0.73800  0.23900  1.0000
  Lu  Lu3       1.0  0.00000  0.26200  0.76100  1.0000
  Lu  Lu4       1.0  0.44900  0.46800  0.81900  1.0000
  O   O1        1.0  0.52900  0.32700  0.00137  1.0000
  O   O2        1.0  0.05290  0.82100  0.03580  1.0000
  O   O3        1.0  0.87100  0.50900  0.10200  1.0000
  O   O4        1.0  0.34700  0.99400  0.12200  1.0000
  O   O5        1.0  0.23500  0.50100  0.18600  1.0000
  O   O6        1.0  0.67400  0.77500  0.22200  1.0000
  O   O7        1.0  0.66000  0.26200  0.23000  1.0000
  O   O8        1.0  0.06830  0.26600  0.28200  1.0000
  O   O9        1.0  0.31200  0.73800  0.29000  1.0000
  O   O10       1.0  0.93200  0.98000  0.31200  1.0000
  O   O11       1.0  0.66100  0.48600  0.38600  1.0000
  O   O12       1.0  0.96300  0.64800  0.43600  1.0000
  O   O13       1.0  0.54000  0.81200  0.48900  1.0000
  O   O14       1.0  0.46000  0.18800  0.51100  1.0000
  O   O15       1.0  0.03660  0.35200  0.56400  1.0000
  O   O16       1.0  0.33900  0.51400  0.61400  1.0000
  O   O17       1.0  0.06820  0.02020  0.68800  1.0000
  O   O18       1.0  0.68800  0.26200  0.71000  1.0000
  O   O19       1.0  0.93200  0.73400  0.71800  1.0000
  O   O20       1.0  0.34000  0.73800  0.77000  1.0000
  O   O21       1.0  0.32600  0.22500  0.77800  1.0000
  O   O22       1.0  0.76500  0.49900  0.81400  1.0000
  O   O23       1.0  0.65300  0.00625  0.87800  1.0000
  O   O24       1.0  0.12900  0.49100  0.89800  1.0000
  O   O25       1.0  0.94700  0.17900  0.96400  1.0000
  O   O26       1.0  0.47100  0.67300  0.99900  1.0000
  Te  Te1       1.0  0.71000  0.11700  0.03320  1.0000
  Te  Te2       1.0  0.13200  0.34600  0.10100  1.0000
  Te  Te3       1.0  0.43700  0.91100  0.30400  1.0000
  Te  Te4       1.0  0.84000  0.19700  0.36900  1.0000
  Te  Te5       1.0  0.27000  0.39700  0.47600  1.0000
  Te  Te6       1.0  0.73000  0.60300  0.52400  1.0000
  Te  Te7       1.0  0.16000  0.80300  0.63100  1.0000
  Te  Te8       1.0  0.56300  0.08910  0.69600  1.0000
  Te  Te9       1.0  0.86800  0.65400  0.89900  1.0000
  Te  Te10      1.0  0.29000  0.88300  0.96700  1.0000
