data_image0
_chemical_formula_structural       F4H28N8
_chemical_formula_sum              "F4 H28 N8"
_cell_length_a       7.79639
_cell_length_b       5.4428
_cell_length_c       7.15918
_cell_angle_alpha    90
_cell_angle_beta     90
_cell_angle_gamma    90

_space_group_name_H-M_alt    "P 1"
_space_group_IT_number       1

loop_
  _space_group_symop_operation_xyz
  'x, y, z'

loop_
  _atom_site_type_symbol
  _atom_site_label
  _atom_site_symmetry_multiplicity
  _atom_site_fract_x
  _atom_site_fract_y
  _atom_site_fract_z
  _atom_site_occupancy
  F   F1        1.0  0.89300  0.21600  0.26500  1.0000
  F   F2        1.0  0.39300  0.78400  0.26500  1.0000
  F   F3        1.0  0.60700  0.21600  0.76500  1.0000
  F   F4        1.0  0.10700  0.78400  0.76500  1.0000
  H   H1        1.0  0.23000  0.22100  0.02530  1.0000
  H   H2        1.0  0.73000  0.77900  0.02530  1.0000
  H   H3        1.0  0.87300  0.43000  0.06600  1.0000
  H   H4        1.0  0.37300  0.57000  0.06600  1.0000
  H   H5        1.0  0.05560  0.10400  0.14900  1.0000
  H   H6        1.0  0.55600  0.89600  0.14900  1.0000
  H   H7        1.0  0.74700  0.05060  0.15300  1.0000
  H   H8        1.0  0.24700  0.94900  0.15300  1.0000
  H   H9        1.0  0.73700  0.42800  0.36800  1.0000
  H   H10       1.0  0.23700  0.57200  0.36800  1.0000
  H   H11       1.0  0.05620  0.40700  0.38400  1.0000
  H   H12       1.0  0.55600  0.59300  0.38400  1.0000
  H   H13       1.0  0.87100  0.04890  0.45500  1.0000
  H   H14       1.0  0.37100  0.95100  0.45500  1.0000
  H   H15       1.0  0.27000  0.22100  0.52500  1.0000
  H   H16       1.0  0.77000  0.77900  0.52500  1.0000
  H   H17       1.0  0.62700  0.43000  0.56600  1.0000
  H   H18       1.0  0.12700  0.57000  0.56600  1.0000
  H   H19       1.0  0.44400  0.10400  0.64900  1.0000
  H   H20       1.0  0.94400  0.89600  0.64900  1.0000
  H   H21       1.0  0.75300  0.05060  0.65300  1.0000
  H   H22       1.0  0.25300  0.94900  0.65300  1.0000
  H   H23       1.0  0.76300  0.42800  0.86800  1.0000
  H   H24       1.0  0.26300  0.57200  0.86800  1.0000
  H   H25       1.0  0.44400  0.40700  0.88400  1.0000
  H   H26       1.0  0.94400  0.59300  0.88400  1.0000
  H   H27       1.0  0.62900  0.04890  0.95500  1.0000
  H   H28       1.0  0.12900  0.95100  0.95500  1.0000
  N   N1        1.0  0.16400  0.05450  0.07150  1.0000
  N   N2        1.0  0.66400  0.94500  0.07150  1.0000
  N   N3        1.0  0.16400  0.46300  0.45400  1.0000
  N   N4        1.0  0.66400  0.53700  0.45400  1.0000
  N   N5        1.0  0.33600  0.05450  0.57100  1.0000
  N   N6        1.0  0.83600  0.94500  0.57100  1.0000
  N   N7        1.0  0.33600  0.46300  0.95400  1.0000
  N   N8        1.0  0.83600  0.53700  0.95400  1.0000
