data_image0
_chemical_formula_structural       Fe2O26Te12
_chemical_formula_sum              "Fe2 O26 Te12"
_cell_length_a       8.58755
_cell_length_b       8.57412
_cell_length_c       8.59046
_cell_angle_alpha    72.1649
_cell_angle_beta     107.822
_cell_angle_gamma    107.743

_space_group_name_H-M_alt    "P 1"
_space_group_IT_number       1

loop_
  _space_group_symop_operation_xyz
  'x, y, z'

loop_
  _atom_site_type_symbol
  _atom_site_label
  _atom_site_symmetry_multiplicity
  _atom_site_fract_x
  _atom_site_fract_y
  _atom_site_fract_z
  _atom_site_occupancy
  Fe  Fe1       1.0  0.74400  0.25500  0.25600  1.0000
  Fe  Fe2       1.0  0.25600  0.74500  0.74400  1.0000
  O   O1        1.0  0.20200  0.30000  0.04760  1.0000
  O   O2        1.0  0.60300  0.10300  0.07890  1.0000
  O   O3        1.0  0.91500  0.08480  0.08500  1.0000
  O   O4        1.0  0.92100  0.39700  0.10200  1.0000
  O   O5        1.0  0.54200  0.36400  0.11200  1.0000
  O   O6        1.0  0.30100  0.95300  0.20100  1.0000
  O   O7        1.0  0.62500  0.61800  0.29700  1.0000
  O   O8        1.0  0.95200  0.79800  0.30100  1.0000
  O   O9        1.0  0.88800  0.45700  0.36400  1.0000
  O   O10       1.0  0.38200  0.29700  0.37500  1.0000
  O   O11       1.0  0.29800  0.62600  0.38200  1.0000
  O   O12       1.0  0.89800  0.08030  0.39700  1.0000
  O   O13       1.0  0.63600  0.11100  0.45900  1.0000
  O   O14       1.0  0.36400  0.88900  0.54100  1.0000
  O   O15       1.0  0.10200  0.92000  0.60300  1.0000
  O   O16       1.0  0.70200  0.37400  0.61800  1.0000
  O   O17       1.0  0.61800  0.70300  0.62500  1.0000
  O   O18       1.0  0.11200  0.54300  0.63600  1.0000
  O   O19       1.0  0.04790  0.20200  0.69900  1.0000
  O   O20       1.0  0.37500  0.38200  0.70300  1.0000
  O   O21       1.0  0.69900  0.04730  0.79900  1.0000
  O   O22       1.0  0.45800  0.63600  0.88800  1.0000
  O   O23       1.0  0.07900  0.60300  0.89800  1.0000
  O   O24       1.0  0.08460  0.91500  0.91500  1.0000
  O   O25       1.0  0.39700  0.89700  0.92100  1.0000
  O   O26       1.0  0.79800  0.70000  0.95200  1.0000
  Te  Te1       1.0  0.66800  0.93200  0.01680  1.0000
  Te  Te2       1.0  0.01550  0.66600  0.06880  1.0000
  Te  Te3       1.0  0.41500  0.47400  0.17200  1.0000
  Te  Te4       1.0  0.06850  0.01620  0.33300  1.0000
  Te  Te5       1.0  0.47400  0.82900  0.41500  1.0000
  Te  Te6       1.0  0.82800  0.58400  0.47400  1.0000
  Te  Te7       1.0  0.17200  0.41600  0.52600  1.0000
  Te  Te8       1.0  0.52600  0.17100  0.58500  1.0000
  Te  Te9       1.0  0.93200  0.98400  0.66700  1.0000
  Te  Te10      1.0  0.58500  0.52600  0.82800  1.0000
  Te  Te11      1.0  0.98500  0.33400  0.93100  1.0000
  Te  Te12      1.0  0.33200  0.06820  0.98300  1.0000
