data_image0
_chemical_formula_structural       Gd12In4S24
_chemical_formula_sum              "Gd12 In4 S24"
_cell_length_a       13.5739
_cell_length_b       16.5778
_cell_length_c       3.88292
_cell_angle_alpha    90
_cell_angle_beta     90
_cell_angle_gamma    90

_space_group_name_H-M_alt    "P 1"
_space_group_IT_number       1

loop_
  _space_group_symop_operation_xyz
  'x, y, z'

loop_
  _atom_site_type_symbol
  _atom_site_label
  _atom_site_symmetry_multiplicity
  _atom_site_fract_x
  _atom_site_fract_y
  _atom_site_fract_z
  _atom_site_occupancy
  Gd  Gd1       1.0  0.54000  0.22400  0.00000  1.0000
  Gd  Gd2       1.0  0.31100  0.35400  0.00000  1.0000
  Gd  Gd3       1.0  0.75100  0.39300  0.00000  1.0000
  Gd  Gd4       1.0  0.24900  0.60700  0.00000  1.0000
  Gd  Gd5       1.0  0.68900  0.64600  0.00000  1.0000
  Gd  Gd6       1.0  0.46000  0.77600  0.00000  1.0000
  Gd  Gd7       1.0  0.25100  0.10700  0.50000  1.0000
  Gd  Gd8       1.0  0.81100  0.14600  0.50000  1.0000
  Gd  Gd9       1.0  0.04010  0.27600  0.50000  1.0000
  Gd  Gd10      1.0  0.96000  0.72400  0.50000  1.0000
  Gd  Gd11      1.0  0.18900  0.85400  0.50000  1.0000
  Gd  Gd12      1.0  0.74900  0.89300  0.50000  1.0000
  In  In1       1.0  0.00000  0.00000  0.00000  1.0000
  In  In2       1.0  0.00000  0.50000  0.00000  1.0000
  In  In3       1.0  0.50000  0.00000  0.50000  1.0000
  In  In4       1.0  0.50000  0.50000  0.50000  1.0000
  S   S1        1.0  0.80800  0.02040  0.00000  1.0000
  S   S2        1.0  0.40400  0.08690  0.00000  1.0000
  S   S3        1.0  0.18200  0.21400  0.00000  1.0000
  S   S4        1.0  0.88800  0.24700  0.00000  1.0000
  S   S5        1.0  0.11200  0.38300  0.00000  1.0000
  S   S6        1.0  0.52100  0.39500  0.00000  1.0000
  S   S7        1.0  0.47900  0.60500  0.00000  1.0000
  S   S8        1.0  0.88800  0.61700  0.00000  1.0000
  S   S9        1.0  0.11200  0.75300  0.00000  1.0000
  S   S10       1.0  0.81800  0.78600  0.00000  1.0000
  S   S11       1.0  0.59600  0.91300  0.00000  1.0000
  S   S12       1.0  0.19200  0.98000  0.00000  1.0000
  S   S13       1.0  0.02140  0.10500  0.50000  1.0000
  S   S14       1.0  0.61200  0.11700  0.50000  1.0000
  S   S15       1.0  0.38800  0.25300  0.50000  1.0000
  S   S16       1.0  0.68200  0.28600  0.50000  1.0000
  S   S17       1.0  0.90400  0.41300  0.50000  1.0000
  S   S18       1.0  0.30800  0.48000  0.50000  1.0000
  S   S19       1.0  0.69200  0.52000  0.50000  1.0000
  S   S20       1.0  0.09580  0.58700  0.50000  1.0000
  S   S21       1.0  0.31800  0.71400  0.50000  1.0000
  S   S22       1.0  0.61200  0.74700  0.50000  1.0000
  S   S23       1.0  0.38800  0.88300  0.50000  1.0000
  S   S24       1.0  0.97900  0.89500  0.50000  1.0000
