data_image0
_chemical_formula_structural       K2PtS2
_chemical_formula_sum              "K2 Pt1 S2"
_cell_length_a       3.64831
_cell_length_b       6.20981
_cell_length_c       6.20981
_cell_angle_alpha    99.9162
_cell_angle_beta     107.083
_cell_angle_gamma    107.083

_space_group_name_H-M_alt    "P 1"
_space_group_IT_number       1

loop_
  _space_group_symop_operation_xyz
  'x, y, z'

loop_
  _atom_site_type_symbol
  _atom_site_label
  _atom_site_symmetry_multiplicity
  _atom_site_fract_x
  _atom_site_fract_y
  _atom_site_fract_z
  _atom_site_occupancy
  K   K1        1.0  0.50000  0.69300  0.30700  1.0000
  K   K2        1.0  0.50000  0.30700  0.69300  1.0000
  Pt  Pt1       1.0  0.00000  0.00000  0.00000  1.0000
  S   S1        1.0  0.71600  0.21600  0.21600  1.0000
  S   S2        1.0  0.28400  0.78400  0.78400  1.0000
