data_image0
_chemical_formula_structural       As4Ca2H12Mn2O20
_chemical_formula_sum              "As4 Ca2 H12 Mn2 O20"
_cell_length_a       8.22782
_cell_length_b       7.44465
_cell_length_c       6.84979
_cell_angle_alpha    82.9765
_cell_angle_beta     98.4218
_cell_angle_gamma    95.6584

_space_group_name_H-M_alt    "P 1"
_space_group_IT_number       1

loop_
  _space_group_symop_operation_xyz
  'x, y, z'

loop_
  _atom_site_type_symbol
  _atom_site_label
  _atom_site_symmetry_multiplicity
  _atom_site_fract_x
  _atom_site_fract_y
  _atom_site_fract_z
  _atom_site_occupancy
  As  As1       1.0  0.41400  0.76300  0.16300  1.0000
  As  As2       1.0  0.17600  0.13600  0.36900  1.0000
  As  As3       1.0  0.82400  0.86400  0.63100  1.0000
  As  As4       1.0  0.58600  0.23700  0.83700  1.0000
  Ca  Ca1       1.0  0.82800  0.88300  0.12500  1.0000
  Ca  Ca2       1.0  0.17200  0.11700  0.87500  1.0000
  H   H1        1.0  0.05670  0.59500  0.14400  1.0000
  H   H2        1.0  0.89400  0.51100  0.22600  1.0000
  H   H3        1.0  0.30900  0.45200  0.24600  1.0000
  H   H4        1.0  0.66000  0.52100  0.29400  1.0000
  H   H5        1.0  0.93800  0.22200  0.43000  1.0000
  H   H6        1.0  0.25900  0.56900  0.48800  1.0000
  H   H7        1.0  0.74100  0.43100  0.51200  1.0000
  H   H8        1.0  0.06250  0.77800  0.57000  1.0000
  H   H9        1.0  0.34000  0.47900  0.70600  1.0000
  H   H10       1.0  0.69100  0.54800  0.75400  1.0000
  H   H11       1.0  0.10600  0.48900  0.77400  1.0000
  H   H12       1.0  0.94300  0.40500  0.85600  1.0000
  Mn  Mn1       1.0  0.57900  0.15800  0.33600  1.0000
  Mn  Mn2       1.0  0.42100  0.84200  0.66400  1.0000
  O   O1        1.0  0.66100  0.12900  0.05980  1.0000
  O   O2        1.0  0.93700  0.60900  0.13200  1.0000
  O   O3        1.0  0.59600  0.68000  0.15300  1.0000
  O   O4        1.0  0.08660  0.02520  0.17600  1.0000
  O   O5        1.0  0.26800  0.58600  0.22900  1.0000
  O   O6        1.0  0.34600  0.27200  0.31000  1.0000
  O   O7        1.0  0.42600  0.90500  0.34400  1.0000
  O   O8        1.0  0.71900  0.41300  0.36900  1.0000
  O   O9        1.0  0.80000  0.00910  0.41700  1.0000
  O   O10       1.0  0.04610  0.29300  0.42400  1.0000
  O   O11       1.0  0.95400  0.70700  0.57600  1.0000
  O   O12       1.0  0.20000  0.99100  0.58300  1.0000
  O   O13       1.0  0.28100  0.58700  0.63100  1.0000
  O   O14       1.0  0.57400  0.09530  0.65600  1.0000
  O   O15       1.0  0.65400  0.72800  0.69000  1.0000
  O   O16       1.0  0.73200  0.41400  0.77100  1.0000
  O   O17       1.0  0.91300  0.97500  0.82400  1.0000
  O   O18       1.0  0.40400  0.32000  0.84700  1.0000
  O   O19       1.0  0.06270  0.39100  0.86800  1.0000
  O   O20       1.0  0.33900  0.87100  0.94000  1.0000
