data_image0
_chemical_formula_structural       Al6Bi10Br24
_chemical_formula_sum              "Al6 Bi10 Br24"
_cell_length_a       12.6134
_cell_length_b       12.6134
_cell_length_c       12.6134
_cell_angle_alpha    120.697
_cell_angle_beta     59.3029
_cell_angle_gamma    120.697

_space_group_name_H-M_alt    "P 1"
_space_group_IT_number       1

loop_
  _space_group_symop_operation_xyz
  'x, y, z'

loop_
  _atom_site_type_symbol
  _atom_site_label
  _atom_site_symmetry_multiplicity
  _atom_site_fract_x
  _atom_site_fract_y
  _atom_site_fract_z
  _atom_site_occupancy
  Al  Al1       1.0  0.75000  0.73500  0.23500  1.0000
  Al  Al2       1.0  0.73500  0.23500  0.25000  1.0000
  Al  Al3       1.0  0.23500  0.25000  0.26500  1.0000
  Al  Al4       1.0  0.76500  0.75000  0.73500  1.0000
  Al  Al5       1.0  0.26500  0.76500  0.75000  1.0000
  Al  Al6       1.0  0.25000  0.26500  0.76500  1.0000
  Bi  Bi1       1.0  0.40100  0.75000  0.09920  1.0000
  Bi  Bi2       1.0  0.17200  0.82800  0.17200  1.0000
  Bi  Bi3       1.0  0.09920  0.59900  0.25000  1.0000
  Bi  Bi4       1.0  0.32800  0.67200  0.32800  1.0000
  Bi  Bi5       1.0  0.25000  0.90100  0.40100  1.0000
  Bi  Bi6       1.0  0.75000  0.09920  0.59900  1.0000
  Bi  Bi7       1.0  0.67200  0.32800  0.67200  1.0000
  Bi  Bi8       1.0  0.90100  0.40100  0.75000  1.0000
  Bi  Bi9       1.0  0.82800  0.17200  0.82800  1.0000
  Bi  Bi10      1.0  0.59900  0.25000  0.90100  1.0000
  Br  Br1       1.0  0.93000  0.69600  0.04700  1.0000
  Br  Br2       1.0  0.69600  0.04700  0.06970  1.0000
  Br  Br3       1.0  0.27800  0.30000  0.09080  1.0000
  Br  Br4       1.0  0.57000  0.54700  0.19600  1.0000
  Br  Br5       1.0  0.77800  0.40900  0.20000  1.0000
  Br  Br6       1.0  0.40900  0.20000  0.22200  1.0000
  Br  Br7       1.0  0.70000  0.90900  0.27800  1.0000
  Br  Br8       1.0  0.90900  0.27800  0.30000  1.0000
  Br  Br9       1.0  0.04700  0.06970  0.30400  1.0000
  Br  Br10      1.0  0.80000  0.77800  0.40900  1.0000
  Br  Br11      1.0  0.54700  0.19600  0.43000  1.0000
  Br  Br12      1.0  0.19600  0.43000  0.45300  1.0000
  Br  Br13      1.0  0.80400  0.57000  0.54700  1.0000
  Br  Br14      1.0  0.45300  0.80400  0.57000  1.0000
  Br  Br15      1.0  0.20000  0.22200  0.59100  1.0000
  Br  Br16      1.0  0.95300  0.93000  0.69600  1.0000
  Br  Br17      1.0  0.09080  0.72200  0.70000  1.0000
  Br  Br18      1.0  0.30000  0.09080  0.72200  1.0000
  Br  Br19      1.0  0.59100  0.80000  0.77800  1.0000
  Br  Br20      1.0  0.22200  0.59100  0.80000  1.0000
  Br  Br21      1.0  0.43000  0.45300  0.80400  1.0000
  Br  Br22      1.0  0.72200  0.70000  0.90900  1.0000
  Br  Br23      1.0  0.30400  0.95300  0.93000  1.0000
  Br  Br24      1.0  0.06970  0.30400  0.95300  1.0000
