data_image0
_chemical_formula_structural       Er12F20O8
_chemical_formula_sum              "Er12 F20 O8"
_cell_length_a       5.53486
_cell_length_b       16.8402
_cell_length_c       5.27724
_cell_angle_alpha    90
_cell_angle_beta     90
_cell_angle_gamma    90

_space_group_name_H-M_alt    "P 1"
_space_group_IT_number       1

loop_
  _space_group_symop_operation_xyz
  'x, y, z'

loop_
  _atom_site_type_symbol
  _atom_site_label
  _atom_site_symmetry_multiplicity
  _atom_site_fract_x
  _atom_site_fract_y
  _atom_site_fract_z
  _atom_site_occupancy
  Er  Er1       1.0  0.32200  0.09680  0.03750  1.0000
  Er  Er2       1.0  0.32200  0.40300  0.03750  1.0000
  Er  Er3       1.0  0.75900  0.25000  0.04220  1.0000
  Er  Er4       1.0  0.25900  0.25000  0.45800  1.0000
  Er  Er5       1.0  0.82200  0.09680  0.46300  1.0000
  Er  Er6       1.0  0.82200  0.40300  0.46300  1.0000
  Er  Er7       1.0  0.17800  0.59700  0.53700  1.0000
  Er  Er8       1.0  0.17800  0.90300  0.53700  1.0000
  Er  Er9       1.0  0.74100  0.75000  0.54200  1.0000
  Er  Er10      1.0  0.24100  0.75000  0.95800  1.0000
  Er  Er11      1.0  0.67800  0.59700  0.96300  1.0000
  Er  Er12      1.0  0.67800  0.90300  0.96300  1.0000
  F   F1        1.0  0.62000  0.75000  0.13500  1.0000
  F   F2        1.0  0.33400  0.62600  0.16900  1.0000
  F   F3        1.0  0.33400  0.87400  0.16900  1.0000
  F   F4        1.0  0.60800  0.01240  0.22300  1.0000
  F   F5        1.0  0.60800  0.48800  0.22300  1.0000
  F   F6        1.0  0.10800  0.01240  0.27700  1.0000
  F   F7        1.0  0.10800  0.48800  0.27700  1.0000
  F   F8        1.0  0.83400  0.62600  0.33100  1.0000
  F   F9        1.0  0.83400  0.87400  0.33100  1.0000
  F   F10       1.0  0.12000  0.75000  0.36500  1.0000
  F   F11       1.0  0.88000  0.25000  0.63500  1.0000
  F   F12       1.0  0.16600  0.12600  0.66900  1.0000
  F   F13       1.0  0.16600  0.37400  0.66900  1.0000
  F   F14       1.0  0.89200  0.51200  0.72300  1.0000
  F   F15       1.0  0.89200  0.98800  0.72300  1.0000
  F   F16       1.0  0.39200  0.51200  0.77700  1.0000
  F   F17       1.0  0.39200  0.98800  0.77700  1.0000
  F   F18       1.0  0.66600  0.12600  0.83100  1.0000
  F   F19       1.0  0.66600  0.37400  0.83100  1.0000
  F   F20       1.0  0.38000  0.25000  0.86500  1.0000
  O   O1        1.0  0.03470  0.16800  0.20100  1.0000
  O   O2        1.0  0.03470  0.33200  0.20100  1.0000
  O   O3        1.0  0.53500  0.16800  0.29900  1.0000
  O   O4        1.0  0.53500  0.33200  0.29900  1.0000
  O   O5        1.0  0.46500  0.66800  0.70100  1.0000
  O   O6        1.0  0.46500  0.83200  0.70100  1.0000
  O   O7        1.0  0.96500  0.66800  0.79900  1.0000
  O   O8        1.0  0.96500  0.83200  0.79900  1.0000
