data_image0
_chemical_formula_structural       F2Ho6O24Se8
_chemical_formula_sum              "F2 Ho6 O24 Se8"
_cell_length_a       10.2301
_cell_length_b       10.23
_cell_length_c       6.70528
_cell_angle_alpha    90
_cell_angle_beta     90
_cell_angle_gamma    120

_space_group_name_H-M_alt    "P 1"
_space_group_IT_number       1

loop_
  _space_group_symop_operation_xyz
  'x, y, z'

loop_
  _atom_site_type_symbol
  _atom_site_label
  _atom_site_symmetry_multiplicity
  _atom_site_fract_x
  _atom_site_fract_y
  _atom_site_fract_z
  _atom_site_occupancy
  F   F1        1.0  0.33300  0.66700  0.25500  1.0000
  F   F2        1.0  0.66700  0.33300  0.75500  1.0000
  Ho  Ho1       1.0  0.46200  0.92400  0.20400  1.0000
  Ho  Ho2       1.0  0.07570  0.53800  0.20400  1.0000
  Ho  Ho3       1.0  0.46200  0.53800  0.20400  1.0000
  Ho  Ho4       1.0  0.53800  0.07570  0.70400  1.0000
  Ho  Ho5       1.0  0.53800  0.46200  0.70400  1.0000
  Ho  Ho6       1.0  0.92400  0.46200  0.70400  1.0000
  O   O1        1.0  0.41400  0.07930  0.00811  1.0000
  O   O2        1.0  0.66500  0.07930  0.00811  1.0000
  O   O3        1.0  0.66500  0.58600  0.00811  1.0000
  O   O4        1.0  0.92100  0.58600  0.00811  1.0000
  O   O5        1.0  0.41400  0.33500  0.00811  1.0000
  O   O6        1.0  0.92100  0.33500  0.00811  1.0000
  O   O7        1.0  0.17800  0.35700  0.19000  1.0000
  O   O8        1.0  0.17800  0.82200  0.19000  1.0000
  O   O9        1.0  0.64300  0.82200  0.19000  1.0000
  O   O10       1.0  0.58000  0.16000  0.37900  1.0000
  O   O11       1.0  0.58000  0.42000  0.37900  1.0000
  O   O12       1.0  0.84000  0.42000  0.37900  1.0000
  O   O13       1.0  0.07930  0.41400  0.50800  1.0000
  O   O14       1.0  0.33500  0.41400  0.50800  1.0000
  O   O15       1.0  0.33500  0.92100  0.50800  1.0000
  O   O16       1.0  0.58600  0.92100  0.50800  1.0000
  O   O17       1.0  0.07930  0.66500  0.50800  1.0000
  O   O18       1.0  0.58600  0.66500  0.50800  1.0000
  O   O19       1.0  0.35700  0.17800  0.69000  1.0000
  O   O20       1.0  0.82200  0.17800  0.69000  1.0000
  O   O21       1.0  0.82200  0.64300  0.69000  1.0000
  O   O22       1.0  0.42000  0.84000  0.87900  1.0000
  O   O23       1.0  0.16000  0.58000  0.87900  1.0000
  O   O24       1.0  0.42000  0.58000  0.87900  1.0000
  Se  Se1       1.0  0.66700  0.33300  0.26000  1.0000
  Se  Se2       1.0  0.15100  0.84900  0.43600  1.0000
  Se  Se3       1.0  0.69800  0.84900  0.43600  1.0000
  Se  Se4       1.0  0.15100  0.30200  0.43600  1.0000
  Se  Se5       1.0  0.33300  0.66700  0.76000  1.0000
  Se  Se6       1.0  0.30200  0.15100  0.93600  1.0000
  Se  Se7       1.0  0.84900  0.15100  0.93600  1.0000
  Se  Se8       1.0  0.84900  0.69800  0.93600  1.0000
