data_image0
_chemical_formula_structural       Cl10Cr2Cs4H16O8
_chemical_formula_sum              "Cl10 Cr2 Cs4 H16 O8"
_cell_length_a       6.08452
_cell_length_b       9.99304
_cell_length_c       12.9299
_cell_angle_alpha    98.5549
_cell_angle_beta     103.609
_cell_angle_gamma    107.724

_space_group_name_H-M_alt    "P 1"
_space_group_IT_number       1

loop_
  _space_group_symop_operation_xyz
  'x, y, z'

loop_
  _atom_site_type_symbol
  _atom_site_label
  _atom_site_symmetry_multiplicity
  _atom_site_fract_x
  _atom_site_fract_y
  _atom_site_fract_z
  _atom_site_occupancy
  Cl  Cl1       1.0  0.36800  0.68400  0.07090  1.0000
  Cl  Cl2       1.0  0.05940  0.95800  0.17600  1.0000
  Cl  Cl3       1.0  0.76400  0.25000  0.25000  1.0000
  Cl  Cl4       1.0  0.42600  0.54200  0.32400  1.0000
  Cl  Cl5       1.0  0.11300  0.81600  0.42900  1.0000
  Cl  Cl6       1.0  0.88700  0.18400  0.57100  1.0000
  Cl  Cl7       1.0  0.57400  0.45800  0.67600  1.0000
  Cl  Cl8       1.0  0.23600  0.75000  0.75000  1.0000
  Cl  Cl9       1.0  0.94100  0.04190  0.82400  1.0000
  Cl  Cl10      1.0  0.63200  0.31600  0.92900  1.0000
  Cr  Cr1       1.0  0.00000  0.00000  0.00000  1.0000
  Cr  Cr2       1.0  0.50000  0.50000  0.50000  1.0000
  Cs  Cs1       1.0  0.86200  0.57700  0.17100  1.0000
  Cs  Cs2       1.0  0.61400  0.92300  0.32900  1.0000
  Cs  Cs3       1.0  0.38600  0.07670  0.67100  1.0000
  Cs  Cs4       1.0  0.13800  0.42300  0.82900  1.0000
  H   H1        1.0  0.57500  0.83000  0.00786  1.0000
  H   H2        1.0  0.85800  0.22500  0.00794  1.0000
  H   H3        1.0  0.45900  0.14000  0.11200  1.0000
  H   H4        1.0  0.93200  0.20200  0.12800  1.0000
  H   H5        1.0  0.10200  0.29800  0.37200  1.0000
  H   H6        1.0  0.70700  0.36000  0.38800  1.0000
  H   H7        1.0  0.12400  0.27500  0.49200  1.0000
  H   H8        1.0  0.23700  0.67000  0.49200  1.0000
  H   H9        1.0  0.76300  0.33000  0.50800  1.0000
  H   H10       1.0  0.87600  0.72500  0.50800  1.0000
  H   H11       1.0  0.29300  0.64000  0.61200  1.0000
  H   H12       1.0  0.89800  0.70200  0.62800  1.0000
  H   H13       1.0  0.06810  0.79800  0.87200  1.0000
  H   H14       1.0  0.54100  0.86000  0.88800  1.0000
  H   H15       1.0  0.14200  0.77500  0.99200  1.0000
  H   H16       1.0  0.42500  0.17000  0.99200  1.0000
  O   O1        1.0  0.35900  0.09910  0.03450  1.0000
  O   O2        1.0  0.97500  0.19400  0.05870  1.0000
  O   O3        1.0  0.22200  0.30600  0.44100  1.0000
  O   O4        1.0  0.72500  0.40100  0.46600  1.0000
  O   O5        1.0  0.27500  0.59900  0.53400  1.0000
  O   O6        1.0  0.77800  0.69400  0.55900  1.0000
  O   O7        1.0  0.02520  0.80600  0.94100  1.0000
  O   O8        1.0  0.64100  0.90100  0.96600  1.0000
