data_image0
_chemical_formula_structural       Co8Nd8Sb24
_chemical_formula_sum              "Co8 Nd8 Sb24"
_cell_length_a       12.7744
_cell_length_b       6.16569
_cell_length_c       12.1525
_cell_angle_alpha    90
_cell_angle_beta     90
_cell_angle_gamma    90

_space_group_name_H-M_alt    "P 1"
_space_group_IT_number       1

loop_
  _space_group_symop_operation_xyz
  'x, y, z'

loop_
  _atom_site_type_symbol
  _atom_site_label
  _atom_site_symmetry_multiplicity
  _atom_site_fract_x
  _atom_site_fract_y
  _atom_site_fract_z
  _atom_site_occupancy
  Co  Co1       1.0  0.09790  0.46200  0.13600  1.0000
  Co  Co2       1.0  0.90200  0.96200  0.13600  1.0000
  Co  Co3       1.0  0.09790  0.46200  0.36400  1.0000
  Co  Co4       1.0  0.90200  0.96200  0.36400  1.0000
  Co  Co5       1.0  0.09790  0.03850  0.63600  1.0000
  Co  Co6       1.0  0.90200  0.53800  0.63600  1.0000
  Co  Co7       1.0  0.09790  0.03850  0.86400  1.0000
  Co  Co8       1.0  0.90200  0.53800  0.86400  1.0000
  Nd  Nd1       1.0  0.70100  0.25000  0.00000  1.0000
  Nd  Nd2       1.0  0.29900  0.75000  0.00000  1.0000
  Nd  Nd3       1.0  0.30300  0.22400  0.25000  1.0000
  Nd  Nd4       1.0  0.69700  0.72400  0.25000  1.0000
  Nd  Nd5       1.0  0.70100  0.25000  0.50000  1.0000
  Nd  Nd6       1.0  0.29900  0.75000  0.50000  1.0000
  Nd  Nd7       1.0  0.30300  0.27600  0.75000  1.0000
  Nd  Nd8       1.0  0.69700  0.77600  0.75000  1.0000
  Sb  Sb1       1.0  0.21900  0.25000  0.00000  1.0000
  Sb  Sb2       1.0  0.97200  0.25000  0.00000  1.0000
  Sb  Sb3       1.0  0.02800  0.75000  0.00000  1.0000
  Sb  Sb4       1.0  0.78100  0.75000  0.00000  1.0000
  Sb  Sb5       1.0  0.49800  0.48600  0.12400  1.0000
  Sb  Sb6       1.0  0.50200  0.98600  0.12400  1.0000
  Sb  Sb7       1.0  0.05540  0.11500  0.25000  1.0000
  Sb  Sb8       1.0  0.78600  0.23200  0.25000  1.0000
  Sb  Sb9       1.0  0.94500  0.61500  0.25000  1.0000
  Sb  Sb10      1.0  0.21400  0.73200  0.25000  1.0000
  Sb  Sb11      1.0  0.49800  0.48600  0.37600  1.0000
  Sb  Sb12      1.0  0.50200  0.98600  0.37600  1.0000
  Sb  Sb13      1.0  0.21900  0.25000  0.50000  1.0000
  Sb  Sb14      1.0  0.97200  0.25000  0.50000  1.0000
  Sb  Sb15      1.0  0.02800  0.75000  0.50000  1.0000
  Sb  Sb16      1.0  0.78100  0.75000  0.50000  1.0000
  Sb  Sb17      1.0  0.49800  0.01360  0.62400  1.0000
  Sb  Sb18      1.0  0.50200  0.51400  0.62400  1.0000
  Sb  Sb19      1.0  0.78600  0.26800  0.75000  1.0000
  Sb  Sb20      1.0  0.05540  0.38500  0.75000  1.0000
  Sb  Sb21      1.0  0.21400  0.76800  0.75000  1.0000
  Sb  Sb22      1.0  0.94500  0.88500  0.75000  1.0000
  Sb  Sb23      1.0  0.49800  0.01360  0.87600  1.0000
  Sb  Sb24      1.0  0.50200  0.51400  0.87600  1.0000
