data_image0
_chemical_formula_structural       MgZn3
_chemical_formula_sum              "Mg1 Zn3"
_cell_length_a       2.91573
_cell_length_b       5.38725
_cell_length_c       4.89314
_cell_angle_alpha    62.9904
_cell_angle_beta     90
_cell_angle_gamma    74.2992

_space_group_name_H-M_alt    "P 1"
_space_group_IT_number       1

loop_
  _space_group_symop_operation_xyz
  'x, y, z'

loop_
  _atom_site_type_symbol
  _atom_site_label
  _atom_site_symmetry_multiplicity
  _atom_site_fract_x
  _atom_site_fract_y
  _atom_site_fract_z
  _atom_site_occupancy
  Mg  Mg1       1.0  0.75000  0.50000  0.08750  1.0000
  Zn  Zn1       1.0  0.99700  0.00525  0.99700  1.0000
  Zn  Zn2       1.0  0.50300  0.99500  0.50300  1.0000
  Zn  Zn3       1.0  0.25000  0.50000  0.57900  1.0000
