data_image0
_chemical_formula_structural       O26Sc4Te10
_chemical_formula_sum              "O26 Sc4 Te10"
_cell_length_a       6.57071
_cell_length_b       8.48845
_cell_length_c       10.2772
_cell_angle_alpha    86.9464
_cell_angle_beta     86.4752
_cell_angle_gamma    74.2752

_space_group_name_H-M_alt    "P 1"
_space_group_IT_number       1

loop_
  _space_group_symop_operation_xyz
  'x, y, z'

loop_
  _atom_site_type_symbol
  _atom_site_label
  _atom_site_symmetry_multiplicity
  _atom_site_fract_x
  _atom_site_fract_y
  _atom_site_fract_z
  _atom_site_occupancy
  O   O1        1.0  0.48500  0.67900  0.01170  1.0000
  O   O2        1.0  0.04540  0.82900  0.04780  1.0000
  O   O3        1.0  0.85800  0.50000  0.08950  1.0000
  O   O4        1.0  0.35100  0.00000  0.11700  1.0000
  O   O5        1.0  0.23500  0.51700  0.18500  1.0000
  O   O6        1.0  0.69500  0.76900  0.22200  1.0000
  O   O7        1.0  0.64900  0.27900  0.22800  1.0000
  O   O8        1.0  0.07580  0.26900  0.28800  1.0000
  O   O9        1.0  0.31800  0.74700  0.29500  1.0000
  O   O10       1.0  0.91700  0.98500  0.31000  1.0000
  O   O11       1.0  0.66200  0.49000  0.38800  1.0000
  O   O12       1.0  0.97900  0.64400  0.43500  1.0000
  O   O13       1.0  0.55200  0.81800  0.48800  1.0000
  O   O14       1.0  0.44800  0.18200  0.51200  1.0000
  O   O15       1.0  0.02110  0.35600  0.56500  1.0000
  O   O16       1.0  0.33800  0.51000  0.61200  1.0000
  O   O17       1.0  0.08280  0.01500  0.69000  1.0000
  O   O18       1.0  0.68200  0.25300  0.70500  1.0000
  O   O19       1.0  0.92400  0.73100  0.71200  1.0000
  O   O20       1.0  0.35100  0.72100  0.77200  1.0000
  O   O21       1.0  0.30500  0.23100  0.77800  1.0000
  O   O22       1.0  0.76500  0.48300  0.81500  1.0000
  O   O23       1.0  0.64900  0.00029  0.88300  1.0000
  O   O24       1.0  0.14200  0.50000  0.91100  1.0000
  O   O25       1.0  0.95500  0.17100  0.95200  1.0000
  O   O26       1.0  0.51500  0.32100  0.98800  1.0000
  Sc  Sc1       1.0  0.55300  0.54500  0.19200  1.0000
  Sc  Sc2       1.0  0.01110  0.75500  0.24600  1.0000
  Sc  Sc3       1.0  0.98900  0.24500  0.75400  1.0000
  Sc  Sc4       1.0  0.44700  0.45500  0.80800  1.0000
  Te  Te1       1.0  0.71100  0.11400  0.03080  1.0000
  Te  Te2       1.0  0.14900  0.35600  0.09450  1.0000
  Te  Te3       1.0  0.45600  0.91600  0.30300  1.0000
  Te  Te4       1.0  0.83500  0.20400  0.36900  1.0000
  Te  Te5       1.0  0.26300  0.39900  0.47000  1.0000
  Te  Te6       1.0  0.73700  0.60100  0.53000  1.0000
  Te  Te7       1.0  0.16500  0.79600  0.63100  1.0000
  Te  Te8       1.0  0.54400  0.08370  0.69700  1.0000
  Te  Te9       1.0  0.85100  0.64400  0.90500  1.0000
  Te  Te10      1.0  0.28900  0.88600  0.96900  1.0000
