data_image0
_chemical_formula_structural       Ag4H8Na4O16S8
_chemical_formula_sum              "Ag4 H8 Na4 O16 S8"
_cell_length_a       7.71402
_cell_length_b       8.9893
_cell_length_c       7.6766
_cell_angle_alpha    90
_cell_angle_beta     96.6902
_cell_angle_gamma    90

_space_group_name_H-M_alt    "P 1"
_space_group_IT_number       1

loop_
  _space_group_symop_operation_xyz
  'x, y, z'

loop_
  _atom_site_type_symbol
  _atom_site_label
  _atom_site_symmetry_multiplicity
  _atom_site_fract_x
  _atom_site_fract_y
  _atom_site_fract_z
  _atom_site_occupancy
  Ag  Ag1       1.0  0.99500  0.04520  0.00106  1.0000
  Ag  Ag2       1.0  0.48900  0.06350  0.20000  1.0000
  Ag  Ag3       1.0  0.99500  0.95500  0.50100  1.0000
  Ag  Ag4       1.0  0.48900  0.93600  0.70000  1.0000
  H   H1        1.0  0.75500  0.30000  0.32700  1.0000
  H   H2        1.0  0.24900  0.72400  0.33200  1.0000
  H   H3        1.0  0.62200  0.29300  0.46300  1.0000
  H   H4        1.0  0.14400  0.67900  0.48300  1.0000
  H   H5        1.0  0.75500  0.70000  0.82700  1.0000
  H   H6        1.0  0.24900  0.27600  0.83200  1.0000
  H   H7        1.0  0.62200  0.70700  0.96300  1.0000
  H   H8        1.0  0.14400  0.32100  0.98300  1.0000
  Na  Na1       1.0  0.46500  0.48500  0.16000  1.0000
  Na  Na2       1.0  0.95700  0.55800  0.17200  1.0000
  Na  Na3       1.0  0.46500  0.51500  0.66000  1.0000
  Na  Na4       1.0  0.95700  0.44200  0.67200  1.0000
  O   O1        1.0  0.30300  0.67800  0.00681  1.0000
  O   O2        1.0  0.79500  0.37300  0.01300  1.0000
  O   O3        1.0  0.19800  0.38600  0.20200  1.0000
  O   O4        1.0  0.70100  0.68700  0.20600  1.0000
  O   O5        1.0  0.62900  0.30600  0.33800  1.0000
  O   O6        1.0  0.12900  0.71300  0.36000  1.0000
  O   O7        1.0  0.99100  0.32200  0.40500  1.0000
  O   O8        1.0  0.48500  0.65300  0.40800  1.0000
  O   O9        1.0  0.30300  0.32200  0.50700  1.0000
  O   O10       1.0  0.79500  0.62700  0.51300  1.0000
  O   O11       1.0  0.19800  0.61400  0.70200  1.0000
  O   O12       1.0  0.70100  0.31300  0.70600  1.0000
  O   O13       1.0  0.62900  0.69400  0.83800  1.0000
  O   O14       1.0  0.12900  0.28700  0.86000  1.0000
  O   O15       1.0  0.99100  0.67800  0.90500  1.0000
  O   O16       1.0  0.48500  0.34700  0.90800  1.0000
  S   S1        1.0  0.18700  0.07370  0.28800  1.0000
  S   S2        1.0  0.16900  0.29500  0.35900  1.0000
  S   S3        1.0  0.66500  0.70400  0.39100  1.0000
  S   S4        1.0  0.67500  0.92800  0.45300  1.0000
  S   S5        1.0  0.18700  0.92600  0.78800  1.0000
  S   S6        1.0  0.16900  0.70500  0.85900  1.0000
  S   S7        1.0  0.66500  0.29600  0.89100  1.0000
  S   S8        1.0  0.67500  0.07160  0.95300  1.0000
