data_image0
_chemical_formula_structural       As28Cs8Na4
_chemical_formula_sum              "As28 Cs8 Na4"
_cell_length_a       11.9923
_cell_length_b       11.0614
_cell_length_c       10.3729
_cell_angle_alpha    90
_cell_angle_beta     90.2358
_cell_angle_gamma    90

_space_group_name_H-M_alt    "P 1"
_space_group_IT_number       1

loop_
  _space_group_symop_operation_xyz
  'x, y, z'

loop_
  _atom_site_type_symbol
  _atom_site_label
  _atom_site_symmetry_multiplicity
  _atom_site_fract_x
  _atom_site_fract_y
  _atom_site_fract_z
  _atom_site_occupancy
  As  As1       1.0  0.25500  0.95600  0.01550  1.0000
  As  As2       1.0  0.32800  0.13800  0.10400  1.0000
  As  As3       1.0  0.61300  0.36300  0.16800  1.0000
  As  As4       1.0  0.90500  0.50200  0.17500  1.0000
  As  As5       1.0  0.77900  0.66800  0.18400  1.0000
  As  As6       1.0  0.58400  0.57600  0.18400  1.0000
  As  As7       1.0  0.20900  0.84900  0.21700  1.0000
  As  As8       1.0  0.79100  0.34900  0.28300  1.0000
  As  As9       1.0  0.41600  0.07620  0.31600  1.0000
  As  As10      1.0  0.22100  0.16800  0.31600  1.0000
  As  As11      1.0  0.09510  0.00183  0.32500  1.0000
  As  As12      1.0  0.38700  0.86300  0.33200  1.0000
  As  As13      1.0  0.67200  0.63800  0.39600  1.0000
  As  As14      1.0  0.74500  0.45600  0.48400  1.0000
  As  As15      1.0  0.25500  0.54400  0.51600  1.0000
  As  As16      1.0  0.32800  0.36200  0.60400  1.0000
  As  As17      1.0  0.61300  0.13700  0.66800  1.0000
  As  As18      1.0  0.90500  0.99800  0.67500  1.0000
  As  As19      1.0  0.77900  0.83200  0.68400  1.0000
  As  As20      1.0  0.58400  0.92400  0.68400  1.0000
  As  As21      1.0  0.20900  0.65100  0.71700  1.0000
  As  As22      1.0  0.79100  0.15100  0.78300  1.0000
  As  As23      1.0  0.41600  0.42400  0.81600  1.0000
  As  As24      1.0  0.22100  0.33200  0.81600  1.0000
  As  As25      1.0  0.09510  0.49800  0.82500  1.0000
  As  As26      1.0  0.38700  0.63700  0.83200  1.0000
  As  As27      1.0  0.67200  0.86200  0.89600  1.0000
  As  As28      1.0  0.74500  0.04410  0.98400  1.0000
  Cs  Cs1       1.0  0.01160  0.20000  0.04010  1.0000
  Cs  Cs2       1.0  0.26300  0.50100  0.14900  1.0000
  Cs  Cs3       1.0  0.73700  0.00098  0.35100  1.0000
  Cs  Cs4       1.0  0.98800  0.70000  0.46000  1.0000
  Cs  Cs5       1.0  0.01160  0.30000  0.54000  1.0000
  Cs  Cs6       1.0  0.26300  0.99900  0.64900  1.0000
  Cs  Cs7       1.0  0.73700  0.49900  0.85100  1.0000
  Cs  Cs8       1.0  0.98800  0.80000  0.96000  1.0000
  Na  Na1       1.0  0.46400  0.80800  0.05600  1.0000
  Na  Na2       1.0  0.53600  0.30800  0.44400  1.0000
  Na  Na3       1.0  0.46400  0.69200  0.55600  1.0000
  Na  Na4       1.0  0.53600  0.19200  0.94400  1.0000
