data_image0
_chemical_formula_structural       Cl28Ga8In4
_chemical_formula_sum              "Cl28 Ga8 In4"
_cell_length_a       11.9537
_cell_length_b       8.99143
_cell_length_c       10.766
_cell_angle_alpha    90
_cell_angle_beta     90
_cell_angle_gamma    90

_space_group_name_H-M_alt    "P 1"
_space_group_IT_number       1

loop_
  _space_group_symop_operation_xyz
  'x, y, z'

loop_
  _atom_site_type_symbol
  _atom_site_label
  _atom_site_symmetry_multiplicity
  _atom_site_fract_x
  _atom_site_fract_y
  _atom_site_fract_z
  _atom_site_occupancy
  Cl  Cl1       1.0  0.98400  0.66700  0.05310  1.0000
  Cl  Cl2       1.0  0.48400  0.83300  0.05310  1.0000
  Cl  Cl3       1.0  0.79000  0.01700  0.09590  1.0000
  Cl  Cl4       1.0  0.29000  0.48300  0.09590  1.0000
  Cl  Cl5       1.0  0.71000  0.54500  0.15500  1.0000
  Cl  Cl6       1.0  0.21000  0.95500  0.15500  1.0000
  Cl  Cl7       1.0  0.49400  0.19600  0.18600  1.0000
  Cl  Cl8       1.0  0.99400  0.30400  0.18600  1.0000
  Cl  Cl9       1.0  0.47300  0.53800  0.36400  1.0000
  Cl  Cl10      1.0  0.97300  0.96200  0.36400  1.0000
  Cl  Cl11      1.0  0.75700  0.24300  0.36800  1.0000
  Cl  Cl12      1.0  0.25700  0.25700  0.36800  1.0000
  Cl  Cl13      1.0  0.15800  0.63100  0.38500  1.0000
  Cl  Cl14      1.0  0.65800  0.86900  0.38500  1.0000
  Cl  Cl15      1.0  0.51600  0.16700  0.55300  1.0000
  Cl  Cl16      1.0  0.01640  0.33300  0.55300  1.0000
  Cl  Cl17      1.0  0.71000  0.51700  0.59600  1.0000
  Cl  Cl18      1.0  0.21000  0.98300  0.59600  1.0000
  Cl  Cl19      1.0  0.79000  0.04550  0.65500  1.0000
  Cl  Cl20      1.0  0.29000  0.45500  0.65500  1.0000
  Cl  Cl21      1.0  0.00637  0.69600  0.68600  1.0000
  Cl  Cl22      1.0  0.50600  0.80400  0.68600  1.0000
  Cl  Cl23      1.0  0.02750  0.03790  0.86400  1.0000
  Cl  Cl24      1.0  0.52700  0.46200  0.86400  1.0000
  Cl  Cl25      1.0  0.74300  0.74300  0.86800  1.0000
  Cl  Cl26      1.0  0.24300  0.75700  0.86800  1.0000
  Cl  Cl27      1.0  0.34200  0.13100  0.88500  1.0000
  Cl  Cl28      1.0  0.84200  0.36900  0.88500  1.0000
  Ga  Ga1       1.0  0.82500  0.56900  0.00000  1.0000
  Ga  Ga2       1.0  0.32500  0.93100  0.00000  1.0000
  Ga  Ga3       1.0  0.88700  0.12000  0.24200  1.0000
  Ga  Ga4       1.0  0.38700  0.38000  0.24200  1.0000
  Ga  Ga5       1.0  0.67500  0.06910  0.50000  1.0000
  Ga  Ga6       1.0  0.17500  0.43100  0.50000  1.0000
  Ga  Ga7       1.0  0.61300  0.62000  0.74200  1.0000
  Ga  Ga8       1.0  0.11300  0.88000  0.74200  1.0000
  In  In1       1.0  0.88600  0.63400  0.37900  1.0000
  In  In2       1.0  0.38600  0.86600  0.37900  1.0000
  In  In3       1.0  0.61400  0.13400  0.87900  1.0000
  In  In4       1.0  0.11400  0.36600  0.87900  1.0000
