data_image0
_chemical_formula_structural       Bi4Cu16I4Se16
_chemical_formula_sum              "Bi4 Cu16 I4 Se16"
_cell_length_a       9.70901
_cell_length_b       4.12329
_cell_length_c       23.0842
_cell_angle_alpha    90
_cell_angle_beta     90
_cell_angle_gamma    90

_space_group_name_H-M_alt    "P 1"
_space_group_IT_number       1

loop_
  _space_group_symop_operation_xyz
  'x, y, z'

loop_
  _atom_site_type_symbol
  _atom_site_label
  _atom_site_symmetry_multiplicity
  _atom_site_fract_x
  _atom_site_fract_y
  _atom_site_fract_z
  _atom_site_occupancy
  Bi  Bi1       1.0  0.28000  0.75000  0.12400  1.0000
  Bi  Bi2       1.0  0.78000  0.75000  0.37600  1.0000
  Bi  Bi3       1.0  0.22000  0.25000  0.62400  1.0000
  Bi  Bi4       1.0  0.72000  0.25000  0.87600  1.0000
  Cu  Cu1       1.0  0.96100  0.75000  0.03020  1.0000
  Cu  Cu2       1.0  0.64900  0.25000  0.09580  1.0000
  Cu  Cu3       1.0  0.85400  0.75000  0.20600  1.0000
  Cu  Cu4       1.0  0.02000  0.25000  0.23800  1.0000
  Cu  Cu5       1.0  0.52000  0.25000  0.26200  1.0000
  Cu  Cu6       1.0  0.35400  0.75000  0.29400  1.0000
  Cu  Cu7       1.0  0.14900  0.25000  0.40400  1.0000
  Cu  Cu8       1.0  0.46100  0.75000  0.47000  1.0000
  Cu  Cu9       1.0  0.53900  0.25000  0.53000  1.0000
  Cu  Cu10      1.0  0.85100  0.75000  0.59600  1.0000
  Cu  Cu11      1.0  0.64600  0.25000  0.70600  1.0000
  Cu  Cu12      1.0  0.48000  0.75000  0.73800  1.0000
  Cu  Cu13      1.0  0.98000  0.75000  0.76200  1.0000
  Cu  Cu14      1.0  0.14600  0.25000  0.79400  1.0000
  Cu  Cu15      1.0  0.35100  0.75000  0.90400  1.0000
  Cu  Cu16      1.0  0.03880  0.25000  0.97000  1.0000
  I   I1        1.0  0.68400  0.75000  0.02560  1.0000
  I   I2        1.0  0.18400  0.75000  0.47400  1.0000
  I   I3        1.0  0.81600  0.25000  0.52600  1.0000
  I   I4        1.0  0.31600  0.25000  0.97400  1.0000
  Se  Se1       1.0  0.04260  0.25000  0.07860  1.0000
  Se  Se2       1.0  0.85800  0.25000  0.15500  1.0000
  Se  Se3       1.0  0.46000  0.25000  0.15900  1.0000
  Se  Se4       1.0  0.15900  0.75000  0.23000  1.0000
  Se  Se5       1.0  0.65900  0.75000  0.27000  1.0000
  Se  Se6       1.0  0.96000  0.25000  0.34100  1.0000
  Se  Se7       1.0  0.35800  0.25000  0.34500  1.0000
  Se  Se8       1.0  0.54300  0.25000  0.42100  1.0000
  Se  Se9       1.0  0.45700  0.75000  0.57900  1.0000
  Se  Se10      1.0  0.64200  0.75000  0.65500  1.0000
  Se  Se11      1.0  0.03960  0.75000  0.65900  1.0000
  Se  Se12      1.0  0.34100  0.25000  0.73000  1.0000
  Se  Se13      1.0  0.84100  0.25000  0.77000  1.0000
  Se  Se14      1.0  0.54000  0.75000  0.84100  1.0000
  Se  Se15      1.0  0.14200  0.75000  0.84500  1.0000
  Se  Se16      1.0  0.95700  0.75000  0.92100  1.0000
