data_image0
_chemical_formula_structural       Ni2Zr2
_chemical_formula_sum              "Ni2 Zr2"
_cell_length_a       3.27737
_cell_length_b       4.09631
_cell_length_c       5.23631
_cell_angle_alpha    90
_cell_angle_beta     71.7631
_cell_angle_gamma    90

_space_group_name_H-M_alt    "P 1"
_space_group_IT_number       1

loop_
  _space_group_symop_operation_xyz
  'x, y, z'

loop_
  _atom_site_type_symbol
  _atom_site_label
  _atom_site_symmetry_multiplicity
  _atom_site_fract_x
  _atom_site_fract_y
  _atom_site_fract_z
  _atom_site_occupancy
  Ni  Ni1       1.0  0.91800  0.25000  0.16400  1.0000
  Ni  Ni2       1.0  0.08200  0.75000  0.83600  1.0000
  Zr  Zr1       1.0  0.36100  0.75000  0.27900  1.0000
  Zr  Zr2       1.0  0.63900  0.25000  0.72100  1.0000
