data_image0
_chemical_formula_structural       Ce8Co8Sb24
_chemical_formula_sum              "Ce8 Co8 Sb24"
_cell_length_a       12.9877
_cell_length_b       6.18596
_cell_length_c       12.1883
_cell_angle_alpha    90
_cell_angle_beta     90
_cell_angle_gamma    90

_space_group_name_H-M_alt    "P 1"
_space_group_IT_number       1

loop_
  _space_group_symop_operation_xyz
  'x, y, z'

loop_
  _atom_site_type_symbol
  _atom_site_label
  _atom_site_symmetry_multiplicity
  _atom_site_fract_x
  _atom_site_fract_y
  _atom_site_fract_z
  _atom_site_occupancy
  Ce  Ce1       1.0  0.70100  0.25000  0.00000  1.0000
  Ce  Ce2       1.0  0.29900  0.75000  0.00000  1.0000
  Ce  Ce3       1.0  0.30200  0.22700  0.25000  1.0000
  Ce  Ce4       1.0  0.69800  0.72700  0.25000  1.0000
  Ce  Ce5       1.0  0.70100  0.25000  0.50000  1.0000
  Ce  Ce6       1.0  0.29900  0.75000  0.50000  1.0000
  Ce  Ce7       1.0  0.30200  0.27300  0.75000  1.0000
  Ce  Ce8       1.0  0.69800  0.77300  0.75000  1.0000
  Co  Co1       1.0  0.09580  0.46300  0.13500  1.0000
  Co  Co2       1.0  0.90400  0.96300  0.13500  1.0000
  Co  Co3       1.0  0.09580  0.46300  0.36500  1.0000
  Co  Co4       1.0  0.90400  0.96300  0.36500  1.0000
  Co  Co5       1.0  0.09580  0.03740  0.63500  1.0000
  Co  Co6       1.0  0.90400  0.53700  0.63500  1.0000
  Co  Co7       1.0  0.09580  0.03740  0.86500  1.0000
  Co  Co8       1.0  0.90400  0.53700  0.86500  1.0000
  Sb  Sb1       1.0  0.21500  0.25000  0.00000  1.0000
  Sb  Sb2       1.0  0.97300  0.25000  0.00000  1.0000
  Sb  Sb3       1.0  0.02740  0.75000  0.00000  1.0000
  Sb  Sb4       1.0  0.78500  0.75000  0.00000  1.0000
  Sb  Sb5       1.0  0.49800  0.48800  0.12400  1.0000
  Sb  Sb6       1.0  0.50200  0.98800  0.12400  1.0000
  Sb  Sb7       1.0  0.05450  0.11700  0.25000  1.0000
  Sb  Sb8       1.0  0.79100  0.23300  0.25000  1.0000
  Sb  Sb9       1.0  0.94500  0.61700  0.25000  1.0000
  Sb  Sb10      1.0  0.20900  0.73300  0.25000  1.0000
  Sb  Sb11      1.0  0.49800  0.48800  0.37600  1.0000
  Sb  Sb12      1.0  0.50200  0.98800  0.37600  1.0000
  Sb  Sb13      1.0  0.21500  0.25000  0.50000  1.0000
  Sb  Sb14      1.0  0.97300  0.25000  0.50000  1.0000
  Sb  Sb15      1.0  0.02740  0.75000  0.50000  1.0000
  Sb  Sb16      1.0  0.78500  0.75000  0.50000  1.0000
  Sb  Sb17      1.0  0.49800  0.01170  0.62400  1.0000
  Sb  Sb18      1.0  0.50200  0.51200  0.62400  1.0000
  Sb  Sb19      1.0  0.79100  0.26700  0.75000  1.0000
  Sb  Sb20      1.0  0.05450  0.38300  0.75000  1.0000
  Sb  Sb21      1.0  0.20900  0.76700  0.75000  1.0000
  Sb  Sb22      1.0  0.94500  0.88300  0.75000  1.0000
  Sb  Sb23      1.0  0.49800  0.01170  0.87600  1.0000
  Sb  Sb24      1.0  0.50200  0.51200  0.87600  1.0000
