data_image0
_chemical_formula_structural       Au2Na2O28S8
_chemical_formula_sum              "Au2 Na2 O28 S8"
_cell_length_a       5.26771
_cell_length_b       11.828
_cell_length_c       8.8783
_cell_angle_alpha    90
_cell_angle_beta     97.7724
_cell_angle_gamma    90

_space_group_name_H-M_alt    "P 1"
_space_group_IT_number       1

loop_
  _space_group_symop_operation_xyz
  'x, y, z'

loop_
  _atom_site_type_symbol
  _atom_site_label
  _atom_site_symmetry_multiplicity
  _atom_site_fract_x
  _atom_site_fract_y
  _atom_site_fract_z
  _atom_site_occupancy
  Au  Au1       1.0  0.00000  0.00000  0.00000  1.0000
  Au  Au2       1.0  0.50000  0.50000  0.50000  1.0000
  Na  Na1       1.0  0.50000  0.50000  0.00000  1.0000
  Na  Na2       1.0  0.00000  0.00000  0.50000  1.0000
  O   O1        1.0  0.34300  0.32600  0.02230  1.0000
  O   O2        1.0  0.87400  0.84500  0.05280  1.0000
  O   O3        1.0  0.34500  0.95900  0.11400  1.0000
  O   O4        1.0  0.18900  0.55200  0.13900  1.0000
  O   O5        1.0  0.48900  0.15900  0.16000  1.0000
  O   O6        1.0  0.05730  0.24100  0.19300  1.0000
  O   O7        1.0  0.77300  0.50100  0.22200  1.0000
  O   O8        1.0  0.72700  0.00113  0.27800  1.0000
  O   O9        1.0  0.44300  0.74100  0.30700  1.0000
  O   O10       1.0  0.01100  0.65900  0.34000  1.0000
  O   O11       1.0  0.31100  0.05160  0.36100  1.0000
  O   O12       1.0  0.15500  0.45900  0.38600  1.0000
  O   O13       1.0  0.62600  0.34500  0.44700  1.0000
  O   O14       1.0  0.15700  0.82600  0.47800  1.0000
  O   O15       1.0  0.84300  0.17400  0.52200  1.0000
  O   O16       1.0  0.37400  0.65500  0.55300  1.0000
  O   O17       1.0  0.84500  0.54100  0.61400  1.0000
  O   O18       1.0  0.68900  0.94800  0.63900  1.0000
  O   O19       1.0  0.98900  0.34100  0.66000  1.0000
  O   O20       1.0  0.55700  0.25900  0.69300  1.0000
  O   O21       1.0  0.27300  0.99900  0.72200  1.0000
  O   O22       1.0  0.22700  0.49900  0.77800  1.0000
  O   O23       1.0  0.94300  0.75900  0.80700  1.0000
  O   O24       1.0  0.51100  0.84100  0.84000  1.0000
  O   O25       1.0  0.81100  0.44800  0.86100  1.0000
  O   O26       1.0  0.65500  0.04120  0.88600  1.0000
  O   O27       1.0  0.12600  0.15500  0.94700  1.0000
  O   O28       1.0  0.65700  0.67400  0.97800  1.0000
  S   S1        1.0  0.22900  0.23000  0.08280  1.0000
  S   S2        1.0  0.46600  0.03670  0.24200  1.0000
  S   S3        1.0  0.03410  0.53700  0.25800  1.0000
  S   S4        1.0  0.27100  0.73000  0.41700  1.0000
  S   S5        1.0  0.72900  0.27000  0.58300  1.0000
  S   S6        1.0  0.96600  0.46300  0.74200  1.0000
  S   S7        1.0  0.53400  0.96300  0.75800  1.0000
  S   S8        1.0  0.77100  0.77000  0.91700  1.0000
