data_image0
_chemical_formula_structural       Co8Sb24Sm8
_chemical_formula_sum              "Co8 Sb24 Sm8"
_cell_length_a       12.6076
_cell_length_b       6.15316
_cell_length_c       12.0969
_cell_angle_alpha    90
_cell_angle_beta     90
_cell_angle_gamma    90

_space_group_name_H-M_alt    "P 1"
_space_group_IT_number       1

loop_
  _space_group_symop_operation_xyz
  'x, y, z'

loop_
  _atom_site_type_symbol
  _atom_site_label
  _atom_site_symmetry_multiplicity
  _atom_site_fract_x
  _atom_site_fract_y
  _atom_site_fract_z
  _atom_site_occupancy
  Co  Co1       1.0  0.09970  0.46300  0.13600  1.0000
  Co  Co2       1.0  0.90000  0.96300  0.13600  1.0000
  Co  Co3       1.0  0.09970  0.46300  0.36400  1.0000
  Co  Co4       1.0  0.90000  0.96300  0.36400  1.0000
  Co  Co5       1.0  0.09970  0.03730  0.63600  1.0000
  Co  Co6       1.0  0.90000  0.53700  0.63600  1.0000
  Co  Co7       1.0  0.09970  0.03730  0.86400  1.0000
  Co  Co8       1.0  0.90000  0.53700  0.86400  1.0000
  Sb  Sb1       1.0  0.22300  0.25000  0.00000  1.0000
  Sb  Sb2       1.0  0.97200  0.25000  0.00000  1.0000
  Sb  Sb3       1.0  0.02790  0.75000  0.00000  1.0000
  Sb  Sb4       1.0  0.77700  0.75000  0.00000  1.0000
  Sb  Sb5       1.0  0.49700  0.48700  0.12400  1.0000
  Sb  Sb6       1.0  0.50300  0.98700  0.12400  1.0000
  Sb  Sb7       1.0  0.05570  0.11500  0.25000  1.0000
  Sb  Sb8       1.0  0.78300  0.23400  0.25000  1.0000
  Sb  Sb9       1.0  0.94400  0.61500  0.25000  1.0000
  Sb  Sb10      1.0  0.21700  0.73400  0.25000  1.0000
  Sb  Sb11      1.0  0.49700  0.48700  0.37600  1.0000
  Sb  Sb12      1.0  0.50300  0.98700  0.37600  1.0000
  Sb  Sb13      1.0  0.22300  0.25000  0.50000  1.0000
  Sb  Sb14      1.0  0.97200  0.25000  0.50000  1.0000
  Sb  Sb15      1.0  0.02790  0.75000  0.50000  1.0000
  Sb  Sb16      1.0  0.77700  0.75000  0.50000  1.0000
  Sb  Sb17      1.0  0.49700  0.01310  0.62400  1.0000
  Sb  Sb18      1.0  0.50300  0.51300  0.62400  1.0000
  Sb  Sb19      1.0  0.78300  0.26600  0.75000  1.0000
  Sb  Sb20      1.0  0.05570  0.38500  0.75000  1.0000
  Sb  Sb21      1.0  0.21700  0.76600  0.75000  1.0000
  Sb  Sb22      1.0  0.94400  0.88500  0.75000  1.0000
  Sb  Sb23      1.0  0.49700  0.01310  0.87600  1.0000
  Sb  Sb24      1.0  0.50300  0.51300  0.87600  1.0000
  Sm  Sm1       1.0  0.70000  0.25000  0.00000  1.0000
  Sm  Sm2       1.0  0.30000  0.75000  0.00000  1.0000
  Sm  Sm3       1.0  0.30300  0.22400  0.25000  1.0000
  Sm  Sm4       1.0  0.69700  0.72400  0.25000  1.0000
  Sm  Sm5       1.0  0.70000  0.25000  0.50000  1.0000
  Sm  Sm6       1.0  0.30000  0.75000  0.50000  1.0000
  Sm  Sm7       1.0  0.30300  0.27600  0.75000  1.0000
  Sm  Sm8       1.0  0.69700  0.77600  0.75000  1.0000
