data_image0
_chemical_formula_structural       Mn8Na4O16
_chemical_formula_sum              "Mn8 Na4 O16"
_cell_length_a       8.87856
_cell_length_b       11.0347
_cell_length_c       2.88201
_cell_angle_alpha    90
_cell_angle_beta     90
_cell_angle_gamma    90

_space_group_name_H-M_alt    "P 1"
_space_group_IT_number       1

loop_
  _space_group_symop_operation_xyz
  'x, y, z'

loop_
  _atom_site_type_symbol
  _atom_site_label
  _atom_site_symmetry_multiplicity
  _atom_site_fract_x
  _atom_site_fract_y
  _atom_site_fract_z
  _atom_site_occupancy
  Mn  Mn1       1.0  0.06860  0.11200  0.25000  1.0000
  Mn  Mn2       1.0  0.56900  0.38800  0.25000  1.0000
  Mn  Mn3       1.0  0.08200  0.59700  0.25000  1.0000
  Mn  Mn4       1.0  0.58200  0.90300  0.25000  1.0000
  Mn  Mn5       1.0  0.41800  0.09740  0.75000  1.0000
  Mn  Mn6       1.0  0.91800  0.40300  0.75000  1.0000
  Mn  Mn7       1.0  0.43100  0.61200  0.75000  1.0000
  Mn  Mn8       1.0  0.93100  0.88800  0.75000  1.0000
  Na  Na1       1.0  0.74600  0.16300  0.25000  1.0000
  Na  Na2       1.0  0.24600  0.33700  0.25000  1.0000
  Na  Na3       1.0  0.75400  0.66300  0.75000  1.0000
  Na  Na4       1.0  0.25400  0.83700  0.75000  1.0000
  O   O1        1.0  0.47300  0.20200  0.25000  1.0000
  O   O2        1.0  0.97300  0.29800  0.25000  1.0000
  O   O3        1.0  0.88200  0.52100  0.25000  1.0000
  O   O4        1.0  0.57200  0.58400  0.25000  1.0000
  O   O5        1.0  0.28900  0.65500  0.25000  1.0000
  O   O6        1.0  0.78900  0.84500  0.25000  1.0000
  O   O7        1.0  0.07170  0.91600  0.25000  1.0000
  O   O8        1.0  0.38200  0.97900  0.25000  1.0000
  O   O9        1.0  0.61800  0.02070  0.75000  1.0000
  O   O10       1.0  0.92800  0.08380  0.75000  1.0000
  O   O11       1.0  0.21100  0.15500  0.75000  1.0000
  O   O12       1.0  0.71100  0.34500  0.75000  1.0000
  O   O13       1.0  0.42800  0.41600  0.75000  1.0000
  O   O14       1.0  0.11800  0.47900  0.75000  1.0000
  O   O15       1.0  0.02650  0.70200  0.75000  1.0000
  O   O16       1.0  0.52700  0.79800  0.75000  1.0000
