data_image0
_chemical_formula_structural       Ba22In12O6
_chemical_formula_sum              "Ba22 In12 O6"
_cell_length_a       11.2217
_cell_length_b       12.3734
_cell_length_c       12.3734
_cell_angle_alpha    101.866
_cell_angle_beta     63.0341
_cell_angle_gamma    116.966

_space_group_name_H-M_alt    "P 1"
_space_group_IT_number       1

loop_
  _space_group_symop_operation_xyz
  'x, y, z'

loop_
  _atom_site_type_symbol
  _atom_site_label
  _atom_site_symmetry_multiplicity
  _atom_site_fract_x
  _atom_site_fract_y
  _atom_site_fract_z
  _atom_site_occupancy
  Ba  Ba1       1.0  0.00000  0.00000  0.00000  1.0000
  Ba  Ba2       1.0  0.50000  0.00000  0.00000  1.0000
  Ba  Ba3       1.0  0.37600  0.25200  0.00000  1.0000
  Ba  Ba4       1.0  0.87600  0.25200  0.00000  1.0000
  Ba  Ba5       1.0  0.12400  0.74800  0.00000  1.0000
  Ba  Ba6       1.0  0.62400  0.74800  0.00000  1.0000
  Ba  Ba7       1.0  0.23000  0.50000  0.04000  1.0000
  Ba  Ba8       1.0  0.42300  0.50000  0.25100  1.0000
  Ba  Ba9       1.0  0.82600  0.50000  0.25100  1.0000
  Ba  Ba10      1.0  0.12400  0.00000  0.25200  1.0000
  Ba  Ba11      1.0  0.62400  0.00000  0.25200  1.0000
  Ba  Ba12      1.0  0.73000  0.96000  0.50000  1.0000
  Ba  Ba13      1.0  0.07660  0.25100  0.50000  1.0000
  Ba  Ba14      1.0  0.67400  0.25100  0.50000  1.0000
  Ba  Ba15      1.0  0.32600  0.74900  0.50000  1.0000
  Ba  Ba16      1.0  0.92300  0.74900  0.50000  1.0000
  Ba  Ba17      1.0  0.27000  0.04000  0.50000  1.0000
  Ba  Ba18      1.0  0.37600  0.00000  0.74800  1.0000
  Ba  Ba19      1.0  0.87600  0.00000  0.74800  1.0000
  Ba  Ba20      1.0  0.17400  0.50000  0.74900  1.0000
  Ba  Ba21      1.0  0.57700  0.50000  0.74900  1.0000
  Ba  Ba22      1.0  0.77000  0.50000  0.96000  1.0000
  In  In1       1.0  0.25900  0.75900  0.24100  1.0000
  In  In2       1.0  0.00000  0.24100  0.24100  1.0000
  In  In3       1.0  0.50000  0.24100  0.24100  1.0000
  In  In4       1.0  0.75900  0.75900  0.24100  1.0000
  In  In5       1.0  0.06630  0.50000  0.36700  1.0000
  In  In6       1.0  0.43400  0.36700  0.50000  1.0000
  In  In7       1.0  0.56600  0.63300  0.50000  1.0000
  In  In8       1.0  0.93400  0.50000  0.63300  1.0000
  In  In9       1.0  0.24100  0.24100  0.75900  1.0000
  In  In10      1.0  0.50000  0.75900  0.75900  1.0000
  In  In11      1.0  0.00000  0.75900  0.75900  1.0000
  In  In12      1.0  0.74100  0.24100  0.75900  1.0000
  O   O1        1.0  0.25000  0.00000  0.00000  1.0000
  O   O2        1.0  0.75000  0.00000  0.00000  1.0000
  O   O3        1.0  0.00000  0.50000  0.00000  1.0000
  O   O4        1.0  0.50000  0.50000  0.00000  1.0000
  O   O5        1.0  0.00000  0.00000  0.50000  1.0000
  O   O6        1.0  0.50000  0.00000  0.50000  1.0000
