data_image0
_chemical_formula_structural       Ag16O16S4Te4
_chemical_formula_sum              "Ag16 O16 S4 Te4"
_cell_length_a       8.75134
_cell_length_b       8.75134
_cell_length_c       8.75134
_cell_angle_alpha    90
_cell_angle_beta     90
_cell_angle_gamma    90

_space_group_name_H-M_alt    "P 1"
_space_group_IT_number       1

loop_
  _space_group_symop_operation_xyz
  'x, y, z'

loop_
  _atom_site_type_symbol
  _atom_site_label
  _atom_site_symmetry_multiplicity
  _atom_site_fract_x
  _atom_site_fract_y
  _atom_site_fract_z
  _atom_site_occupancy
  Ag  Ag1       1.0  0.49400  0.50600  0.00632  1.0000
  Ag  Ag2       1.0  0.09440  0.29600  0.02780  1.0000
  Ag  Ag3       1.0  0.29600  0.02780  0.09440  1.0000
  Ag  Ag4       1.0  0.97200  0.59400  0.20400  1.0000
  Ag  Ag5       1.0  0.02780  0.09440  0.29600  1.0000
  Ag  Ag6       1.0  0.70400  0.52800  0.40600  1.0000
  Ag  Ag7       1.0  0.90600  0.79600  0.47200  1.0000
  Ag  Ag8       1.0  0.50600  0.00632  0.49400  1.0000
  Ag  Ag9       1.0  0.00632  0.49400  0.50600  1.0000
  Ag  Ag10      1.0  0.40600  0.70400  0.52800  1.0000
  Ag  Ag11      1.0  0.20400  0.97200  0.59400  1.0000
  Ag  Ag12      1.0  0.52800  0.40600  0.70400  1.0000
  Ag  Ag13      1.0  0.47200  0.90600  0.79600  1.0000
  Ag  Ag14      1.0  0.79600  0.47200  0.90600  1.0000
  Ag  Ag15      1.0  0.59400  0.20400  0.97200  1.0000
  Ag  Ag16      1.0  0.99400  0.99400  0.99400  1.0000
  O   O1        1.0  0.72300  0.95900  0.01420  1.0000
  O   O2        1.0  0.51400  0.77700  0.04050  1.0000
  O   O3        1.0  0.54100  0.98600  0.22300  1.0000
  O   O4        1.0  0.72500  0.77500  0.22500  1.0000
  O   O5        1.0  0.27500  0.27500  0.27500  1.0000
  O   O6        1.0  0.45900  0.48600  0.27700  1.0000
  O   O7        1.0  0.48600  0.27700  0.45900  1.0000
  O   O8        1.0  0.27700  0.45900  0.48600  1.0000
  O   O9        1.0  0.77700  0.04050  0.51400  1.0000
  O   O10       1.0  0.98600  0.22300  0.54100  1.0000
  O   O11       1.0  0.95900  0.01420  0.72300  1.0000
  O   O12       1.0  0.77500  0.22500  0.72500  1.0000
  O   O13       1.0  0.22500  0.72500  0.77500  1.0000
  O   O14       1.0  0.04050  0.51400  0.77700  1.0000
  O   O15       1.0  0.01420  0.72300  0.95900  1.0000
  O   O16       1.0  0.22300  0.54100  0.98600  1.0000
  S   S1        1.0  0.62800  0.87200  0.12800  1.0000
  S   S2        1.0  0.37200  0.37200  0.37200  1.0000
  S   S3        1.0  0.87200  0.12800  0.62800  1.0000
  S   S4        1.0  0.12800  0.62800  0.87200  1.0000
  Te  Te1       1.0  0.81600  0.31600  0.18400  1.0000
  Te  Te2       1.0  0.18400  0.81600  0.31600  1.0000
  Te  Te3       1.0  0.68400  0.68400  0.68400  1.0000
  Te  Te4       1.0  0.31600  0.18400  0.81600  1.0000
