data_image0
_chemical_formula_structural       C4La8N8O16Si4
_chemical_formula_sum              "C4 La8 N8 O16 Si4"
_cell_length_a       6.50554
_cell_length_b       12.7576
_cell_length_c       6.60752
_cell_angle_alpha    90
_cell_angle_beta     105.417
_cell_angle_gamma    90

_space_group_name_H-M_alt    "P 1"
_space_group_IT_number       1

loop_
  _space_group_symop_operation_xyz
  'x, y, z'

loop_
  _atom_site_type_symbol
  _atom_site_label
  _atom_site_symmetry_multiplicity
  _atom_site_fract_x
  _atom_site_fract_y
  _atom_site_fract_z
  _atom_site_occupancy
  C   C1        1.0  0.47400  0.34800  0.23200  1.0000
  C   C2        1.0  0.52600  0.84800  0.26800  1.0000
  C   C3        1.0  0.47400  0.15200  0.73200  1.0000
  C   C4        1.0  0.52600  0.65200  0.76800  1.0000
  La  La1       1.0  0.97100  0.35500  0.17000  1.0000
  La  La2       1.0  0.41300  0.09970  0.22000  1.0000
  La  La3       1.0  0.58700  0.60000  0.28000  1.0000
  La  La4       1.0  0.02930  0.85500  0.33000  1.0000
  La  La5       1.0  0.97100  0.14500  0.67000  1.0000
  La  La6       1.0  0.41300  0.40000  0.72000  1.0000
  La  La7       1.0  0.58700  0.90000  0.78000  1.0000
  La  La8       1.0  0.02930  0.64500  0.83000  1.0000
  N   N1        1.0  0.57500  0.40300  0.13800  1.0000
  N   N2        1.0  0.63000  0.79500  0.17300  1.0000
  N   N3        1.0  0.37000  0.29500  0.32700  1.0000
  N   N4        1.0  0.42500  0.90300  0.36200  1.0000
  N   N5        1.0  0.57500  0.09740  0.63800  1.0000
  N   N6        1.0  0.63000  0.70500  0.67300  1.0000
  N   N7        1.0  0.37000  0.20500  0.82700  1.0000
  N   N8        1.0  0.42500  0.59700  0.86200  1.0000
  O   O1        1.0  0.02710  0.16700  0.04100  1.0000
  O   O2        1.0  0.74600  0.00617  0.08510  1.0000
  O   O3        1.0  0.89200  0.55200  0.12600  1.0000
  O   O4        1.0  0.22400  0.68200  0.20400  1.0000
  O   O5        1.0  0.77600  0.18200  0.29600  1.0000
  O   O6        1.0  0.10800  0.05210  0.37300  1.0000
  O   O7        1.0  0.25400  0.50600  0.41500  1.0000
  O   O8        1.0  0.97300  0.66700  0.45900  1.0000
  O   O9        1.0  0.02710  0.33300  0.54100  1.0000
  O   O10       1.0  0.74600  0.49400  0.58500  1.0000
  O   O11       1.0  0.89200  0.94800  0.62700  1.0000
  O   O12       1.0  0.22400  0.81800  0.70400  1.0000
  O   O13       1.0  0.77600  0.31800  0.79600  1.0000
  O   O14       1.0  0.10800  0.44800  0.87400  1.0000
  O   O15       1.0  0.25400  0.99400  0.91500  1.0000
  O   O16       1.0  0.97300  0.83300  0.95900  1.0000
  Si  Si1       1.0  0.90800  0.09980  0.18800  1.0000
  Si  Si2       1.0  0.09210  0.60000  0.31200  1.0000
  Si  Si3       1.0  0.90800  0.40000  0.68800  1.0000
  Si  Si4       1.0  0.09210  0.90000  0.81200  1.0000
