data_image0
_chemical_formula_structural       Co8Pr8Sb24
_chemical_formula_sum              "Co8 Pr8 Sb24"
_cell_length_a       12.8575
_cell_length_b       6.17192
_cell_length_c       12.1464
_cell_angle_alpha    90
_cell_angle_beta     90
_cell_angle_gamma    90

_space_group_name_H-M_alt    "P 1"
_space_group_IT_number       1

loop_
  _space_group_symop_operation_xyz
  'x, y, z'

loop_
  _atom_site_type_symbol
  _atom_site_label
  _atom_site_symmetry_multiplicity
  _atom_site_fract_x
  _atom_site_fract_y
  _atom_site_fract_z
  _atom_site_occupancy
  Co  Co1       1.0  0.09730  0.46200  0.13600  1.0000
  Co  Co2       1.0  0.90300  0.96200  0.13600  1.0000
  Co  Co3       1.0  0.09730  0.46200  0.36400  1.0000
  Co  Co4       1.0  0.90300  0.96200  0.36400  1.0000
  Co  Co5       1.0  0.09730  0.03750  0.63600  1.0000
  Co  Co6       1.0  0.90300  0.53800  0.63600  1.0000
  Co  Co7       1.0  0.09730  0.03750  0.86400  1.0000
  Co  Co8       1.0  0.90300  0.53800  0.86400  1.0000
  Pr  Pr1       1.0  0.70100  0.25000  0.00000  1.0000
  Pr  Pr2       1.0  0.29900  0.75000  0.00000  1.0000
  Pr  Pr3       1.0  0.30300  0.22600  0.25000  1.0000
  Pr  Pr4       1.0  0.69700  0.72600  0.25000  1.0000
  Pr  Pr5       1.0  0.70100  0.25000  0.50000  1.0000
  Pr  Pr6       1.0  0.29900  0.75000  0.50000  1.0000
  Pr  Pr7       1.0  0.30300  0.27400  0.75000  1.0000
  Pr  Pr8       1.0  0.69700  0.77400  0.75000  1.0000
  Sb  Sb1       1.0  0.21700  0.25000  0.00000  1.0000
  Sb  Sb2       1.0  0.97200  0.25000  0.00000  1.0000
  Sb  Sb3       1.0  0.02780  0.75000  0.00000  1.0000
  Sb  Sb4       1.0  0.78300  0.75000  0.00000  1.0000
  Sb  Sb5       1.0  0.49800  0.48700  0.12400  1.0000
  Sb  Sb6       1.0  0.50200  0.98700  0.12400  1.0000
  Sb  Sb7       1.0  0.05520  0.11600  0.25000  1.0000
  Sb  Sb8       1.0  0.78900  0.23300  0.25000  1.0000
  Sb  Sb9       1.0  0.94500  0.61600  0.25000  1.0000
  Sb  Sb10      1.0  0.21100  0.73300  0.25000  1.0000
  Sb  Sb11      1.0  0.49800  0.48700  0.37600  1.0000
  Sb  Sb12      1.0  0.50200  0.98700  0.37600  1.0000
  Sb  Sb13      1.0  0.21700  0.25000  0.50000  1.0000
  Sb  Sb14      1.0  0.97200  0.25000  0.50000  1.0000
  Sb  Sb15      1.0  0.02780  0.75000  0.50000  1.0000
  Sb  Sb16      1.0  0.78300  0.75000  0.50000  1.0000
  Sb  Sb17      1.0  0.49800  0.01260  0.62400  1.0000
  Sb  Sb18      1.0  0.50200  0.51300  0.62400  1.0000
  Sb  Sb19      1.0  0.78900  0.26700  0.75000  1.0000
  Sb  Sb20      1.0  0.05520  0.38400  0.75000  1.0000
  Sb  Sb21      1.0  0.21100  0.76700  0.75000  1.0000
  Sb  Sb22      1.0  0.94500  0.88400  0.75000  1.0000
  Sb  Sb23      1.0  0.49800  0.01260  0.87600  1.0000
  Sb  Sb24      1.0  0.50200  0.51300  0.87600  1.0000
