data_image0
_chemical_formula_structural       Ho6Os8Si26
_chemical_formula_sum              "Ho6 Os8 Si26"
_cell_length_a       8.78724
_cell_length_b       8.78724
_cell_length_c       8.78724
_cell_angle_alpha    90
_cell_angle_beta     90
_cell_angle_gamma    90

_space_group_name_H-M_alt    "P 1"
_space_group_IT_number       1

loop_
  _space_group_symop_operation_xyz
  'x, y, z'

loop_
  _atom_site_type_symbol
  _atom_site_label
  _atom_site_symmetry_multiplicity
  _atom_site_fract_x
  _atom_site_fract_y
  _atom_site_fract_z
  _atom_site_occupancy
  Ho  Ho1       1.0  0.50000  0.25000  0.00000  1.0000
  Ho  Ho2       1.0  0.50000  0.75000  0.00000  1.0000
  Ho  Ho3       1.0  0.00000  0.50000  0.25000  1.0000
  Ho  Ho4       1.0  0.25000  0.00000  0.50000  1.0000
  Ho  Ho5       1.0  0.75000  0.00000  0.50000  1.0000
  Ho  Ho6       1.0  0.00000  0.50000  0.75000  1.0000
  Os  Os1       1.0  0.25000  0.25000  0.25000  1.0000
  Os  Os2       1.0  0.75000  0.25000  0.25000  1.0000
  Os  Os3       1.0  0.25000  0.75000  0.25000  1.0000
  Os  Os4       1.0  0.75000  0.75000  0.25000  1.0000
  Os  Os5       1.0  0.25000  0.25000  0.75000  1.0000
  Os  Os6       1.0  0.75000  0.25000  0.75000  1.0000
  Os  Os7       1.0  0.25000  0.75000  0.75000  1.0000
  Os  Os8       1.0  0.75000  0.75000  0.75000  1.0000
  Si  Si1       1.0  0.00000  0.00000  0.00000  1.0000
  Si  Si2       1.0  0.13800  0.28200  0.00000  1.0000
  Si  Si3       1.0  0.86200  0.28200  0.00000  1.0000
  Si  Si4       1.0  0.13800  0.71800  0.00000  1.0000
  Si  Si5       1.0  0.86200  0.71800  0.00000  1.0000
  Si  Si6       1.0  0.28200  0.00000  0.13800  1.0000
  Si  Si7       1.0  0.71800  0.00000  0.13800  1.0000
  Si  Si8       1.0  0.36200  0.50000  0.21800  1.0000
  Si  Si9       1.0  0.63800  0.50000  0.21800  1.0000
  Si  Si10      1.0  0.00000  0.13800  0.28200  1.0000
  Si  Si11      1.0  0.00000  0.86200  0.28200  1.0000
  Si  Si12      1.0  0.50000  0.21800  0.36200  1.0000
  Si  Si13      1.0  0.50000  0.78200  0.36200  1.0000
  Si  Si14      1.0  0.21800  0.36200  0.50000  1.0000
  Si  Si15      1.0  0.78200  0.36200  0.50000  1.0000
  Si  Si16      1.0  0.50000  0.50000  0.50000  1.0000
  Si  Si17      1.0  0.21800  0.63800  0.50000  1.0000
  Si  Si18      1.0  0.78200  0.63800  0.50000  1.0000
  Si  Si19      1.0  0.50000  0.21800  0.63800  1.0000
  Si  Si20      1.0  0.50000  0.78200  0.63800  1.0000
  Si  Si21      1.0  0.00000  0.13800  0.71800  1.0000
  Si  Si22      1.0  0.00000  0.86200  0.71800  1.0000
  Si  Si23      1.0  0.36200  0.50000  0.78200  1.0000
  Si  Si24      1.0  0.63800  0.50000  0.78200  1.0000
  Si  Si25      1.0  0.28200  0.00000  0.86200  1.0000
  Si  Si26      1.0  0.71800  0.00000  0.86200  1.0000
