data_image0
_chemical_formula_structural       O2SY2
_chemical_formula_sum              "O2 S1 Y2"
_cell_length_a       3.79001
_cell_length_b       3.79014
_cell_length_c       6.58623
_cell_angle_alpha    90
_cell_angle_beta     89.999
_cell_angle_gamma    120.001

_space_group_name_H-M_alt    "P 1"
_space_group_IT_number       1

loop_
  _space_group_symop_operation_xyz
  'x, y, z'

loop_
  _atom_site_type_symbol
  _atom_site_label
  _atom_site_symmetry_multiplicity
  _atom_site_fract_x
  _atom_site_fract_y
  _atom_site_fract_z
  _atom_site_occupancy
  O   O1        1.0  0.66700  0.33300  0.36900  1.0000
  O   O2        1.0  0.33300  0.66700  0.63100  1.0000
  S   S1        1.0  0.00000  0.00000  0.00000  1.0000
  Y   Y1        1.0  0.33300  0.66700  0.28100  1.0000
  Y   Y2        1.0  0.66700  0.33300  0.71900  1.0000
