data_image0
_chemical_formula_structural       O26Te10Y4
_chemical_formula_sum              "O26 Te10 Y4"
_cell_length_a       6.92024
_cell_length_b       8.55481
_cell_length_c       10.4243
_cell_angle_alpha    89.0466
_cell_angle_beta     86.9321
_cell_angle_gamma    75.0313

_space_group_name_H-M_alt    "P 1"
_space_group_IT_number       1

loop_
  _space_group_symop_operation_xyz
  'x, y, z'

loop_
  _atom_site_type_symbol
  _atom_site_label
  _atom_site_symmetry_multiplicity
  _atom_site_fract_x
  _atom_site_fract_y
  _atom_site_fract_z
  _atom_site_occupancy
  O   O1        1.0  0.53000  0.32300  0.00443  1.0000
  O   O2        1.0  0.05840  0.82100  0.03060  1.0000
  O   O3        1.0  0.87700  0.51300  0.10500  1.0000
  O   O4        1.0  0.34100  0.99200  0.12500  1.0000
  O   O5        1.0  0.23700  0.49600  0.18600  1.0000
  O   O6        1.0  0.66800  0.78400  0.22300  1.0000
  O   O7        1.0  0.67000  0.25300  0.23200  1.0000
  O   O8        1.0  0.06540  0.27000  0.28300  1.0000
  O   O9        1.0  0.31300  0.73500  0.29400  1.0000
  O   O10       1.0  0.94700  0.98100  0.32000  1.0000
  O   O11       1.0  0.66500  0.48600  0.38700  1.0000
  O   O12       1.0  0.96000  0.65000  0.44000  1.0000
  O   O13       1.0  0.54200  0.81200  0.48800  1.0000
  O   O14       1.0  0.45800  0.18800  0.51200  1.0000
  O   O15       1.0  0.04030  0.35000  0.56000  1.0000
  O   O16       1.0  0.33500  0.51400  0.61300  1.0000
  O   O17       1.0  0.05340  0.01860  0.68000  1.0000
  O   O18       1.0  0.68700  0.26500  0.70600  1.0000
  O   O19       1.0  0.93500  0.73000  0.71700  1.0000
  O   O20       1.0  0.33000  0.74700  0.76800  1.0000
  O   O21       1.0  0.33200  0.21600  0.77700  1.0000
  O   O22       1.0  0.76300  0.50400  0.81400  1.0000
  O   O23       1.0  0.65900  0.00753  0.87500  1.0000
  O   O24       1.0  0.12300  0.48700  0.89500  1.0000
  O   O25       1.0  0.94200  0.17900  0.96900  1.0000
  O   O26       1.0  0.47000  0.67700  0.99600  1.0000
  Te  Te1       1.0  0.70900  0.11400  0.03260  1.0000
  Te  Te2       1.0  0.12600  0.34500  0.10400  1.0000
  Te  Te3       1.0  0.43100  0.91100  0.30700  1.0000
  Te  Te4       1.0  0.84400  0.19800  0.37100  1.0000
  Te  Te5       1.0  0.27200  0.39400  0.47600  1.0000
  Te  Te6       1.0  0.72800  0.60600  0.52400  1.0000
  Te  Te7       1.0  0.15600  0.80200  0.62900  1.0000
  Te  Te8       1.0  0.56900  0.08940  0.69300  1.0000
  Te  Te9       1.0  0.87400  0.65500  0.89600  1.0000
  Te  Te10      1.0  0.29100  0.88600  0.96700  1.0000
  Y   Y1        1.0  0.55400  0.52900  0.18000  1.0000
  Y   Y2        1.0  0.99800  0.73800  0.23800  1.0000
  Y   Y3        1.0  0.00207  0.26200  0.76200  1.0000
  Y   Y4        1.0  0.44600  0.47100  0.82000  1.0000
