data_image0
_chemical_formula_structural       Cl8F16O8P8
_chemical_formula_sum              "Cl8 F16 O8 P8"
_cell_length_a       12.4484
_cell_length_b       5.2178
_cell_length_c       9.40562
_cell_angle_alpha    90
_cell_angle_beta     90
_cell_angle_gamma    90

_space_group_name_H-M_alt    "P 1"
_space_group_IT_number       1

loop_
  _space_group_symop_operation_xyz
  'x, y, z'

loop_
  _atom_site_type_symbol
  _atom_site_label
  _atom_site_symmetry_multiplicity
  _atom_site_fract_x
  _atom_site_fract_y
  _atom_site_fract_z
  _atom_site_occupancy
  Cl  Cl1       1.0  0.48900  0.75000  0.10600  1.0000
  Cl  Cl2       1.0  0.31500  0.25000  0.15400  1.0000
  Cl  Cl3       1.0  0.81500  0.25000  0.34600  1.0000
  Cl  Cl4       1.0  0.98900  0.75000  0.39400  1.0000
  Cl  Cl5       1.0  0.01150  0.25000  0.60600  1.0000
  Cl  Cl6       1.0  0.18500  0.75000  0.65400  1.0000
  Cl  Cl7       1.0  0.68500  0.75000  0.84600  1.0000
  Cl  Cl8       1.0  0.51100  0.25000  0.89400  1.0000
  F   F1        1.0  0.81600  0.02320  0.07880  1.0000
  F   F2        1.0  0.81600  0.47700  0.07880  1.0000
  F   F3        1.0  0.02600  0.52100  0.13500  1.0000
  F   F4        1.0  0.02600  0.97900  0.13500  1.0000
  F   F5        1.0  0.52600  0.52100  0.36500  1.0000
  F   F6        1.0  0.52600  0.97900  0.36500  1.0000
  F   F7        1.0  0.31600  0.02320  0.42100  1.0000
  F   F8        1.0  0.31600  0.47700  0.42100  1.0000
  F   F9        1.0  0.68400  0.52300  0.57900  1.0000
  F   F10       1.0  0.68400  0.97700  0.57900  1.0000
  F   F11       1.0  0.47400  0.02070  0.63500  1.0000
  F   F12       1.0  0.47400  0.47900  0.63500  1.0000
  F   F13       1.0  0.97400  0.02070  0.86500  1.0000
  F   F14       1.0  0.97400  0.47900  0.86500  1.0000
  F   F15       1.0  0.18400  0.52300  0.92100  1.0000
  F   F16       1.0  0.18400  0.97700  0.92100  1.0000
  O   O1        1.0  0.64100  0.25000  0.13200  1.0000
  O   O2        1.0  0.19100  0.75000  0.22700  1.0000
  O   O3        1.0  0.69100  0.75000  0.27300  1.0000
  O   O4        1.0  0.14100  0.25000  0.36800  1.0000
  O   O5        1.0  0.85900  0.75000  0.63200  1.0000
  O   O6        1.0  0.30900  0.25000  0.72700  1.0000
  O   O7        1.0  0.80900  0.25000  0.77300  1.0000
  O   O8        1.0  0.35900  0.75000  0.86800  1.0000
  P   P1        1.0  0.75700  0.25000  0.15200  1.0000
  P   P2        1.0  0.07340  0.75000  0.21900  1.0000
  P   P3        1.0  0.57300  0.75000  0.28100  1.0000
  P   P4        1.0  0.25700  0.25000  0.34800  1.0000
  P   P5        1.0  0.74300  0.75000  0.65200  1.0000
  P   P6        1.0  0.42700  0.25000  0.71900  1.0000
  P   P7        1.0  0.92700  0.25000  0.78100  1.0000
  P   P8        1.0  0.24300  0.75000  0.84800  1.0000
