data_image0
_chemical_formula_structural       H24N10Rb6
_chemical_formula_sum              "H24 N10 Rb6"
_cell_length_a       8.46531
_cell_length_b       8.46531
_cell_length_c       8.46531
_cell_angle_alpha    109.471
_cell_angle_beta     109.471
_cell_angle_gamma    109.471

_space_group_name_H-M_alt    "P 1"
_space_group_IT_number       1

loop_
  _space_group_symop_operation_xyz
  'x, y, z'

loop_
  _atom_site_type_symbol
  _atom_site_label
  _atom_site_symmetry_multiplicity
  _atom_site_fract_x
  _atom_site_fract_y
  _atom_site_fract_z
  _atom_site_occupancy
  H   H1        1.0  0.41900  0.35900  0.03730  1.0000
  H   H2        1.0  0.19700  0.73700  0.06320  1.0000
  H   H3        1.0  0.44000  0.58100  0.11800  1.0000
  H   H4        1.0  0.93700  0.67400  0.13400  1.0000
  H   H5        1.0  0.06020  0.17800  0.14100  1.0000
  H   H6        1.0  0.64100  0.56000  0.17800  1.0000
  H   H7        1.0  0.88200  0.46300  0.32200  1.0000
  H   H8        1.0  0.53700  0.91900  0.35900  1.0000
  H   H9        1.0  0.04020  0.80300  0.36600  1.0000
  H   H10       1.0  0.96300  0.32200  0.38200  1.0000
  H   H11       1.0  0.17400  0.13400  0.43700  1.0000
  H   H12       1.0  0.82200  0.38200  0.46300  1.0000
  H   H13       1.0  0.30300  0.36600  0.54000  1.0000
  H   H14       1.0  0.67800  0.14100  0.56000  1.0000
  H   H15       1.0  0.61800  0.94000  0.58100  1.0000
  H   H16       1.0  0.63400  0.43700  0.67400  1.0000
  H   H17       1.0  0.23700  0.06320  0.69700  1.0000
  H   H18       1.0  0.56300  0.69700  0.73700  1.0000
  H   H19       1.0  0.46000  0.82600  0.76300  1.0000
  H   H20       1.0  0.86600  0.54000  0.80300  1.0000
  H   H21       1.0  0.26300  0.96000  0.82600  1.0000
  H   H22       1.0  0.85900  0.03730  0.91900  1.0000
  H   H23       1.0  0.08050  0.11800  0.94000  1.0000
  H   H24       1.0  0.32600  0.76300  0.96000  1.0000
  N   N1        1.0  0.00000  0.15500  0.00000  1.0000
  N   N2        1.0  0.32800  0.75000  0.07760  1.0000
  N   N3        1.0  0.50000  0.50000  0.15500  1.0000
  N   N4        1.0  0.92200  0.67200  0.25000  1.0000
  N   N5        1.0  0.84500  0.34500  0.34500  1.0000
  N   N6        1.0  0.17200  0.25000  0.42200  1.0000
  N   N7        1.0  0.65500  0.00000  0.50000  1.0000
  N   N8        1.0  0.75000  0.42200  0.67200  1.0000
  N   N9        1.0  0.57800  0.82800  0.75000  1.0000
  N   N10       1.0  0.25000  0.07760  0.82800  1.0000
  Rb  Rb1       1.0  0.75000  0.91900  0.16900  1.0000
  Rb  Rb2       1.0  0.41900  0.16900  0.25000  1.0000
  Rb  Rb3       1.0  0.25000  0.58100  0.33100  1.0000
  Rb  Rb4       1.0  0.83100  0.75000  0.58100  1.0000
  Rb  Rb5       1.0  0.08070  0.33100  0.75000  1.0000
  Rb  Rb6       1.0  0.66900  0.25000  0.91900  1.0000
