data_image0
_chemical_formula_structural       B8Cu6O22Pb4
_chemical_formula_sum              "B8 Cu6 O22 Pb4"
_cell_length_a       6.25583
_cell_length_b       4.45166
_cell_length_c       12.8807
_cell_angle_alpha    90
_cell_angle_beta     106.24
_cell_angle_gamma    90

_space_group_name_H-M_alt    "P 1"
_space_group_IT_number       1

loop_
  _space_group_symop_operation_xyz
  'x, y, z'

loop_
  _atom_site_type_symbol
  _atom_site_label
  _atom_site_symmetry_multiplicity
  _atom_site_fract_x
  _atom_site_fract_y
  _atom_site_fract_z
  _atom_site_occupancy
  B   B1        1.0  0.14600  0.00185  0.10100  1.0000
  B   B2        1.0  0.81400  0.93600  0.16300  1.0000
  B   B3        1.0  0.68600  0.93600  0.33700  1.0000
  B   B4        1.0  0.35400  0.00185  0.39900  1.0000
  B   B5        1.0  0.64600  0.99800  0.60100  1.0000
  B   B6        1.0  0.31400  0.06390  0.66300  1.0000
  B   B7        1.0  0.18600  0.06390  0.83700  1.0000
  B   B8        1.0  0.85400  0.99800  0.89900  1.0000
  Cu  Cu1       1.0  0.50000  0.00000  0.00000  1.0000
  Cu  Cu2       1.0  0.80400  0.44300  0.03240  1.0000
  Cu  Cu3       1.0  0.69600  0.44300  0.46800  1.0000
  Cu  Cu4       1.0  0.00000  0.00000  0.50000  1.0000
  Cu  Cu5       1.0  0.30400  0.55700  0.53200  1.0000
  Cu  Cu6       1.0  0.19600  0.55700  0.96800  1.0000
  O   O1        1.0  0.07560  0.26100  0.04740  1.0000
  O   O2        1.0  0.68800  0.75400  0.07560  1.0000
  O   O3        1.0  0.33800  0.87500  0.09330  1.0000
  O   O4        1.0  0.75700  0.24700  0.15300  1.0000
  O   O5        1.0  0.05320  0.89000  0.17900  1.0000
  O   O6        1.0  0.75000  0.80100  0.25000  1.0000
  O   O7        1.0  0.44700  0.89000  0.32100  1.0000
  O   O8        1.0  0.74300  0.24700  0.34700  1.0000
  O   O9        1.0  0.16200  0.87500  0.40700  1.0000
  O   O10       1.0  0.81200  0.75400  0.42400  1.0000
  O   O11       1.0  0.42400  0.26100  0.45300  1.0000
  O   O12       1.0  0.57600  0.73900  0.54700  1.0000
  O   O13       1.0  0.18800  0.24600  0.57600  1.0000
  O   O14       1.0  0.83800  0.12500  0.59300  1.0000
  O   O15       1.0  0.25700  0.75300  0.65300  1.0000
  O   O16       1.0  0.55300  0.11000  0.67900  1.0000
  O   O17       1.0  0.25000  0.19900  0.75000  1.0000
  O   O18       1.0  0.94700  0.11000  0.82100  1.0000
  O   O19       1.0  0.24300  0.75300  0.84700  1.0000
  O   O20       1.0  0.66200  0.12500  0.90700  1.0000
  O   O21       1.0  0.31200  0.24600  0.92400  1.0000
  O   O22       1.0  0.92400  0.73900  0.95300  1.0000
  Pb  Pb1       1.0  0.45000  0.43700  0.20100  1.0000
  Pb  Pb2       1.0  0.04960  0.43700  0.29900  1.0000
  Pb  Pb3       1.0  0.95000  0.56300  0.70100  1.0000
  Pb  Pb4       1.0  0.55000  0.56300  0.79900  1.0000
