data_image0
_chemical_formula_structural       Be24P16
_chemical_formula_sum              "Be24 P16"
_cell_length_a       8.82147
_cell_length_b       8.82147
_cell_length_c       8.82147
_cell_angle_alpha    109.471
_cell_angle_beta     109.471
_cell_angle_gamma    109.471

_space_group_name_H-M_alt    "P 1"
_space_group_IT_number       1

loop_
  _space_group_symop_operation_xyz
  'x, y, z'

loop_
  _atom_site_type_symbol
  _atom_site_label
  _atom_site_symmetry_multiplicity
  _atom_site_fract_x
  _atom_site_fract_y
  _atom_site_fract_z
  _atom_site_occupancy
  Be  Be1       1.0  0.00885  0.75300  0.00404  1.0000
  Be  Be2       1.0  0.49600  0.24900  0.00480  1.0000
  Be  Be3       1.0  0.25300  0.50400  0.00885  1.0000
  Be  Be4       1.0  0.49100  0.99500  0.24400  1.0000
  Be  Be5       1.0  0.25600  0.25100  0.24700  1.0000
  Be  Be6       1.0  0.75300  0.24400  0.24900  1.0000
  Be  Be7       1.0  0.99500  0.00404  0.25100  1.0000
  Be  Be8       1.0  0.00404  0.50900  0.25300  1.0000
  Be  Be9       1.0  0.75100  0.74700  0.25600  1.0000
  Be  Be10      1.0  0.49500  0.74400  0.49100  1.0000
  Be  Be11      1.0  0.24400  0.99100  0.49500  1.0000
  Be  Be12      1.0  0.74900  0.50500  0.49600  1.0000
  Be  Be13      1.0  0.25100  0.49500  0.50400  1.0000
  Be  Be14      1.0  0.75600  0.00885  0.50500  1.0000
  Be  Be15      1.0  0.50500  0.25600  0.50900  1.0000
  Be  Be16      1.0  0.24900  0.25300  0.74400  1.0000
  Be  Be17      1.0  0.99600  0.49100  0.74700  1.0000
  Be  Be18      1.0  0.00480  0.99600  0.74900  1.0000
  Be  Be19      1.0  0.24700  0.75600  0.75100  1.0000
  Be  Be20      1.0  0.74400  0.74900  0.75300  1.0000
  Be  Be21      1.0  0.50900  0.00480  0.75600  1.0000
  Be  Be22      1.0  0.74700  0.49600  0.99100  1.0000
  Be  Be23      1.0  0.50400  0.75100  0.99500  1.0000
  Be  Be24      1.0  0.99100  0.24700  0.99600  1.0000
  P   P1        1.0  0.50000  0.00000  0.00000  1.0000
  P   P2        1.0  0.00000  0.50000  0.00000  1.0000
  P   P3        1.0  0.75600  0.75000  0.00566  1.0000
  P   P4        1.0  0.75000  0.49400  0.24400  1.0000
  P   P5        1.0  0.00566  0.25600  0.25000  1.0000
  P   P6        1.0  0.50600  0.75600  0.25000  1.0000
  P   P7        1.0  0.25000  0.00566  0.25600  1.0000
  P   P8        1.0  0.74400  0.25000  0.49400  1.0000
  P   P9        1.0  0.00000  0.00000  0.50000  1.0000
  P   P10       1.0  0.50000  0.50000  0.50000  1.0000
  P   P11       1.0  0.25600  0.75000  0.50600  1.0000
  P   P12       1.0  0.75000  0.99400  0.74400  1.0000
  P   P13       1.0  0.49400  0.24400  0.75000  1.0000
  P   P14       1.0  0.99400  0.74400  0.75000  1.0000
  P   P15       1.0  0.25000  0.50600  0.75600  1.0000
  P   P16       1.0  0.24400  0.25000  0.99400  1.0000
