data_image0
_chemical_formula_structural       Fe6O26P6Pb2
_chemical_formula_sum              "Fe6 O26 P6 Pb2"
_cell_length_a       7.51743
_cell_length_b       6.37483
_cell_length_c       10.4098
_cell_angle_alpha    90
_cell_angle_beta     100.124
_cell_angle_gamma    90

_space_group_name_H-M_alt    "P 1"
_space_group_IT_number       1

loop_
  _space_group_symop_operation_xyz
  'x, y, z'

loop_
  _atom_site_type_symbol
  _atom_site_label
  _atom_site_symmetry_multiplicity
  _atom_site_fract_x
  _atom_site_fract_y
  _atom_site_fract_z
  _atom_site_occupancy
  Fe  Fe1       1.0  0.71300  0.75000  0.06010  1.0000
  Fe  Fe2       1.0  0.14900  0.75000  0.30000  1.0000
  Fe  Fe3       1.0  0.50000  0.00000  0.50000  1.0000
  Fe  Fe4       1.0  0.50000  0.50000  0.50000  1.0000
  Fe  Fe5       1.0  0.85100  0.25000  0.70000  1.0000
  Fe  Fe6       1.0  0.28700  0.25000  0.94000  1.0000
  O   O1        1.0  0.75000  0.05700  0.07190  1.0000
  O   O2        1.0  0.75000  0.44300  0.07190  1.0000
  O   O3        1.0  0.47600  0.75000  0.10000  1.0000
  O   O4        1.0  0.14400  0.75000  0.11200  1.0000
  O   O5        1.0  0.30100  0.25000  0.12700  1.0000
  O   O6        1.0  0.84900  0.75000  0.24400  1.0000
  O   O7        1.0  0.13000  0.06080  0.28700  1.0000
  O   O8        1.0  0.13000  0.43900  0.28700  1.0000
  O   O9        1.0  0.42600  0.25000  0.36600  1.0000
  O   O10       1.0  0.38100  0.75000  0.40600  1.0000
  O   O11       1.0  0.71200  0.55200  0.41400  1.0000
  O   O12       1.0  0.71200  0.94800  0.41400  1.0000
  O   O13       1.0  0.01270  0.75000  0.46100  1.0000
  O   O14       1.0  0.98700  0.25000  0.53900  1.0000
  O   O15       1.0  0.28800  0.05210  0.58600  1.0000
  O   O16       1.0  0.28800  0.44800  0.58600  1.0000
  O   O17       1.0  0.61900  0.25000  0.59400  1.0000
  O   O18       1.0  0.57400  0.75000  0.63400  1.0000
  O   O19       1.0  0.87000  0.56100  0.71300  1.0000
  O   O20       1.0  0.87000  0.93900  0.71300  1.0000
  O   O21       1.0  0.15100  0.25000  0.75600  1.0000
  O   O22       1.0  0.69900  0.75000  0.87300  1.0000
  O   O23       1.0  0.85600  0.25000  0.88800  1.0000
  O   O24       1.0  0.52400  0.25000  0.90000  1.0000
  O   O25       1.0  0.25000  0.55700  0.92800  1.0000
  O   O26       1.0  0.25000  0.94300  0.92800  1.0000
  P   P1        1.0  0.28100  0.75000  0.02140  1.0000
  P   P2        1.0  0.24700  0.25000  0.26100  1.0000
  P   P3        1.0  0.81600  0.75000  0.38800  1.0000
  P   P4        1.0  0.18400  0.25000  0.61200  1.0000
  P   P5        1.0  0.75300  0.75000  0.73900  1.0000
  P   P6        1.0  0.71900  0.25000  0.97900  1.0000
  Pb  Pb1       1.0  0.82900  0.25000  0.29800  1.0000
  Pb  Pb2       1.0  0.17100  0.75000  0.70200  1.0000
