data_image0
_chemical_formula_structural       Ce6Ge26Ir8
_chemical_formula_sum              "Ce6 Ge26 Ir8"
_cell_length_a       9.17864
_cell_length_b       9.17864
_cell_length_c       9.17864
_cell_angle_alpha    90
_cell_angle_beta     90
_cell_angle_gamma    90

_space_group_name_H-M_alt    "P 1"
_space_group_IT_number       1

loop_
  _space_group_symop_operation_xyz
  'x, y, z'

loop_
  _atom_site_type_symbol
  _atom_site_label
  _atom_site_symmetry_multiplicity
  _atom_site_fract_x
  _atom_site_fract_y
  _atom_site_fract_z
  _atom_site_occupancy
  Ce  Ce1       1.0  0.50000  0.25000  0.00000  1.0000
  Ce  Ce2       1.0  0.50000  0.75000  0.00000  1.0000
  Ce  Ce3       1.0  0.00000  0.50000  0.25000  1.0000
  Ce  Ce4       1.0  0.25000  0.00000  0.50000  1.0000
  Ce  Ce5       1.0  0.75000  0.00000  0.50000  1.0000
  Ce  Ce6       1.0  0.00000  0.50000  0.75000  1.0000
  Ge  Ge1       1.0  0.00000  0.00000  0.00000  1.0000
  Ge  Ge2       1.0  0.14600  0.30200  0.00000  1.0000
  Ge  Ge3       1.0  0.85400  0.30200  0.00000  1.0000
  Ge  Ge4       1.0  0.14600  0.69800  0.00000  1.0000
  Ge  Ge5       1.0  0.85400  0.69800  0.00000  1.0000
  Ge  Ge6       1.0  0.30200  0.00000  0.14600  1.0000
  Ge  Ge7       1.0  0.69800  0.00000  0.14600  1.0000
  Ge  Ge8       1.0  0.35400  0.50000  0.19800  1.0000
  Ge  Ge9       1.0  0.64600  0.50000  0.19800  1.0000
  Ge  Ge10      1.0  0.00000  0.14600  0.30200  1.0000
  Ge  Ge11      1.0  0.00000  0.85400  0.30200  1.0000
  Ge  Ge12      1.0  0.50000  0.19800  0.35400  1.0000
  Ge  Ge13      1.0  0.50000  0.80200  0.35400  1.0000
  Ge  Ge14      1.0  0.19800  0.35400  0.50000  1.0000
  Ge  Ge15      1.0  0.80200  0.35400  0.50000  1.0000
  Ge  Ge16      1.0  0.50000  0.50000  0.50000  1.0000
  Ge  Ge17      1.0  0.19800  0.64600  0.50000  1.0000
  Ge  Ge18      1.0  0.80200  0.64600  0.50000  1.0000
  Ge  Ge19      1.0  0.50000  0.19800  0.64600  1.0000
  Ge  Ge20      1.0  0.50000  0.80200  0.64600  1.0000
  Ge  Ge21      1.0  0.00000  0.14600  0.69800  1.0000
  Ge  Ge22      1.0  0.00000  0.85400  0.69800  1.0000
  Ge  Ge23      1.0  0.35400  0.50000  0.80200  1.0000
  Ge  Ge24      1.0  0.64600  0.50000  0.80200  1.0000
  Ge  Ge25      1.0  0.30200  0.00000  0.85400  1.0000
  Ge  Ge26      1.0  0.69800  0.00000  0.85400  1.0000
  Ir  Ir1       1.0  0.25000  0.25000  0.25000  1.0000
  Ir  Ir2       1.0  0.75000  0.25000  0.25000  1.0000
  Ir  Ir3       1.0  0.25000  0.75000  0.25000  1.0000
  Ir  Ir4       1.0  0.75000  0.75000  0.25000  1.0000
  Ir  Ir5       1.0  0.25000  0.25000  0.75000  1.0000
  Ir  Ir6       1.0  0.75000  0.25000  0.75000  1.0000
  Ir  Ir7       1.0  0.25000  0.75000  0.75000  1.0000
  Ir  Ir8       1.0  0.75000  0.75000  0.75000  1.0000
