data_image0
_chemical_formula_structural       Li6Mn4O11
_chemical_formula_sum              "Li6 Mn4 O11"
_cell_length_a       10.0074
_cell_length_b       4.98101
_cell_length_c       4.94379
_cell_angle_alpha    99.4379
_cell_angle_beta     98.4901
_cell_angle_gamma    121.369

_space_group_name_H-M_alt    "P 1"
_space_group_IT_number       1

loop_
  _space_group_symop_operation_xyz
  'x, y, z'

loop_
  _atom_site_type_symbol
  _atom_site_label
  _atom_site_symmetry_multiplicity
  _atom_site_fract_x
  _atom_site_fract_y
  _atom_site_fract_z
  _atom_site_occupancy
  Li  Li1       1.0  0.75500  0.51700  0.00992  1.0000
  Li  Li2       1.0  0.16400  0.64800  0.49300  1.0000
  Li  Li3       1.0  0.83900  0.35400  0.49900  1.0000
  Li  Li4       1.0  0.69700  0.66100  0.51300  1.0000
  Li  Li5       1.0  0.30600  0.30200  0.51600  1.0000
  Li  Li6       1.0  0.22800  0.48000  0.97000  1.0000
  Mn  Mn1       1.0  0.92300  0.17100  0.00504  1.0000
  Mn  Mn2       1.0  0.08120  0.83900  0.00658  1.0000
  Mn  Mn3       1.0  0.59400  0.86300  0.98100  1.0000
  Mn  Mn4       1.0  0.41200  0.13200  0.98300  1.0000
  O   O1        1.0  0.60900  0.22500  0.21600  1.0000
  O   O2        1.0  0.77400  0.92900  0.22300  1.0000
  O   O3        1.0  0.11800  0.23900  0.22600  1.0000
  O   O4        1.0  0.28800  0.94400  0.22800  1.0000
  O   O5        1.0  0.96500  0.56800  0.22800  1.0000
  O   O6        1.0  0.72200  0.06830  0.76200  1.0000
  O   O7        1.0  0.03540  0.43900  0.77700  1.0000
  O   O8        1.0  0.38500  0.75800  0.78000  1.0000
  O   O9        1.0  0.53000  0.44200  0.78300  1.0000
  O   O10       1.0  0.89000  0.77600  0.78600  1.0000
  O   O11       1.0  0.22300  0.08130  0.78900  1.0000
