data_image0
_chemical_formula_structural       Hf4Li6O11
_chemical_formula_sum              "Hf4 Li6 O11"
_cell_length_a       11.1637
_cell_length_b       5.34914
_cell_length_c       5.29949
_cell_angle_alpha    102.852
_cell_angle_beta     100.383
_cell_angle_gamma    119.357

_space_group_name_H-M_alt    "P 1"
_space_group_IT_number       1

loop_
  _space_group_symop_operation_xyz
  'x, y, z'

loop_
  _atom_site_type_symbol
  _atom_site_label
  _atom_site_symmetry_multiplicity
  _atom_site_fract_x
  _atom_site_fract_y
  _atom_site_fract_z
  _atom_site_occupancy
  Hf  Hf1       1.0  0.92400  0.15800  0.00034  1.0000
  Hf  Hf2       1.0  0.08620  0.83100  0.01580  1.0000
  Hf  Hf3       1.0  0.60500  0.88800  0.95300  1.0000
  Hf  Hf4       1.0  0.39600  0.11200  0.97200  1.0000
  Li  Li1       1.0  0.73700  0.68400  0.42900  1.0000
  Li  Li2       1.0  0.48200  0.09620  0.50400  1.0000
  Li  Li3       1.0  0.13300  0.59100  0.51500  1.0000
  Li  Li4       1.0  0.02530  0.98800  0.52800  1.0000
  Li  Li5       1.0  0.82900  0.31800  0.53200  1.0000
  Li  Li6       1.0  0.29600  0.32300  0.55600  1.0000
  O   O1        1.0  0.78100  0.95800  0.21200  1.0000
  O   O2        1.0  0.59100  0.20200  0.23800  1.0000
  O   O3        1.0  0.98500  0.58500  0.24200  1.0000
  O   O4        1.0  0.30300  0.02460  0.26100  1.0000
  O   O5        1.0  0.09610  0.20200  0.27000  1.0000
  O   O6        1.0  0.39700  0.78800  0.71300  1.0000
  O   O7        1.0  0.71700  0.02350  0.71700  1.0000
  O   O8        1.0  0.90500  0.77600  0.74300  1.0000
  O   O9        1.0  0.20300  0.02610  0.76200  1.0000
  O   O10       1.0  0.02600  0.40300  0.76800  1.0000
  O   O11       1.0  0.50100  0.43500  0.82400  1.0000
