data_image0
_chemical_formula_structural       Ca5MnP4
_chemical_formula_sum              "Ca5 Mn1 P4"
_cell_length_a       4.1465
_cell_length_b       7.41425
_cell_length_c       7.97895
_cell_angle_alpha    87.8159
_cell_angle_beta     89.9893
_cell_angle_gamma    73.7691

_space_group_name_H-M_alt    "P 1"
_space_group_IT_number       1

loop_
  _space_group_symop_operation_xyz
  'x, y, z'

loop_
  _atom_site_type_symbol
  _atom_site_label
  _atom_site_symmetry_multiplicity
  _atom_site_fract_x
  _atom_site_fract_y
  _atom_site_fract_z
  _atom_site_occupancy
  Ca  Ca1       1.0  0.67000  0.58700  0.25700  1.0000
  Ca  Ca2       1.0  0.39400  0.13800  0.27200  1.0000
  Ca  Ca3       1.0  0.85100  0.22300  0.62600  1.0000
  Ca  Ca4       1.0  0.17900  0.56700  0.85000  1.0000
  Ca  Ca5       1.0  0.45800  0.00880  0.92700  1.0000
  Mn  Mn1       1.0  0.06540  0.79500  0.46400  1.0000
  P   P1        1.0  0.03620  0.85300  0.15200  1.0000
  P   P2        1.0  0.23700  0.45200  0.49000  1.0000
  P   P3        1.0  0.51100  0.90400  0.59200  1.0000
  P   P4        1.0  0.80400  0.31800  0.97900  1.0000
