data_image0
_chemical_formula_structural       Ca4MnP4
_chemical_formula_sum              "Ca4 Mn1 P4"
_cell_length_a       4.18475
_cell_length_b       5.89653
_cell_length_c       8.55913
_cell_angle_alpha    90.0043
_cell_angle_beta     90.003
_cell_angle_gamma    90.0916

_space_group_name_H-M_alt    "P 1"
_space_group_IT_number       1

loop_
  _space_group_symop_operation_xyz
  'x, y, z'

loop_
  _atom_site_type_symbol
  _atom_site_label
  _atom_site_symmetry_multiplicity
  _atom_site_fract_x
  _atom_site_fract_y
  _atom_site_fract_z
  _atom_site_occupancy
  Ca  Ca1       1.0  0.31200  0.03720  0.26000  1.0000
  Ca  Ca2       1.0  0.81300  0.54100  0.47100  1.0000
  Ca  Ca3       1.0  0.31200  0.03730  0.68200  1.0000
  Ca  Ca4       1.0  0.81400  0.38300  0.97100  1.0000
  Mn  Mn1       1.0  0.31500  0.74100  0.97100  1.0000
  P   P1        1.0  0.31400  0.53100  0.19200  1.0000
  P   P2        1.0  0.81200  0.04110  0.47100  1.0000
  P   P3        1.0  0.31400  0.53100  0.75000  1.0000
  P   P4        1.0  0.81500  0.89900  0.97100  1.0000
