data_image0
_chemical_formula_structural       Li6O11Os4
_chemical_formula_sum              "Li6 O11 Os4"
_cell_length_a       9.92532
_cell_length_b       4.94969
_cell_length_c       5.03295
_cell_angle_alpha    98.3594
_cell_angle_beta     98.2132
_cell_angle_gamma    117.589

_space_group_name_H-M_alt    "P 1"
_space_group_IT_number       1

loop_
  _space_group_symop_operation_xyz
  'x, y, z'

loop_
  _atom_site_type_symbol
  _atom_site_label
  _atom_site_symmetry_multiplicity
  _atom_site_fract_x
  _atom_site_fract_y
  _atom_site_fract_z
  _atom_site_occupancy
  Li  Li1       1.0  0.66800  0.67100  0.49900  1.0000
  Li  Li2       1.0  0.83400  0.33200  0.50300  1.0000
  Li  Li3       1.0  0.34300  0.33500  0.50900  1.0000
  Li  Li4       1.0  0.16500  0.68400  0.51200  1.0000
  Li  Li5       1.0  0.24900  0.49600  0.98600  1.0000
  Li  Li6       1.0  0.75100  0.50200  0.99800  1.0000
  O   O1        1.0  0.45200  0.54700  0.21400  1.0000
  O   O2        1.0  0.77600  0.92100  0.21400  1.0000
  O   O3        1.0  0.96700  0.54300  0.22400  1.0000
  O   O4        1.0  0.27200  0.91900  0.22500  1.0000
  O   O5        1.0  0.62900  0.25800  0.25700  1.0000
  O   O6        1.0  0.36900  0.73900  0.73600  1.0000
  O   O7        1.0  0.87000  0.74000  0.74300  1.0000
  O   O8        1.0  0.71100  0.08170  0.76900  1.0000
  O   O9        1.0  0.04000  0.42200  0.77200  1.0000
  O   O10       1.0  0.22300  0.08300  0.78300  1.0000
  O   O11       1.0  0.54400  0.45000  0.78400  1.0000
  Os  Os1       1.0  0.93600  0.14400  0.00025  1.0000
  Os  Os2       1.0  0.42600  0.14400  0.00241  1.0000
  Os  Os3       1.0  0.07270  0.86700  0.01260  1.0000
  Os  Os4       1.0  0.57300  0.86200  0.99400  1.0000
