data_image0
_chemical_formula_structural       Cl6Fe2Zn
_chemical_formula_sum              "Cl6 Fe2 Zn1"
_cell_length_a       6.07597
_cell_length_b       6.07518
_cell_length_c       5.67962
_cell_angle_alpha    89.9892
_cell_angle_beta     89.9985
_cell_angle_gamma    119.966

_space_group_name_H-M_alt    "P 1"
_space_group_IT_number       1

loop_
  _space_group_symop_operation_xyz
  'x, y, z'

loop_
  _atom_site_type_symbol
  _atom_site_label
  _atom_site_symmetry_multiplicity
  _atom_site_fract_x
  _atom_site_fract_y
  _atom_site_fract_z
  _atom_site_occupancy
  Cl  Cl1       1.0  0.95400  0.81500  0.48100  1.0000
  Cl  Cl2       1.0  0.62900  0.15300  0.48100  1.0000
  Cl  Cl3       1.0  0.29200  0.49000  0.48100  1.0000
  Cl  Cl4       1.0  0.29200  0.81500  0.97700  1.0000
  Cl  Cl5       1.0  0.95400  0.15200  0.97700  1.0000
  Cl  Cl6       1.0  0.62900  0.49000  0.97700  1.0000
  Fe  Fe1       1.0  0.62600  0.81800  0.72900  1.0000
  Fe  Fe2       1.0  0.95700  0.48600  0.72900  1.0000
  Zn  Zn1       1.0  0.29200  0.15200  0.22800  1.0000
