data_image0
_chemical_formula_structural       Li6O11Tc4
_chemical_formula_sum              "Li6 O11 Tc4"
_cell_length_a       9.85873
_cell_length_b       4.92839
_cell_length_c       5.01549
_cell_angle_alpha    97.5828
_cell_angle_beta     97.4979
_cell_angle_gamma    117.948

_space_group_name_H-M_alt    "P 1"
_space_group_IT_number       1

loop_
  _space_group_symop_operation_xyz
  'x, y, z'

loop_
  _atom_site_type_symbol
  _atom_site_label
  _atom_site_symmetry_multiplicity
  _atom_site_fract_x
  _atom_site_fract_y
  _atom_site_fract_z
  _atom_site_occupancy
  Li  Li1       1.0  0.75100  0.50000  0.00297  1.0000
  Li  Li2       1.0  0.66700  0.66600  0.49600  1.0000
  Li  Li3       1.0  0.83200  0.33200  0.50000  1.0000
  Li  Li4       1.0  0.34900  0.34400  0.51100  1.0000
  Li  Li5       1.0  0.16700  0.69100  0.51400  1.0000
  Li  Li6       1.0  0.25000  0.49900  0.98500  1.0000
  O   O1        1.0  0.45300  0.55700  0.21500  1.0000
  O   O2        1.0  0.78000  0.91600  0.21700  1.0000
  O   O3        1.0  0.96300  0.53700  0.22400  1.0000
  O   O4        1.0  0.27300  0.92400  0.22900  1.0000
  O   O5        1.0  0.62500  0.25100  0.25900  1.0000
  O   O6        1.0  0.37200  0.75000  0.73700  1.0000
  O   O7        1.0  0.87300  0.74300  0.74000  1.0000
  O   O8        1.0  0.70700  0.07420  0.76500  1.0000
  O   O9        1.0  0.04160  0.41700  0.77500  1.0000
  O   O10       1.0  0.22100  0.09050  0.78100  1.0000
  O   O11       1.0  0.54500  0.44700  0.78200  1.0000
  Tc  Tc1       1.0  0.42700  0.14500  0.00000  1.0000
  Tc  Tc2       1.0  0.07250  0.86400  0.01090  1.0000
  Tc  Tc3       1.0  0.57100  0.86700  0.99500  1.0000
  Tc  Tc4       1.0  0.93300  0.13200  0.99600  1.0000
