data_image0
_chemical_formula_structural       Fe4Li6O11
_chemical_formula_sum              "Fe4 Li6 O11"
_cell_length_a       10.0348
_cell_length_b       4.95986
_cell_length_c       5.00804
_cell_angle_alpha    100.52
_cell_angle_beta     98.7607
_cell_angle_gamma    119.829

_space_group_name_H-M_alt    "P 1"
_space_group_IT_number       1

loop_
  _space_group_symop_operation_xyz
  'x, y, z'

loop_
  _atom_site_type_symbol
  _atom_site_label
  _atom_site_symmetry_multiplicity
  _atom_site_fract_x
  _atom_site_fract_y
  _atom_site_fract_z
  _atom_site_occupancy
  Fe  Fe1       1.0  0.40700  0.12500  0.00393  1.0000
  Fe  Fe2       1.0  0.08350  0.82700  0.00571  1.0000
  Fe  Fe3       1.0  0.59100  0.85400  0.98200  1.0000
  Fe  Fe4       1.0  0.91500  0.16400  0.99600  1.0000
  Li  Li1       1.0  0.70500  0.68000  0.49000  1.0000
  Li  Li2       1.0  0.17500  0.65700  0.49400  1.0000
  Li  Li3       1.0  0.99900  0.00941  0.49600  1.0000
  Li  Li4       1.0  0.49000  0.05120  0.52600  1.0000
  Li  Li5       1.0  0.23600  0.47900  0.96800  1.0000
  Li  Li6       1.0  0.75300  0.50200  0.99300  1.0000
  O   O1        1.0  0.79600  0.94000  0.21700  1.0000
  O   O2        1.0  0.96800  0.58400  0.21900  1.0000
  O   O3        1.0  0.10100  0.22200  0.22100  1.0000
  O   O4        1.0  0.29200  0.91500  0.23300  1.0000
  O   O5        1.0  0.59400  0.21500  0.24400  1.0000
  O   O6        1.0  0.38400  0.75100  0.75600  1.0000
  O   O7        1.0  0.71900  0.07150  0.75900  1.0000
  O   O8        1.0  0.88900  0.79700  0.77100  1.0000
  O   O9        1.0  0.03390  0.41600  0.77900  1.0000
  O   O10       1.0  0.21200  0.06070  0.79800  1.0000
  O   O11       1.0  0.52900  0.41400  0.82900  1.0000
