data_image0
_chemical_formula_structural       Ca3Mn2P4
_chemical_formula_sum              "Ca3 Mn2 P4"
_cell_length_a       3.84041
_cell_length_b       6.66215
_cell_length_c       6.96651
_cell_angle_alpha    98.1382
_cell_angle_beta     90.0032
_cell_angle_gamma    106.745

_space_group_name_H-M_alt    "P 1"
_space_group_IT_number       1

loop_
  _space_group_symop_operation_xyz
  'x, y, z'

loop_
  _atom_site_type_symbol
  _atom_site_label
  _atom_site_symmetry_multiplicity
  _atom_site_fract_x
  _atom_site_fract_y
  _atom_site_fract_z
  _atom_site_occupancy
  Ca  Ca1       1.0  0.76500  0.80500  0.23100  1.0000
  Ca  Ca2       1.0  0.89300  0.06070  0.69900  1.0000
  Ca  Ca3       1.0  0.63800  0.55100  0.76300  1.0000
  Mn  Mn1       1.0  0.47300  0.21900  0.10300  1.0000
  Mn  Mn2       1.0  0.05910  0.39300  0.35900  1.0000
  P   P1        1.0  0.05200  0.37800  0.03760  1.0000
  P   P2        1.0  0.48000  0.23300  0.42500  1.0000
  P   P3        1.0  0.22300  0.72100  0.51800  1.0000
  P   P4        1.0  0.30800  0.89100  0.94400  1.0000
