data_image0
_chemical_formula_structural       Li6O11V4
_chemical_formula_sum              "Li6 O11 V4"
_cell_length_a       10.0987
_cell_length_b       4.9403
_cell_length_c       5.05226
_cell_angle_alpha    101.177
_cell_angle_beta     98.807
_cell_angle_gamma    118.868

_space_group_name_H-M_alt    "P 1"
_space_group_IT_number       1

loop_
  _space_group_symop_operation_xyz
  'x, y, z'

loop_
  _atom_site_type_symbol
  _atom_site_label
  _atom_site_symmetry_multiplicity
  _atom_site_fract_x
  _atom_site_fract_y
  _atom_site_fract_z
  _atom_site_occupancy
  Li  Li1       1.0  0.17800  0.66100  0.49100  1.0000
  Li  Li2       1.0  0.71400  0.66700  0.49100  1.0000
  Li  Li3       1.0  0.01470  0.01370  0.51500  1.0000
  Li  Li4       1.0  0.49800  0.05010  0.52500  1.0000
  Li  Li5       1.0  0.22900  0.47900  0.96600  1.0000
  Li  Li6       1.0  0.75600  0.50400  0.98500  1.0000
  O   O1        1.0  0.78900  0.92700  0.22200  1.0000
  O   O2        1.0  0.27700  0.90600  0.22200  1.0000
  O   O3        1.0  0.10600  0.22200  0.22900  1.0000
  O   O4        1.0  0.97000  0.60400  0.23000  1.0000
  O   O5        1.0  0.59400  0.18500  0.23700  1.0000
  O   O6        1.0  0.38600  0.76000  0.74900  1.0000
  O   O7        1.0  0.70900  0.06800  0.76200  1.0000
  O   O8        1.0  0.89800  0.78900  0.77800  1.0000
  O   O9        1.0  0.03170  0.42400  0.78300  1.0000
  O   O10       1.0  0.20400  0.06330  0.79100  1.0000
  O   O11       1.0  0.53900  0.43500  0.81100  1.0000
  V   V1        1.0  0.07850  0.81900  0.00119  1.0000
  V   V2        1.0  0.91100  0.16000  0.02670  1.0000
  V   V3        1.0  0.58400  0.84900  0.96300  1.0000
  V   V4        1.0  0.40200  0.13700  0.99700  1.0000
