data_image0
_chemical_formula_structural       Cr4Li6O11
_chemical_formula_sum              "Cr4 Li6 O11"
_cell_length_a       9.85858
_cell_length_b       4.97741
_cell_length_c       5.01768
_cell_angle_alpha    100.351
_cell_angle_beta     100.639
_cell_angle_gamma    117.568

_space_group_name_H-M_alt    "P 1"
_space_group_IT_number       1

loop_
  _space_group_symop_operation_xyz
  'x, y, z'

loop_
  _atom_site_type_symbol
  _atom_site_label
  _atom_site_symmetry_multiplicity
  _atom_site_fract_x
  _atom_site_fract_y
  _atom_site_fract_z
  _atom_site_occupancy
  Cr  Cr1       1.0  0.57800  0.82400  0.00264  1.0000
  Cr  Cr2       1.0  0.41500  0.18900  0.00810  1.0000
  Cr  Cr3       1.0  0.09000  0.77400  0.96300  1.0000
  Cr  Cr4       1.0  0.89000  0.15000  0.97900  1.0000
  Li  Li1       1.0  0.81700  0.33000  0.48400  1.0000
  Li  Li2       1.0  0.66200  0.63400  0.49400  1.0000
  Li  Li3       1.0  0.19800  0.71800  0.50100  1.0000
  Li  Li4       1.0  0.50100  0.01210  0.50800  1.0000
  Li  Li5       1.0  0.99300  0.97900  0.50900  1.0000
  Li  Li6       1.0  0.34500  0.37500  0.52600  1.0000
  O   O1        1.0  0.99000  0.54900  0.22700  1.0000
  O   O2        1.0  0.78800  0.94600  0.23300  1.0000
  O   O3        1.0  0.46400  0.57600  0.23400  1.0000
  O   O4        1.0  0.28100  0.97400  0.24200  1.0000
  O   O5        1.0  0.60100  0.21100  0.24200  1.0000
  O   O6        1.0  0.02540  0.39200  0.74500  1.0000
  O   O7        1.0  0.70400  0.05160  0.75800  1.0000
  O   O8        1.0  0.21000  0.05690  0.76100  1.0000
  O   O9        1.0  0.39300  0.79600  0.76400  1.0000
  O   O10       1.0  0.53300  0.43700  0.77800  1.0000
  O   O11       1.0  0.91700  0.81900  0.80800  1.0000
