data_image0
_chemical_formula_structural       Li6O11Pb4
_chemical_formula_sum              "Li6 O11 Pb4"
_cell_length_a       11.443
_cell_length_b       5.46207
_cell_length_c       5.40579
_cell_angle_alpha    102.297
_cell_angle_beta     100.402
_cell_angle_gamma    119.422

_space_group_name_H-M_alt    "P 1"
_space_group_IT_number       1

loop_
  _space_group_symop_operation_xyz
  'x, y, z'

loop_
  _atom_site_type_symbol
  _atom_site_label
  _atom_site_symmetry_multiplicity
  _atom_site_fract_x
  _atom_site_fract_y
  _atom_site_fract_z
  _atom_site_occupancy
  Li  Li1       1.0  0.73100  0.68200  0.43800  1.0000
  Li  Li2       1.0  0.13600  0.60200  0.51000  1.0000
  Li  Li3       1.0  0.48400  0.07940  0.51100  1.0000
  Li  Li4       1.0  0.83000  0.32000  0.52700  1.0000
  Li  Li5       1.0  0.02420  0.00319  0.52800  1.0000
  Li  Li6       1.0  0.29900  0.32800  0.55400  1.0000
  O   O1        1.0  0.78200  0.95500  0.22900  1.0000
  O   O2        1.0  0.97800  0.58300  0.25200  1.0000
  O   O3        1.0  0.59600  0.21800  0.26400  1.0000
  O   O4        1.0  0.30400  0.01350  0.27800  1.0000
  O   O5        1.0  0.10400  0.21400  0.28100  1.0000
  O   O6        1.0  0.71500  0.01230  0.69300  1.0000
  O   O7        1.0  0.40000  0.78600  0.71100  1.0000
  O   O8        1.0  0.89900  0.76600  0.72100  1.0000
  O   O9        1.0  0.02650  0.39900  0.74600  1.0000
  O   O10       1.0  0.20200  0.03280  0.75000  1.0000
  O   O11       1.0  0.50300  0.41600  0.78800  1.0000
  Pb  Pb1       1.0  0.08490  0.82800  0.01150  1.0000
  Pb  Pb2       1.0  0.60100  0.88600  0.95600  1.0000
  Pb  Pb3       1.0  0.91900  0.14900  0.99300  1.0000
  Pb  Pb4       1.0  0.40200  0.13600  0.99300  1.0000
