data_image0
_chemical_formula_structural       Li6Mo4O11
_chemical_formula_sum              "Li6 Mo4 O11"
_cell_length_a       9.9723
_cell_length_b       4.98462
_cell_length_c       5.15973
_cell_angle_alpha    98.7218
_cell_angle_beta     99.3101
_cell_angle_gamma    118.19

_space_group_name_H-M_alt    "P 1"
_space_group_IT_number       1

loop_
  _space_group_symop_operation_xyz
  'x, y, z'

loop_
  _atom_site_type_symbol
  _atom_site_label
  _atom_site_symmetry_multiplicity
  _atom_site_fract_x
  _atom_site_fract_y
  _atom_site_fract_z
  _atom_site_occupancy
  Li  Li1       1.0  0.98900  0.97100  0.48400  1.0000
  Li  Li2       1.0  0.67800  0.66600  0.48900  1.0000
  Li  Li3       1.0  0.49400  0.98900  0.49000  1.0000
  Li  Li4       1.0  0.83400  0.34200  0.49800  1.0000
  Li  Li5       1.0  0.32800  0.34500  0.51500  1.0000
  Li  Li6       1.0  0.16100  0.65200  0.53800  1.0000
  Mo  Mo1       1.0  0.58100  0.87000  0.00090  1.0000
  Mo  Mo2       1.0  0.07150  0.85900  0.00559  1.0000
  Mo  Mo3       1.0  0.94300  0.15300  0.00926  1.0000
  Mo  Mo4       1.0  0.42200  0.15000  0.98800  1.0000
  O   O1        1.0  0.47400  0.59600  0.22000  1.0000
  O   O2        1.0  0.79400  0.95100  0.22900  1.0000
  O   O3        1.0  0.29700  0.98400  0.23300  1.0000
  O   O4        1.0  0.98900  0.58200  0.24600  1.0000
  O   O5        1.0  0.61800  0.24200  0.26800  1.0000
  O   O6        1.0  0.37400  0.76000  0.72900  1.0000
  O   O7        1.0  0.87900  0.74600  0.73100  1.0000
  O   O8        1.0  0.69300  0.03160  0.75600  1.0000
  O   O9        1.0  0.02680  0.39100  0.75800  1.0000
  O   O10       1.0  0.20800  0.06140  0.76500  1.0000
  O   O11       1.0  0.52600  0.41400  0.77200  1.0000
