data_image0
_chemical_formula_structural       Cl4FeSn
_chemical_formula_sum              "Cl4 Fe1 Sn1"
_cell_length_a       3.85917
_cell_length_b       6.05184
_cell_length_c       6.47021
_cell_angle_alpha    90.8196
_cell_angle_beta     90.06
_cell_angle_gamma    90.0697

_space_group_name_H-M_alt    "P 1"
_space_group_IT_number       1

loop_
  _space_group_symop_operation_xyz
  'x, y, z'

loop_
  _atom_site_type_symbol
  _atom_site_label
  _atom_site_symmetry_multiplicity
  _atom_site_fract_x
  _atom_site_fract_y
  _atom_site_fract_z
  _atom_site_occupancy
  Cl  Cl1       1.0  0.17200  0.33100  0.10200  1.0000
  Cl  Cl2       1.0  0.67200  0.88400  0.27000  1.0000
  Cl  Cl3       1.0  0.67100  0.33800  0.65000  1.0000
  Cl  Cl4       1.0  0.17100  0.89200  0.81800  1.0000
  Fe  Fe1       1.0  0.67100  0.11100  0.96000  1.0000
  Sn  Sn1       1.0  0.17100  0.61100  0.46000  1.0000
