data_image0
_chemical_formula_structural       Ca4MnP5
_chemical_formula_sum              "Ca4 Mn1 P5"
_cell_length_a       4.09993
_cell_length_b       7.18701
_cell_length_c       7.81351
_cell_angle_alpha    87.1388
_cell_angle_beta     74.8123
_cell_angle_gamma    89.9064

_space_group_name_H-M_alt    "P 1"
_space_group_IT_number       1

loop_
  _space_group_symop_operation_xyz
  'x, y, z'

loop_
  _atom_site_type_symbol
  _atom_site_label
  _atom_site_symmetry_multiplicity
  _atom_site_fract_x
  _atom_site_fract_y
  _atom_site_fract_z
  _atom_site_occupancy
  Ca  Ca1       1.0  0.27700  0.16800  0.30700  1.0000
  Ca  Ca2       1.0  0.74500  0.70900  0.37100  1.0000
  Ca  Ca3       1.0  0.01470  0.07010  0.83400  1.0000
  Ca  Ca4       1.0  0.98200  0.60200  0.89600  1.0000
  Mn  Mn1       1.0  0.61300  0.34600  0.63500  1.0000
  P   P1        1.0  0.39400  0.84400  0.07280  1.0000
  P   P2        1.0  0.35600  0.54100  0.15100  1.0000
  P   P3        1.0  0.65500  0.04760  0.55200  1.0000
  P   P4        1.0  0.14700  0.45500  0.56600  1.0000
  P   P5        1.0  0.46300  0.32600  0.93600  1.0000
