data_image0
_chemical_formula_structural       Li6Ni4O11
_chemical_formula_sum              "Li6 Ni4 O11"
_cell_length_a       9.57631
_cell_length_b       4.80643
_cell_length_c       4.96378
_cell_angle_alpha    100.789
_cell_angle_beta     99.092
_cell_angle_gamma    119.748

_space_group_name_H-M_alt    "P 1"
_space_group_IT_number       1

loop_
  _space_group_symop_operation_xyz
  'x, y, z'

loop_
  _atom_site_type_symbol
  _atom_site_label
  _atom_site_symmetry_multiplicity
  _atom_site_fract_x
  _atom_site_fract_y
  _atom_site_fract_z
  _atom_site_occupancy
  Li  Li1       1.0  0.75400  0.50400  0.00468  1.0000
  Li  Li2       1.0  0.67200  0.66700  0.48500  1.0000
  Li  Li3       1.0  0.00186  0.99500  0.50100  1.0000
  Li  Li4       1.0  0.52300  0.00061  0.51500  1.0000
  Li  Li5       1.0  0.15400  0.61700  0.52000  1.0000
  Li  Li6       1.0  0.25200  0.46800  0.98500  1.0000
  Ni  Ni1       1.0  0.58300  0.84000  0.00083  1.0000
  Ni  Ni2       1.0  0.91700  0.17500  0.00769  1.0000
  Ni  Ni3       1.0  0.42000  0.18000  0.98200  1.0000
  Ni  Ni4       1.0  0.07100  0.82400  0.98900  1.0000
  O   O1        1.0  0.46500  0.58500  0.21600  1.0000
  O   O2        1.0  0.59800  0.21800  0.21900  1.0000
  O   O3        1.0  0.78600  0.93900  0.22100  1.0000
  O   O4        1.0  0.10800  0.22400  0.22300  1.0000
  O   O5        1.0  0.97400  0.59400  0.22700  1.0000
  O   O6        1.0  0.54000  0.43800  0.77200  1.0000
  O   O7        1.0  0.88300  0.79100  0.77500  1.0000
  O   O8        1.0  0.20600  0.04600  0.77500  1.0000
  O   O9        1.0  0.38900  0.78900  0.77800  1.0000
  O   O10       1.0  0.71300  0.06810  0.78500  1.0000
  O   O11       1.0  0.04560  0.43300  0.80400  1.0000
