data_image0
_chemical_formula_structural       Li6O11Pd4
_chemical_formula_sum              "Li6 O11 Pd4"
_cell_length_a       10.2092
_cell_length_b       5.12658
_cell_length_c       4.99815
_cell_angle_alpha    99.0823
_cell_angle_beta     99.0237
_cell_angle_gamma    120.121

_space_group_name_H-M_alt    "P 1"
_space_group_IT_number       1

loop_
  _space_group_symop_operation_xyz
  'x, y, z'

loop_
  _atom_site_type_symbol
  _atom_site_label
  _atom_site_symmetry_multiplicity
  _atom_site_fract_x
  _atom_site_fract_y
  _atom_site_fract_z
  _atom_site_occupancy
  Li  Li1       1.0  0.82600  0.33000  0.49200  1.0000
  Li  Li2       1.0  0.67000  0.65300  0.49400  1.0000
  Li  Li3       1.0  0.35400  0.36000  0.51500  1.0000
  Li  Li4       1.0  0.17600  0.71800  0.51900  1.0000
  Li  Li5       1.0  0.25700  0.52000  0.99000  1.0000
  Li  Li6       1.0  0.74500  0.48700  0.99300  1.0000
  O   O1        1.0  0.61800  0.23600  0.23000  1.0000
  O   O2        1.0  0.78400  0.91400  0.23100  1.0000
  O   O3        1.0  0.45800  0.57100  0.23400  1.0000
  O   O4        1.0  0.96400  0.54700  0.23500  1.0000
  O   O5        1.0  0.27700  0.93200  0.23900  1.0000
  O   O6        1.0  0.87300  0.74000  0.75900  1.0000
  O   O7        1.0  0.71400  0.06860  0.76000  1.0000
  O   O8        1.0  0.37600  0.76000  0.76300  1.0000
  O   O9        1.0  0.54000  0.43100  0.76900  1.0000
  O   O10       1.0  0.04550  0.42200  0.77300  1.0000
  O   O11       1.0  0.21200  0.09700  0.78100  1.0000
  Pd  Pd1       1.0  0.41600  0.16800  0.00350  1.0000
  Pd  Pd2       1.0  0.91700  0.14400  0.99200  1.0000
  Pd  Pd3       1.0  0.07300  0.82500  0.99500  1.0000
  Pd  Pd4       1.0  0.58100  0.83500  0.99800  1.0000
