data_image0
_chemical_formula_structural       Li6O11Zr4
_chemical_formula_sum              "Li6 O11 Zr4"
_cell_length_a       10.5648
_cell_length_b       5.40697
_cell_length_c       5.36468
_cell_angle_alpha    101.33
_cell_angle_beta     102.331
_cell_angle_gamma    115.478

_space_group_name_H-M_alt    "P 1"
_space_group_IT_number       1

loop_
  _space_group_symop_operation_xyz
  'x, y, z'

loop_
  _atom_site_type_symbol
  _atom_site_label
  _atom_site_symmetry_multiplicity
  _atom_site_fract_x
  _atom_site_fract_y
  _atom_site_fract_z
  _atom_site_occupancy
  Li  Li1       1.0  0.21300  0.77900  0.47600  1.0000
  Li  Li2       1.0  0.81500  0.32400  0.48400  1.0000
  Li  Li3       1.0  0.36500  0.41800  0.50000  1.0000
  Li  Li4       1.0  0.98700  0.97100  0.51600  1.0000
  Li  Li5       1.0  0.51300  0.02780  0.53300  1.0000
  Li  Li6       1.0  0.64800  0.59400  0.53400  1.0000
  O   O1        1.0  0.00358  0.56900  0.22500  1.0000
  O   O2        1.0  0.80400  0.96700  0.24000  1.0000
  O   O3        1.0  0.28600  0.00633  0.24800  1.0000
  O   O4        1.0  0.47700  0.59700  0.25600  1.0000
  O   O5        1.0  0.60000  0.20900  0.27200  1.0000
  O   O6        1.0  0.01560  0.35000  0.73000  1.0000
  O   O7        1.0  0.19400  0.03230  0.74600  1.0000
  O   O8        1.0  0.39500  0.80700  0.74800  1.0000
  O   O9        1.0  0.69400  0.03420  0.75700  1.0000
  O   O10       1.0  0.89600  0.77300  0.76400  1.0000
  O   O11       1.0  0.52100  0.42300  0.77300  1.0000
  Zr  Zr1       1.0  0.58000  0.83000  0.02840  1.0000
  Zr  Zr2       1.0  0.08250  0.75100  0.93900  1.0000
  Zr  Zr3       1.0  0.89200  0.14000  0.97300  1.0000
  Zr  Zr4       1.0  0.41000  0.18500  0.99900  1.0000
