data_image0
_chemical_formula_structural       Li6O11Pt4
_chemical_formula_sum              "Li6 O11 Pt4"
_cell_length_a       10.3578
_cell_length_b       5.19239
_cell_length_c       4.97314
_cell_angle_alpha    98.7884
_cell_angle_beta     98.932
_cell_angle_gamma    120.452

_space_group_name_H-M_alt    "P 1"
_space_group_IT_number       1

loop_
  _space_group_symop_operation_xyz
  'x, y, z'

loop_
  _atom_site_type_symbol
  _atom_site_label
  _atom_site_symmetry_multiplicity
  _atom_site_fract_x
  _atom_site_fract_y
  _atom_site_fract_z
  _atom_site_occupancy
  Li  Li1       1.0  0.67100  0.65600  0.49500  1.0000
  Li  Li2       1.0  0.82700  0.32800  0.49500  1.0000
  Li  Li3       1.0  0.34900  0.35400  0.51200  1.0000
  Li  Li4       1.0  0.17200  0.70600  0.51800  1.0000
  Li  Li5       1.0  0.25500  0.51100  0.98700  1.0000
  Li  Li6       1.0  0.74500  0.48800  0.99300  1.0000
  O   O1        1.0  0.61500  0.23400  0.22700  1.0000
  O   O2        1.0  0.78300  0.91200  0.23000  1.0000
  O   O3        1.0  0.45700  0.56900  0.23100  1.0000
  O   O4        1.0  0.96300  0.54300  0.23300  1.0000
  O   O5        1.0  0.27400  0.93300  0.23700  1.0000
  O   O6        1.0  0.87300  0.74300  0.75600  1.0000
  O   O7        1.0  0.71700  0.07940  0.76600  1.0000
  O   O8        1.0  0.38000  0.76600  0.76800  1.0000
  O   O9        1.0  0.54100  0.43400  0.76800  1.0000
  O   O10       1.0  0.21200  0.09620  0.77800  1.0000
  O   O11       1.0  0.05130  0.42500  0.77900  1.0000
  Pt  Pt1       1.0  0.41500  0.16600  0.00159  1.0000
  Pt  Pt2       1.0  0.58300  0.83900  0.99700  1.0000
  Pt  Pt3       1.0  0.92500  0.14500  0.99800  1.0000
  Pt  Pt4       1.0  0.07100  0.83300  0.99900  1.0000
