data_image0
_chemical_formula_structural       Ge2HO6
_chemical_formula_sum              "Ge2 H1 O6"
_cell_length_a       5.11557
_cell_length_b       5.11557
_cell_length_c       3.74244
_cell_angle_alpha    96.3601
_cell_angle_beta     96.3601
_cell_angle_gamma    126.554

_space_group_name_H-M_alt    "P 1"
_space_group_IT_number       1

loop_
  _space_group_symop_operation_xyz
  'x, y, z'

loop_
  _atom_site_type_symbol
  _atom_site_label
  _atom_site_symmetry_multiplicity
  _atom_site_fract_x
  _atom_site_fract_y
  _atom_site_fract_z
  _atom_site_occupancy
  Ge  Ge1       1.0  0.83000  0.17000  0.00000  1.0000
  Ge  Ge2       1.0  0.13500  0.86500  0.00000  1.0000
  H   H1        1.0  0.48200  0.51800  0.50000  1.0000
  O   O1        1.0  0.22400  0.25900  0.24500  1.0000
  O   O2        1.0  0.87400  0.52600  0.28200  1.0000
  O   O3        1.0  0.49000  0.91000  0.28200  1.0000
  O   O4        1.0  0.09050  0.51000  0.71800  1.0000
  O   O5        1.0  0.47400  0.12600  0.71800  1.0000
  O   O6        1.0  0.74100  0.77600  0.75500  1.0000
