data_image0
_chemical_formula_structural       H2O5V2
_chemical_formula_sum              "H2 O5 V2"
_cell_length_a       3.00301
_cell_length_b       4.79427
_cell_length_c       6.07758
_cell_angle_alpha    96.0609
_cell_angle_beta     104.303
_cell_angle_gamma    90

_space_group_name_H-M_alt    "P 1"
_space_group_IT_number       1

loop_
  _space_group_symop_operation_xyz
  'x, y, z'

loop_
  _atom_site_type_symbol
  _atom_site_label
  _atom_site_symmetry_multiplicity
  _atom_site_fract_x
  _atom_site_fract_y
  _atom_site_fract_z
  _atom_site_occupancy
  H   H1        1.0  0.64300  0.93100  0.28600  1.0000
  H   H2        1.0  0.35700  0.06850  0.71400  1.0000
  O   O1        1.0  0.00000  0.50000  0.00000  1.0000
  O   O2        1.0  0.61900  0.13000  0.23800  1.0000
  O   O3        1.0  0.69400  0.65100  0.38700  1.0000
  O   O4        1.0  0.30600  0.34900  0.61300  1.0000
  O   O5        1.0  0.38100  0.87000  0.76200  1.0000
  V   V1        1.0  0.14100  0.38900  0.28300  1.0000
  V   V2        1.0  0.85900  0.61100  0.71700  1.0000
