data_image0
_chemical_formula_structural       H3O6Zr2
_chemical_formula_sum              "H3 O6 Zr2"
_cell_length_a       5.17244
_cell_length_b       5.17244
_cell_length_c       5.16122
_cell_angle_alpha    109.182
_cell_angle_beta     109.182
_cell_angle_gamma    110.153

_space_group_name_H-M_alt    "P 1"
_space_group_IT_number       1

loop_
  _space_group_symop_operation_xyz
  'x, y, z'

loop_
  _atom_site_type_symbol
  _atom_site_label
  _atom_site_symmetry_multiplicity
  _atom_site_fract_x
  _atom_site_fract_y
  _atom_site_fract_z
  _atom_site_occupancy
  H   H1        1.0  0.00000  0.00000  0.50000  1.0000
  H   H2        1.0  0.56700  0.43300  0.50000  1.0000
  H   H3        1.0  0.43300  0.56700  0.50000  1.0000
  O   O1        1.0  0.96400  0.66200  0.23900  1.0000
  O   O2        1.0  0.66200  0.96400  0.23900  1.0000
  O   O3        1.0  0.27600  0.27600  0.30700  1.0000
  O   O4        1.0  0.72400  0.72400  0.69300  1.0000
  O   O5        1.0  0.33800  0.03630  0.76100  1.0000
  O   O6        1.0  0.03630  0.33800  0.76100  1.0000
  Zr  Zr1       1.0  0.80700  0.19300  0.00000  1.0000
  Zr  Zr2       1.0  0.19300  0.80700  0.00000  1.0000
