data_image0
_chemical_formula_structural       Cl4FeZn
_chemical_formula_sum              "Cl4 Fe1 Zn1"
_cell_length_a       3.53833
_cell_length_b       6.93929
_cell_length_c       6.67329
_cell_angle_alpha    55.0094
_cell_angle_beta     74.9939
_cell_angle_gamma    75.5968

_space_group_name_H-M_alt    "P 1"
_space_group_IT_number       1

loop_
  _space_group_symop_operation_xyz
  'x, y, z'

loop_
  _atom_site_type_symbol
  _atom_site_label
  _atom_site_symmetry_multiplicity
  _atom_site_fract_x
  _atom_site_fract_y
  _atom_site_fract_z
  _atom_site_occupancy
  Cl  Cl1       1.0  0.47600  0.83000  0.05900  1.0000
  Cl  Cl2       1.0  0.74800  0.88000  0.47600  1.0000
  Cl  Cl3       1.0  0.97600  0.32800  0.56100  1.0000
  Cl  Cl4       1.0  0.24700  0.38000  0.97800  1.0000
  Fe  Fe1       1.0  0.86200  0.10400  0.01930  1.0000
  Zn  Zn1       1.0  0.36200  0.60300  0.51900  1.0000
