data_image0
_chemical_formula_structural       Ga2H4O6
_chemical_formula_sum              "Ga2 H4 O6"
_cell_length_a       4.78988
_cell_length_b       4.78988
_cell_length_c       4.98565
_cell_angle_alpha    105.845
_cell_angle_beta     105.845
_cell_angle_gamma    110.328

_space_group_name_H-M_alt    "P 1"
_space_group_IT_number       1

loop_
  _space_group_symop_operation_xyz
  'x, y, z'

loop_
  _atom_site_type_symbol
  _atom_site_label
  _atom_site_symmetry_multiplicity
  _atom_site_fract_x
  _atom_site_fract_y
  _atom_site_fract_z
  _atom_site_occupancy
  Ga  Ga1       1.0  0.76300  0.15800  0.97500  1.0000
  Ga  Ga2       1.0  0.15800  0.76300  0.97500  1.0000
  H   H1        1.0  0.74300  0.74300  0.20500  1.0000
  H   H2        1.0  0.62000  0.42700  0.50700  1.0000
  H   H3        1.0  0.42700  0.62000  0.50700  1.0000
  H   H4        1.0  0.16700  0.16700  0.70800  1.0000
  O   O1        1.0  0.17900  0.17900  0.14900  1.0000
  O   O2        1.0  0.91000  0.60500  0.19700  1.0000
  O   O3        1.0  0.60500  0.91000  0.19700  1.0000
  O   O4        1.0  0.62400  0.62400  0.63900  1.0000
  O   O5        1.0  0.99600  0.30700  0.72000  1.0000
  O   O6        1.0  0.30700  0.99600  0.72000  1.0000
