data_image0
_chemical_formula_structural       H4O6Zn2
_chemical_formula_sum              "H4 O6 Zn2"
_cell_length_a       4.47843
_cell_length_b       4.47843
_cell_length_c       5.0927
_cell_angle_alpha    106.173
_cell_angle_beta     106.173
_cell_angle_gamma    108.418

_space_group_name_H-M_alt    "P 1"
_space_group_IT_number       1

loop_
  _space_group_symop_operation_xyz
  'x, y, z'

loop_
  _atom_site_type_symbol
  _atom_site_label
  _atom_site_symmetry_multiplicity
  _atom_site_fract_x
  _atom_site_fract_y
  _atom_site_fract_z
  _atom_site_occupancy
  H   H1        1.0  0.50000  0.50000  0.00000  1.0000
  H   H2        1.0  0.00000  0.00000  0.50000  1.0000
  H   H3        1.0  0.57900  0.42100  0.50000  1.0000
  H   H4        1.0  0.42100  0.57900  0.50000  1.0000
  O   O1        1.0  0.89000  0.67200  0.24000  1.0000
  O   O2        1.0  0.67200  0.89000  0.24000  1.0000
  O   O3        1.0  0.30500  0.30500  0.28000  1.0000
  O   O4        1.0  0.69500  0.69500  0.72000  1.0000
  O   O5        1.0  0.32800  0.11000  0.76000  1.0000
  O   O6        1.0  0.11000  0.32800  0.76000  1.0000
  Zn  Zn1       1.0  0.82200  0.17800  0.00000  1.0000
  Zn  Zn2       1.0  0.17800  0.82200  0.00000  1.0000
