data_image0
_chemical_formula_structural       H4O6Si2
_chemical_formula_sum              "H4 O6 Si2"
_cell_length_a       4.67611
_cell_length_b       4.8895
_cell_length_c       5.03438
_cell_angle_alpha    119.053
_cell_angle_beta     90
_cell_angle_gamma    90

_space_group_name_H-M_alt    "P 1"
_space_group_IT_number       1

loop_
  _space_group_symop_operation_xyz
  'x, y, z'

loop_
  _atom_site_type_symbol
  _atom_site_label
  _atom_site_symmetry_multiplicity
  _atom_site_fract_x
  _atom_site_fract_y
  _atom_site_fract_z
  _atom_site_occupancy
  H   H1        1.0  0.97400  0.67800  0.35800  1.0000
  H   H2        1.0  0.47400  0.68000  0.35800  1.0000
  H   H3        1.0  0.97400  0.32000  0.64200  1.0000
  H   H4        1.0  0.47400  0.32200  0.64200  1.0000
  O   O1        1.0  0.67400  0.11200  0.00000  1.0000
  O   O2        1.0  0.17400  0.88800  0.00000  1.0000
  O   O3        1.0  0.10500  0.50100  0.30900  1.0000
  O   O4        1.0  0.60500  0.80800  0.30900  1.0000
  O   O5        1.0  0.10500  0.19200  0.69100  1.0000
  O   O6        1.0  0.60500  0.49900  0.69100  1.0000
  Si  Si1       1.0  0.01420  0.18300  0.00000  1.0000
  Si  Si2       1.0  0.51400  0.81700  0.00000  1.0000
