data_image0
_chemical_formula_structural       Fe2H4O6
_chemical_formula_sum              "Fe2 H4 O6"
_cell_length_a       4.89386
_cell_length_b       4.89386
_cell_length_c       4.4365
_cell_angle_alpha    89.6957
_cell_angle_beta     89.6957
_cell_angle_gamma    117.288

_space_group_name_H-M_alt    "P 1"
_space_group_IT_number       1

loop_
  _space_group_symop_operation_xyz
  'x, y, z'

loop_
  _atom_site_type_symbol
  _atom_site_label
  _atom_site_symmetry_multiplicity
  _atom_site_fract_x
  _atom_site_fract_y
  _atom_site_fract_z
  _atom_site_occupancy
  Fe  Fe1       1.0  0.78900  0.12500  0.97600  1.0000
  Fe  Fe2       1.0  0.12500  0.78900  0.97600  1.0000
  H   H1        1.0  0.58700  0.58700  0.24500  1.0000
  H   H2        1.0  0.84200  0.47200  0.44700  1.0000
  H   H3        1.0  0.47200  0.84200  0.44700  1.0000
  H   H4        1.0  0.96500  0.96500  0.51200  1.0000
  O   O1        1.0  0.08910  0.08910  0.21000  1.0000
  O   O2        1.0  0.76600  0.47200  0.23700  1.0000
  O   O3        1.0  0.47200  0.76600  0.23700  1.0000
  O   O4        1.0  0.84800  0.84800  0.70800  1.0000
  O   O5        1.0  0.46700  0.07720  0.75200  1.0000
  O   O6        1.0  0.07720  0.46700  0.75200  1.0000
