data_image0
_chemical_formula_structural       B2H4O6
_chemical_formula_sum              "B2 H4 O6"
_cell_length_a       4.20574
_cell_length_b       4.20574
_cell_length_c       4.11211
_cell_angle_alpha    88.1164
_cell_angle_beta     88.1164
_cell_angle_gamma    108.908

_space_group_name_H-M_alt    "P 1"
_space_group_IT_number       1

loop_
  _space_group_symop_operation_xyz
  'x, y, z'

loop_
  _atom_site_type_symbol
  _atom_site_label
  _atom_site_symmetry_multiplicity
  _atom_site_fract_x
  _atom_site_fract_y
  _atom_site_fract_z
  _atom_site_occupancy
  B   B1        1.0  0.82600  0.17400  0.00000  1.0000
  B   B2        1.0  0.17400  0.82600  0.00000  1.0000
  H   H1        1.0  0.50000  0.50000  0.00000  1.0000
  H   H2        1.0  0.00000  0.00000  0.50000  1.0000
  H   H3        1.0  0.67000  0.33000  0.50000  1.0000
  H   H4        1.0  0.33000  0.67000  0.50000  1.0000
  O   O1        1.0  0.77300  0.42400  0.22500  1.0000
  O   O2        1.0  0.42400  0.77300  0.22500  1.0000
  O   O3        1.0  0.08270  0.08270  0.22500  1.0000
  O   O4        1.0  0.91700  0.91700  0.77500  1.0000
  O   O5        1.0  0.57600  0.22700  0.77500  1.0000
  O   O6        1.0  0.22700  0.57600  0.77500  1.0000
