data_image0
_chemical_formula_structural       HO2V
_chemical_formula_sum              "H1 O2 V1"
_cell_length_a       2.89269
_cell_length_b       2.89269
_cell_length_c       4.72193
_cell_angle_alpha    107.837
_cell_angle_beta     90
_cell_angle_gamma    120

_space_group_name_H-M_alt    "P 1"
_space_group_IT_number       1

loop_
  _space_group_symop_operation_xyz
  'x, y, z'

loop_
  _atom_site_type_symbol
  _atom_site_label
  _atom_site_symmetry_multiplicity
  _atom_site_fract_x
  _atom_site_fract_y
  _atom_site_fract_z
  _atom_site_occupancy
  H   H1        1.0  0.00000  0.00000  0.00000  1.0000
  O   O1        1.0  0.74800  0.49600  0.24300  1.0000
  O   O2        1.0  0.25200  0.50400  0.75700  1.0000
  V   V1        1.0  0.50000  0.00000  0.50000  1.0000
