data_image0
_chemical_formula_structural       Al2H4O6
_chemical_formula_sum              "Al2 H4 O6"
_cell_length_a       4.74449
_cell_length_b       4.74449
_cell_length_c       4.78006
_cell_angle_alpha    106.444
_cell_angle_beta     106.444
_cell_angle_gamma    117.816

_space_group_name_H-M_alt    "P 1"
_space_group_IT_number       1

loop_
  _space_group_symop_operation_xyz
  'x, y, z'

loop_
  _atom_site_type_symbol
  _atom_site_label
  _atom_site_symmetry_multiplicity
  _atom_site_fract_x
  _atom_site_fract_y
  _atom_site_fract_z
  _atom_site_occupancy
  Al  Al1       1.0  0.83100  0.16900  0.00000  1.0000
  Al  Al2       1.0  0.16900  0.83100  0.00000  1.0000
  H   H1        1.0  0.57000  0.43000  0.50000  1.0000
  H   H2        1.0  0.43000  0.57000  0.50000  1.0000
  H   H3        1.0  0.00000  0.00000  0.50000  1.0000
  H   H4        1.0  0.50000  0.50000  0.00000  1.0000
  O   O1        1.0  0.92600  0.62000  0.22900  1.0000
  O   O2        1.0  0.62000  0.92600  0.22900  1.0000
  O   O3        1.0  0.26100  0.26100  0.27000  1.0000
  O   O4        1.0  0.73900  0.73900  0.73000  1.0000
  O   O5        1.0  0.38000  0.07370  0.77100  1.0000
  O   O6        1.0  0.07370  0.38000  0.77100  1.0000
