data_image0
_chemical_formula_structural       Ge2H3O6
_chemical_formula_sum              "Ge2 H3 O6"
_cell_length_a       5.11024
_cell_length_b       5.11023
_cell_length_c       4.89468
_cell_angle_alpha    104.641
_cell_angle_beta     104.641
_cell_angle_gamma    123.443

_space_group_name_H-M_alt    "P 1"
_space_group_IT_number       1

loop_
  _space_group_symop_operation_xyz
  'x, y, z'

loop_
  _atom_site_type_symbol
  _atom_site_label
  _atom_site_symmetry_multiplicity
  _atom_site_fract_x
  _atom_site_fract_y
  _atom_site_fract_z
  _atom_site_occupancy
  Ge  Ge1       1.0  0.81100  0.18900  0.00000  1.0000
  Ge  Ge2       1.0  0.12400  0.87600  0.00000  1.0000
  H   H1        1.0  0.57600  0.42400  0.00000  1.0000
  H   H2        1.0  0.11600  0.88400  0.50000  1.0000
  H   H3        1.0  0.46300  0.53700  0.50000  1.0000
  O   O1        1.0  0.89900  0.64000  0.22200  1.0000
  O   O2        1.0  0.56500  0.00167  0.23300  1.0000
  O   O3        1.0  0.21600  0.28800  0.25300  1.0000
  O   O4        1.0  0.71200  0.78400  0.74700  1.0000
  O   O5        1.0  0.99800  0.43500  0.76700  1.0000
  O   O6        1.0  0.36000  0.10200  0.77800  1.0000
