data_image0
_chemical_formula_structural       H4O6Sn2
_chemical_formula_sum              "H4 O6 Sn2"
_cell_length_a       5.01484
_cell_length_b       5.01484
_cell_length_c       5.17638
_cell_angle_alpha    104.746
_cell_angle_beta     104.746
_cell_angle_gamma    108.301

_space_group_name_H-M_alt    "P 1"
_space_group_IT_number       1

loop_
  _space_group_symop_operation_xyz
  'x, y, z'

loop_
  _atom_site_type_symbol
  _atom_site_label
  _atom_site_symmetry_multiplicity
  _atom_site_fract_x
  _atom_site_fract_y
  _atom_site_fract_z
  _atom_site_occupancy
  H   H1        1.0  0.80800  0.80800  0.28000  1.0000
  H   H2        1.0  0.57000  0.38200  0.49000  1.0000
  H   H3        1.0  0.38200  0.57000  0.49000  1.0000
  H   H4        1.0  0.27300  0.27300  0.80900  1.0000
  O   O1        1.0  0.98500  0.67500  0.27900  1.0000
  O   O2        1.0  0.67500  0.98500  0.27900  1.0000
  O   O3        1.0  0.38000  0.38000  0.37400  1.0000
  O   O4        1.0  0.40600  0.11000  0.81300  1.0000
  O   O5        1.0  0.11000  0.40600  0.81300  1.0000
  O   O6        1.0  0.84000  0.84000  0.81700  1.0000
  Sn  Sn1       1.0  0.84000  0.23000  0.02860  1.0000
  Sn  Sn2       1.0  0.23000  0.84000  0.02860  1.0000
