data_image0
_chemical_formula_structural       H8O8Si2
_chemical_formula_sum              "H8 O8 Si2"
_cell_length_a       6.78857
_cell_length_b       5.65339
_cell_length_c       4.56871
_cell_angle_alpha    121.305
_cell_angle_beta     99.066
_cell_angle_gamma    102.662

_space_group_name_H-M_alt    "P 1"
_space_group_IT_number       1

loop_
  _space_group_symop_operation_xyz
  'x, y, z'

loop_
  _atom_site_type_symbol
  _atom_site_label
  _atom_site_symmetry_multiplicity
  _atom_site_fract_x
  _atom_site_fract_y
  _atom_site_fract_z
  _atom_site_occupancy
  H   H1        1.0  0.11500  0.36100  0.07770  1.0000
  H   H2        1.0  0.46700  0.29800  0.22400  1.0000
  H   H3        1.0  0.45500  0.72000  0.28300  1.0000
  H   H4        1.0  0.09060  0.80700  0.49300  1.0000
  H   H5        1.0  0.90900  0.19300  0.50700  1.0000
  H   H6        1.0  0.54500  0.28000  0.71700  1.0000
  H   H7        1.0  0.53300  0.70200  0.77600  1.0000
  H   H8        1.0  0.88500  0.63900  0.92200  1.0000
  O   O1        1.0  0.36800  0.66300  0.04590  1.0000
  O   O2        1.0  0.00943  0.81200  0.12100  1.0000
  O   O3        1.0  0.37000  0.21400  0.31400  1.0000
  O   O4        1.0  0.81200  0.25600  0.40200  1.0000
  O   O5        1.0  0.18800  0.74400  0.59800  1.0000
  O   O6        1.0  0.63000  0.78600  0.68600  1.0000
  O   O7        1.0  0.99100  0.18800  0.87900  1.0000
  O   O8        1.0  0.63200  0.33700  0.95400  1.0000
  Si  Si1       1.0  0.23000  0.85900  0.01680  1.0000
  Si  Si2       1.0  0.77000  0.14100  0.98300  1.0000
