data_image0
_chemical_formula_structural       H4O6Y2
_chemical_formula_sum              "H4 O6 Y2"
_cell_length_a       6.31426
_cell_length_b       6.31426
_cell_length_c       3.58488
_cell_angle_alpha    98.0728
_cell_angle_beta     98.0728
_cell_angle_gamma    126.559

_space_group_name_H-M_alt    "P 1"
_space_group_IT_number       1

loop_
  _space_group_symop_operation_xyz
  'x, y, z'

loop_
  _atom_site_type_symbol
  _atom_site_label
  _atom_site_symmetry_multiplicity
  _atom_site_fract_x
  _atom_site_fract_y
  _atom_site_fract_z
  _atom_site_occupancy
  H   H1        1.0  0.97200  0.97200  0.41000  1.0000
  H   H2        1.0  0.64100  0.50800  0.57300  1.0000
  H   H3        1.0  0.50800  0.64100  0.57300  1.0000
  H   H4        1.0  0.40500  0.40500  0.94400  1.0000
  O   O1        1.0  0.28700  0.28700  0.09520  1.0000
  O   O2        1.0  0.92400  0.53300  0.39200  1.0000
  O   O3        1.0  0.53300  0.92400  0.39200  1.0000
  O   O4        1.0  0.47700  0.08410  0.65200  1.0000
  O   O5        1.0  0.08410  0.47700  0.65200  1.0000
  O   O6        1.0  0.64100  0.64100  0.75900  1.0000
  Y   Y1        1.0  0.86800  0.16000  0.02860  1.0000
  Y   Y2        1.0  0.16000  0.86800  0.02860  1.0000
