data_image0
_chemical_formula_structural       Ga2H2O4
_chemical_formula_sum              "Ga2 H2 O4"
_cell_length_a       4.90384
_cell_length_b       4.3236
_cell_length_c       2.96366
_cell_angle_alpha    90
_cell_angle_beta     90
_cell_angle_gamma    90

_space_group_name_H-M_alt    "P 1"
_space_group_IT_number       1

loop_
  _space_group_symop_operation_xyz
  'x, y, z'

loop_
  _atom_site_type_symbol
  _atom_site_label
  _atom_site_symmetry_multiplicity
  _atom_site_fract_x
  _atom_site_fract_y
  _atom_site_fract_z
  _atom_site_occupancy
  Ga  Ga1       1.0  0.99900  0.22800  0.00000  1.0000
  Ga  Ga2       1.0  0.49900  0.77200  0.50000  1.0000
  H   H1        1.0  0.48500  0.29700  0.00000  1.0000
  H   H2        1.0  0.98500  0.70300  0.50000  1.0000
  O   O1        1.0  0.64600  0.01340  0.00000  1.0000
  O   O2        1.0  0.35700  0.49300  0.00000  1.0000
  O   O3        1.0  0.85700  0.50700  0.50000  1.0000
  O   O4        1.0  0.14600  0.98700  0.50000  1.0000
