data_image0
_chemical_formula_structural       Fe2HO6
_chemical_formula_sum              "Fe2 H1 O6"
_cell_length_a       4.72988
_cell_length_b       4.72988
_cell_length_c       4.45407
_cell_angle_alpha    102.187
_cell_angle_beta     102.187
_cell_angle_gamma    118.637

_space_group_name_H-M_alt    "P 1"
_space_group_IT_number       1

loop_
  _space_group_symop_operation_xyz
  'x, y, z'

loop_
  _atom_site_type_symbol
  _atom_site_label
  _atom_site_symmetry_multiplicity
  _atom_site_fract_x
  _atom_site_fract_y
  _atom_site_fract_z
  _atom_site_occupancy
  Fe  Fe1       1.0  0.83600  0.16400  0.00000  1.0000
  Fe  Fe2       1.0  0.16400  0.83600  0.00000  1.0000
  H   H1        1.0  0.50000  0.50000  0.00000  1.0000
  O   O1        1.0  0.90600  0.58600  0.22200  1.0000
  O   O2        1.0  0.58600  0.90600  0.22200  1.0000
  O   O3        1.0  0.23100  0.23100  0.26300  1.0000
  O   O4        1.0  0.76900  0.76900  0.73700  1.0000
  O   O5        1.0  0.41400  0.09420  0.77800  1.0000
  O   O6        1.0  0.09420  0.41400  0.77800  1.0000
