data_image0
_chemical_formula_structural       H2O13V6
_chemical_formula_sum              "H2 O13 V6"
_cell_length_a       3.67546
_cell_length_b       6.21314
_cell_length_c       10.2706
_cell_angle_alpha    97.4914
_cell_angle_beta     90
_cell_angle_gamma    107.204

_space_group_name_H-M_alt    "P 1"
_space_group_IT_number       1

loop_
  _space_group_symop_operation_xyz
  'x, y, z'

loop_
  _atom_site_type_symbol
  _atom_site_label
  _atom_site_symmetry_multiplicity
  _atom_site_fract_x
  _atom_site_fract_y
  _atom_site_fract_z
  _atom_site_occupancy
  H   H1        1.0  0.11900  0.23700  0.12000  1.0000
  H   H2        1.0  0.88100  0.76300  0.88000  1.0000
  O   O1        1.0  0.50000  0.00000  0.00000  1.0000
  O   O2        1.0  0.16600  0.33200  0.02760  1.0000
  O   O3        1.0  0.65100  0.30300  0.19000  1.0000
  O   O4        1.0  0.38500  0.77000  0.19100  1.0000
  O   O5        1.0  0.88000  0.76000  0.37600  1.0000
  O   O6        1.0  0.23500  0.46900  0.40300  1.0000
  O   O7        1.0  0.56500  0.13100  0.42400  1.0000
  O   O8        1.0  0.43500  0.86900  0.57600  1.0000
  O   O9        1.0  0.76500  0.53100  0.59700  1.0000
  O   O10       1.0  0.12000  0.24000  0.62400  1.0000
  O   O11       1.0  0.61500  0.23000  0.80900  1.0000
  O   O12       1.0  0.34900  0.69700  0.81000  1.0000
  O   O13       1.0  0.83400  0.66800  0.97200  1.0000
  V   V1        1.0  0.36600  0.73300  0.03290  1.0000
  V   V2        1.0  0.70600  0.41100  0.35400  1.0000
  V   V3        1.0  0.40900  0.81800  0.38600  1.0000
  V   V4        1.0  0.59100  0.18200  0.61400  1.0000
  V   V5        1.0  0.29400  0.58900  0.64600  1.0000
  V   V6        1.0  0.63400  0.26700  0.96700  1.0000
