data_image0
_chemical_formula_structural       H3O6Sn2
_chemical_formula_sum              "H3 O6 Sn2"
_cell_length_a       5.64852
_cell_length_b       5.64852
_cell_length_c       4.27463
_cell_angle_alpha    90.7494
_cell_angle_beta     90.7494
_cell_angle_gamma    126.357

_space_group_name_H-M_alt    "P 1"
_space_group_IT_number       1

loop_
  _space_group_symop_operation_xyz
  'x, y, z'

loop_
  _atom_site_type_symbol
  _atom_site_label
  _atom_site_symmetry_multiplicity
  _atom_site_fract_x
  _atom_site_fract_y
  _atom_site_fract_z
  _atom_site_occupancy
  H   H1        1.0  0.69000  0.39600  0.45100  1.0000
  H   H2        1.0  0.39600  0.69000  0.45100  1.0000
  H   H3        1.0  0.58300  0.58300  0.84500  1.0000
  O   O1        1.0  0.14000  0.14000  0.25700  1.0000
  O   O2        1.0  0.84600  0.46000  0.29700  1.0000
  O   O3        1.0  0.46000  0.84600  0.29700  1.0000
  O   O4        1.0  0.76800  0.76800  0.78200  1.0000
  O   O5        1.0  0.50900  0.14100  0.78800  1.0000
  O   O6        1.0  0.14100  0.50900  0.78800  1.0000
  Sn  Sn1       1.0  0.82900  0.13800  0.02140  1.0000
  Sn  Sn2       1.0  0.13800  0.82900  0.02140  1.0000
