data_image0
_chemical_formula_structural       H4O6Zr2
_chemical_formula_sum              "H4 O6 Zr2"
_cell_length_a       5.21506
_cell_length_b       5.21506
_cell_length_c       5.67167
_cell_angle_alpha    104.25
_cell_angle_beta     104.25
_cell_angle_gamma    113.38

_space_group_name_H-M_alt    "P 1"
_space_group_IT_number       1

loop_
  _space_group_symop_operation_xyz
  'x, y, z'

loop_
  _atom_site_type_symbol
  _atom_site_label
  _atom_site_symmetry_multiplicity
  _atom_site_fract_x
  _atom_site_fract_y
  _atom_site_fract_z
  _atom_site_occupancy
  H   H1        1.0  0.40800  0.73400  0.30800  1.0000
  H   H2        1.0  0.62400  0.58400  0.34400  1.0000
  H   H3        1.0  0.73400  0.40800  0.80800  1.0000
  H   H4        1.0  0.58400  0.62400  0.84400  1.0000
  O   O1        1.0  0.10400  0.23900  0.00169  1.0000
  O   O2        1.0  0.61600  0.77900  0.39900  1.0000
  O   O3        1.0  0.89300  0.48000  0.45000  1.0000
  O   O4        1.0  0.23900  0.10400  0.50200  1.0000
  O   O5        1.0  0.77900  0.61600  0.89900  1.0000
  O   O6        1.0  0.48000  0.89300  0.95000  1.0000
  Zr  Zr1       1.0  0.90800  0.13100  0.24800  1.0000
  Zr  Zr2       1.0  0.13100  0.90800  0.74800  1.0000
