data_image0
_chemical_formula_structural       H12O8Zn2
_chemical_formula_sum              "H12 O8 Zn2"
_cell_length_a       5.2603
_cell_length_b       5.2603
_cell_length_c       4.40858
_cell_angle_alpha    90
_cell_angle_beta     90
_cell_angle_gamma    90

_space_group_name_H-M_alt    "P 1"
_space_group_IT_number       1

loop_
  _space_group_symop_operation_xyz
  'x, y, z'

loop_
  _atom_site_type_symbol
  _atom_site_label
  _atom_site_symmetry_multiplicity
  _atom_site_fract_x
  _atom_site_fract_y
  _atom_site_fract_z
  _atom_site_occupancy
  H   H1        1.0  0.25000  0.25000  0.08210  1.0000
  H   H2        1.0  0.58800  0.08840  0.25000  1.0000
  H   H3        1.0  0.91200  0.08840  0.25000  1.0000
  H   H4        1.0  0.58800  0.41200  0.25000  1.0000
  H   H5        1.0  0.91200  0.41200  0.25000  1.0000
  H   H6        1.0  0.75000  0.75000  0.41800  1.0000
  H   H7        1.0  0.25000  0.25000  0.58200  1.0000
  H   H8        1.0  0.08840  0.58800  0.75000  1.0000
  H   H9        1.0  0.41200  0.58800  0.75000  1.0000
  H   H10       1.0  0.08840  0.91200  0.75000  1.0000
  H   H11       1.0  0.41200  0.91200  0.75000  1.0000
  H   H12       1.0  0.75000  0.75000  0.91800  1.0000
  O   O1        1.0  0.01430  0.25000  0.09000  1.0000
  O   O2        1.0  0.48600  0.25000  0.09000  1.0000
  O   O3        1.0  0.75000  0.51400  0.41000  1.0000
  O   O4        1.0  0.75000  0.98600  0.41000  1.0000
  O   O5        1.0  0.25000  0.01430  0.59000  1.0000
  O   O6        1.0  0.25000  0.48600  0.59000  1.0000
  O   O7        1.0  0.51400  0.75000  0.91000  1.0000
  O   O8        1.0  0.98600  0.75000  0.91000  1.0000
  Zn  Zn1       1.0  0.25000  0.75000  0.25000  1.0000
  Zn  Zn2       1.0  0.75000  0.25000  0.75000  1.0000
