data_image0
_chemical_formula_structural       Ge2H8O7
_chemical_formula_sum              "Ge2 H8 O7"
_cell_length_a       4.72339
_cell_length_b       5.12087
_cell_length_c       5.31641
_cell_angle_alpha    90
_cell_angle_beta     90.9038
_cell_angle_gamma    90

_space_group_name_H-M_alt    "P 1"
_space_group_IT_number       1

loop_
  _space_group_symop_operation_xyz
  'x, y, z'

loop_
  _atom_site_type_symbol
  _atom_site_label
  _atom_site_symmetry_multiplicity
  _atom_site_fract_x
  _atom_site_fract_y
  _atom_site_fract_z
  _atom_site_occupancy
  Ge  Ge1       1.0  0.45000  0.25000  0.20500  1.0000
  Ge  Ge2       1.0  0.35900  0.75000  0.66000  1.0000
  H   H1        1.0  0.71100  0.75000  0.14100  1.0000
  H   H2        1.0  0.94000  0.50800  0.22400  1.0000
  H   H3        1.0  0.94000  0.99200  0.22400  1.0000
  H   H4        1.0  0.84000  0.75000  0.50500  1.0000
  H   H5        1.0  0.60100  0.25000  0.73600  1.0000
  H   H6        1.0  0.89100  0.08470  0.76100  1.0000
  H   H7        1.0  0.89100  0.41500  0.76100  1.0000
  H   H8        1.0  0.26200  0.25000  0.79300  1.0000
  O   O1        1.0  0.74600  0.51400  0.15100  1.0000
  O   O2        1.0  0.74600  0.98600  0.15100  1.0000
  O   O3        1.0  0.19400  0.75000  0.37000  1.0000
  O   O4        1.0  0.74100  0.75000  0.66800  1.0000
  O   O5        1.0  0.80400  0.25000  0.68500  1.0000
  O   O6        1.0  0.27600  0.02600  0.84800  1.0000
  O   O7        1.0  0.27600  0.47400  0.84800  1.0000
