data_image0
_chemical_formula_structural       CaCoF4
_chemical_formula_sum              "Ca1 Co1 F4"
_cell_length_a       3.3947
_cell_length_b       4.70013
_cell_length_c       4.87944
_cell_angle_alpha    88.5109
_cell_angle_beta     85.4948
_cell_angle_gamma    84.5794

_space_group_name_H-M_alt    "P 1"
_space_group_IT_number       1

loop_
  _space_group_symop_operation_xyz
  'x, y, z'

loop_
  _atom_site_type_symbol
  _atom_site_label
  _atom_site_symmetry_multiplicity
  _atom_site_fract_x
  _atom_site_fract_y
  _atom_site_fract_z
  _atom_site_occupancy
  Ca  Ca1       1.0  0.17300  0.71200  0.30300  1.0000
  Co  Co1       1.0  0.67300  0.21200  0.80300  1.0000
  F   F1        1.0  0.66400  0.94700  0.11700  1.0000
  F   F2        1.0  0.68200  0.47600  0.49000  1.0000
  F   F3        1.0  0.20000  0.00779  0.64500  1.0000
  F   F4        1.0  0.14500  0.41600  0.96200  1.0000
