data_image0
_chemical_formula_structural       Fe2H3O6
_chemical_formula_sum              "Fe2 H3 O6"
_cell_length_a       4.94657
_cell_length_b       4.94657
_cell_length_c       5.06815
_cell_angle_alpha    104.256
_cell_angle_beta     104.256
_cell_angle_gamma    120.489

_space_group_name_H-M_alt    "P 1"
_space_group_IT_number       1

loop_
  _space_group_symop_operation_xyz
  'x, y, z'

loop_
  _atom_site_type_symbol
  _atom_site_label
  _atom_site_symmetry_multiplicity
  _atom_site_fract_x
  _atom_site_fract_y
  _atom_site_fract_z
  _atom_site_occupancy
  Fe  Fe1       1.0  0.88000  0.21000  0.00037  1.0000
  Fe  Fe2       1.0  0.21000  0.88000  0.00037  1.0000
  H   H1        1.0  0.83500  0.22100  0.47900  1.0000
  H   H2        1.0  0.22100  0.83500  0.47900  1.0000
  H   H3        1.0  0.58400  0.58400  0.53800  1.0000
  O   O1        1.0  0.29100  0.29100  0.23400  1.0000
  O   O2        1.0  0.67200  0.03220  0.24100  1.0000
  O   O3        1.0  0.03220  0.67200  0.24100  1.0000
  O   O4        1.0  0.78700  0.78700  0.74800  1.0000
  O   O5        1.0  0.43100  0.05700  0.77000  1.0000
  O   O6        1.0  0.05700  0.43100  0.77000  1.0000
