data_image0
_chemical_formula_structural       Al2H10O8
_chemical_formula_sum              "Al2 H10 O8"
_cell_length_a       5.12759
_cell_length_b       6.15416
_cell_length_c       4.10238
_cell_angle_alpha    90
_cell_angle_beta     90
_cell_angle_gamma    90

_space_group_name_H-M_alt    "P 1"
_space_group_IT_number       1

loop_
  _space_group_symop_operation_xyz
  'x, y, z'

loop_
  _atom_site_type_symbol
  _atom_site_label
  _atom_site_symmetry_multiplicity
  _atom_site_fract_x
  _atom_site_fract_y
  _atom_site_fract_z
  _atom_site_occupancy
  Al  Al1       1.0  0.25000  0.25000  0.22800  1.0000
  Al  Al2       1.0  0.75000  0.75000  0.77200  1.0000
  H   H1        1.0  0.25000  0.75000  0.01660  1.0000
  H   H2        1.0  0.60000  0.59400  0.29400  1.0000
  H   H3        1.0  0.90000  0.59400  0.29400  1.0000
  H   H4        1.0  0.60000  0.90600  0.29400  1.0000
  H   H5        1.0  0.90000  0.90600  0.29400  1.0000
  H   H6        1.0  0.10000  0.09360  0.70600  1.0000
  H   H7        1.0  0.40000  0.09360  0.70600  1.0000
  H   H8        1.0  0.10000  0.40600  0.70600  1.0000
  H   H9        1.0  0.40000  0.40600  0.70600  1.0000
  H   H10       1.0  0.75000  0.25000  0.98300  1.0000
  O   O1        1.0  0.01480  0.75000  0.03540  1.0000
  O   O2        1.0  0.48500  0.75000  0.03540  1.0000
  O   O3        1.0  0.75000  0.54100  0.45300  1.0000
  O   O4        1.0  0.75000  0.95900  0.45300  1.0000
  O   O5        1.0  0.25000  0.04080  0.54700  1.0000
  O   O6        1.0  0.25000  0.45900  0.54700  1.0000
  O   O7        1.0  0.51500  0.25000  0.96500  1.0000
  O   O8        1.0  0.98500  0.25000  0.96500  1.0000
