data_image0
_chemical_formula_structural       H6O8V2
_chemical_formula_sum              "H6 O8 V2"
_cell_length_a       5.42615
_cell_length_b       4.997
_cell_length_c       4.71315
_cell_angle_alpha    90
_cell_angle_beta     90
_cell_angle_gamma    90

_space_group_name_H-M_alt    "P 1"
_space_group_IT_number       1

loop_
  _space_group_symop_operation_xyz
  'x, y, z'

loop_
  _atom_site_type_symbol
  _atom_site_label
  _atom_site_symmetry_multiplicity
  _atom_site_fract_x
  _atom_site_fract_y
  _atom_site_fract_z
  _atom_site_occupancy
  H   H1        1.0  0.00000  0.32200  0.41800  1.0000
  H   H2        1.0  0.24700  0.54300  0.46500  1.0000
  H   H3        1.0  0.75300  0.54300  0.46500  1.0000
  H   H4        1.0  0.50000  0.67800  0.91800  1.0000
  H   H5        1.0  0.25300  0.45700  0.96500  1.0000
  H   H6        1.0  0.74700  0.45700  0.96500  1.0000
  O   O1        1.0  0.00000  0.84600  0.37500  1.0000
  O   O2        1.0  0.22200  0.35300  0.41000  1.0000
  O   O3        1.0  0.77800  0.35300  0.41000  1.0000
  O   O4        1.0  0.50000  0.84100  0.41700  1.0000
  O   O5        1.0  0.50000  0.15400  0.87500  1.0000
  O   O6        1.0  0.27800  0.64700  0.91000  1.0000
  O   O7        1.0  0.72200  0.64700  0.91000  1.0000
  O   O8        1.0  0.00000  0.15900  0.91700  1.0000
  V   V1        1.0  0.00000  0.84800  0.02470  1.0000
  V   V2        1.0  0.50000  0.15200  0.52500  1.0000
