data_image0
_chemical_formula_structural       H3O13V6
_chemical_formula_sum              "H3 O13 V6"
_cell_length_a       3.65683
_cell_length_b       6.20676
_cell_length_c       9.99624
_cell_angle_alpha    101.006
_cell_angle_beta     90
_cell_angle_gamma    107.133

_space_group_name_H-M_alt    "P 1"
_space_group_IT_number       1

loop_
  _space_group_symop_operation_xyz
  'x, y, z'

loop_
  _atom_site_type_symbol
  _atom_site_label
  _atom_site_symmetry_multiplicity
  _atom_site_fract_x
  _atom_site_fract_y
  _atom_site_fract_z
  _atom_site_occupancy
  H   H1        1.0  0.00000  0.00000  0.00000  1.0000
  H   H2        1.0  0.07700  0.15400  0.46400  1.0000
  H   H3        1.0  0.92300  0.84600  0.53600  1.0000
  O   O1        1.0  0.50000  0.00000  0.00000  1.0000
  O   O2        1.0  0.18100  0.36100  0.00027  1.0000
  O   O3        1.0  0.68700  0.37400  0.19700  1.0000
  O   O4        1.0  0.37700  0.75400  0.19800  1.0000
  O   O5        1.0  0.23900  0.47800  0.40700  1.0000
  O   O6        1.0  0.56800  0.13600  0.40800  1.0000
  O   O7        1.0  0.90200  0.80400  0.41900  1.0000
  O   O8        1.0  0.09780  0.19600  0.58100  1.0000
  O   O9        1.0  0.43200  0.86400  0.59200  1.0000
  O   O10       1.0  0.76100  0.52200  0.59300  1.0000
  O   O11       1.0  0.62300  0.24600  0.80200  1.0000
  O   O12       1.0  0.31300  0.62600  0.80300  1.0000
  O   O13       1.0  0.81900  0.63900  0.00000  1.0000
  V   V1        1.0  0.35200  0.70400  0.00263  1.0000
  V   V2        1.0  0.40700  0.81400  0.36200  1.0000
  V   V3        1.0  0.71400  0.42900  0.36600  1.0000
  V   V4        1.0  0.28600  0.57100  0.63400  1.0000
  V   V5        1.0  0.59300  0.18600  0.63800  1.0000
  V   V6        1.0  0.64800  0.29600  0.99700  1.0000
