data_image0
_chemical_formula_structural       Cu2H4O6
_chemical_formula_sum              "Cu2 H4 O6"
_cell_length_a       5.52423
_cell_length_b       5.52423
_cell_length_c       4.60404
_cell_angle_alpha    95.1576
_cell_angle_beta     95.1576
_cell_angle_gamma    130.399

_space_group_name_H-M_alt    "P 1"
_space_group_IT_number       1

loop_
  _space_group_symop_operation_xyz
  'x, y, z'

loop_
  _atom_site_type_symbol
  _atom_site_label
  _atom_site_symmetry_multiplicity
  _atom_site_fract_x
  _atom_site_fract_y
  _atom_site_fract_z
  _atom_site_occupancy
  Cu  Cu1       1.0  0.84100  0.13200  0.01230  1.0000
  Cu  Cu2       1.0  0.13200  0.84100  0.01230  1.0000
  H   H1        1.0  0.56900  0.56900  0.08850  1.0000
  H   H2        1.0  0.01500  0.01500  0.42400  1.0000
  H   H3        1.0  0.66300  0.51300  0.55000  1.0000
  H   H4        1.0  0.51300  0.66300  0.55000  1.0000
  O   O1        1.0  0.71300  0.47500  0.10700  1.0000
  O   O2        1.0  0.47500  0.71300  0.10700  1.0000
  O   O3        1.0  0.13500  0.13500  0.27000  1.0000
  O   O4        1.0  0.72500  0.72500  0.61300  1.0000
  O   O5        1.0  0.53700  0.18500  0.88300  1.0000
  O   O6        1.0  0.18500  0.53700  0.88300  1.0000
