data_image0
_chemical_formula_structural       Cs2W6
_chemical_formula_sum              "Cs2 W6"
_cell_length_a       6.9196
_cell_length_b       6.9196
_cell_length_c       4.51527
_cell_angle_alpha    90
_cell_angle_beta     90
_cell_angle_gamma    120

_space_group_name_H-M_alt    "P 1"
_space_group_IT_number       1

loop_
  _space_group_symop_operation_xyz
  'x, y, z'

loop_
  _atom_site_type_symbol
  _atom_site_label
  _atom_site_symmetry_multiplicity
  _atom_site_fract_x
  _atom_site_fract_y
  _atom_site_fract_z
  _atom_site_occupancy
  Cs  Cs1       1.0  0.33300  0.66700  0.75000  1.0000
  Cs  Cs2       1.0  0.66700  0.33300  0.25000  1.0000
  W   W1        1.0  0.12400  0.24800  0.25000  1.0000
  W   W2        1.0  0.75200  0.87600  0.25000  1.0000
  W   W3        1.0  0.12400  0.87600  0.25000  1.0000
  W   W4        1.0  0.87600  0.75200  0.75000  1.0000
  W   W5        1.0  0.24800  0.12400  0.75000  1.0000
  W   W6        1.0  0.87600  0.12400  0.75000  1.0000
