data_image0
_chemical_formula_structural       B4H8O11
_chemical_formula_sum              "B4 H8 O11"
_cell_length_a       8.76695
_cell_length_b       4.77783
_cell_length_c       4.82968
_cell_angle_alpha    103.47
_cell_angle_beta     97.7489
_cell_angle_gamma    124.844

_space_group_name_H-M_alt    "P 1"
_space_group_IT_number       1

loop_
  _space_group_symop_operation_xyz
  'x, y, z'

loop_
  _atom_site_type_symbol
  _atom_site_label
  _atom_site_symmetry_multiplicity
  _atom_site_fract_x
  _atom_site_fract_y
  _atom_site_fract_z
  _atom_site_occupancy
  B   B1        1.0  0.07590  0.94500  0.01490  1.0000
  B   B2        1.0  0.00113  0.39400  0.02470  1.0000
  B   B3        1.0  0.37900  0.10800  0.86900  1.0000
  B   B4        1.0  0.71300  0.72800  0.97600  1.0000
  H   H1        1.0  0.73800  0.19200  0.15700  1.0000
  H   H2        1.0  0.63300  0.53800  0.30200  1.0000
  H   H3        1.0  0.21600  0.48500  0.39000  1.0000
  H   H4        1.0  0.48200  0.94200  0.45500  1.0000
  H   H5        1.0  0.87500  0.00311  0.47900  1.0000
  H   H6        1.0  0.78300  0.45800  0.66800  1.0000
  H   H7        1.0  0.07220  0.55600  0.68200  1.0000
  H   H8        1.0  0.42000  0.68900  0.77500  1.0000
  O   O1        1.0  0.78200  0.10800  0.00156  1.0000
  O   O2        1.0  0.10800  0.28800  0.18400  1.0000
  O   O3        1.0  0.07950  0.75200  0.19200  1.0000
  O   O4        1.0  0.45600  0.19500  0.21100  1.0000
  O   O5        1.0  0.76800  0.74300  0.28100  1.0000
  O   O6        1.0  0.54500  0.03000  0.29500  1.0000
  O   O7        1.0  0.37900  0.81100  0.67800  1.0000
  O   O8        1.0  0.98900  0.31600  0.71000  1.0000
  O   O9        1.0  0.18300  0.99500  0.81000  1.0000
  O   O10       1.0  0.84500  0.70500  0.81600  1.0000
  O   O11       1.0  0.50900  0.45000  0.82100  1.0000
