data_image0
_chemical_formula_structural       H11O8Zn2
_chemical_formula_sum              "H11 O8 Zn2"
_cell_length_a       5.43279
_cell_length_b       5.22174
_cell_length_c       4.40326
_cell_angle_alpha    90
_cell_angle_beta     90
_cell_angle_gamma    90

_space_group_name_H-M_alt    "P 1"
_space_group_IT_number       1

loop_
  _space_group_symop_operation_xyz
  'x, y, z'

loop_
  _atom_site_type_symbol
  _atom_site_label
  _atom_site_symmetry_multiplicity
  _atom_site_fract_x
  _atom_site_fract_y
  _atom_site_fract_z
  _atom_site_occupancy
  H   H1        1.0  0.57100  0.10100  0.20600  1.0000
  H   H2        1.0  0.92900  0.10100  0.20600  1.0000
  H   H3        1.0  0.57100  0.39900  0.20600  1.0000
  H   H4        1.0  0.92900  0.39900  0.20600  1.0000
  H   H5        1.0  0.75000  0.75000  0.44600  1.0000
  H   H6        1.0  0.25000  0.25000  0.59300  1.0000
  H   H7        1.0  0.09620  0.58100  0.74300  1.0000
  H   H8        1.0  0.40400  0.58100  0.74300  1.0000
  H   H9        1.0  0.09620  0.91900  0.74300  1.0000
  H   H10       1.0  0.40400  0.91900  0.74300  1.0000
  H   H11       1.0  0.75000  0.75000  0.93000  1.0000
  O   O1        1.0  0.50400  0.25000  0.07520  1.0000
  O   O2        1.0  0.99600  0.25000  0.07520  1.0000
  O   O3        1.0  0.75000  0.52000  0.43200  1.0000
  O   O4        1.0  0.75000  0.98000  0.43200  1.0000
  O   O5        1.0  0.25000  0.01170  0.59600  1.0000
  O   O6        1.0  0.25000  0.48800  0.59600  1.0000
  O   O7        1.0  0.51600  0.75000  0.92000  1.0000
  O   O8        1.0  0.98400  0.75000  0.92000  1.0000
  Zn  Zn1       1.0  0.25000  0.75000  0.24100  1.0000
  Zn  Zn2       1.0  0.75000  0.25000  0.73100  1.0000
