data_image0
_chemical_formula_structural       H20O18Zn8
_chemical_formula_sum              "H20 O18 Zn8"
_cell_length_a       8.28753
_cell_length_b       8.28753
_cell_length_c       4.45272
_cell_angle_alpha    90
_cell_angle_beta     90
_cell_angle_gamma    90

_space_group_name_H-M_alt    "P 1"
_space_group_IT_number       1

loop_
  _space_group_symop_operation_xyz
  'x, y, z'

loop_
  _atom_site_type_symbol
  _atom_site_label
  _atom_site_symmetry_multiplicity
  _atom_site_fract_x
  _atom_site_fract_y
  _atom_site_fract_z
  _atom_site_occupancy
  H   H1        1.0  0.75000  0.75000  0.05820  1.0000
  H   H2        1.0  0.14600  0.02780  0.07790  1.0000
  H   H3        1.0  0.35400  0.02780  0.07790  1.0000
  H   H4        1.0  0.14600  0.47200  0.07790  1.0000
  H   H5        1.0  0.35400  0.47200  0.07790  1.0000
  H   H6        1.0  0.52800  0.64600  0.42200  1.0000
  H   H7        1.0  0.97200  0.64600  0.42200  1.0000
  H   H8        1.0  0.52800  0.85400  0.42200  1.0000
  H   H9        1.0  0.97200  0.85400  0.42200  1.0000
  H   H10       1.0  0.25000  0.25000  0.44200  1.0000
  H   H11       1.0  0.75000  0.75000  0.55800  1.0000
  H   H12       1.0  0.02780  0.14600  0.57800  1.0000
  H   H13       1.0  0.47200  0.14600  0.57800  1.0000
  H   H14       1.0  0.02780  0.35400  0.57800  1.0000
  H   H15       1.0  0.47200  0.35400  0.57800  1.0000
  H   H16       1.0  0.64600  0.52800  0.92200  1.0000
  H   H17       1.0  0.85400  0.52800  0.92200  1.0000
  H   H18       1.0  0.64600  0.97200  0.92200  1.0000
  H   H19       1.0  0.85400  0.97200  0.92200  1.0000
  H   H20       1.0  0.25000  0.25000  0.94200  1.0000
  O   O1        1.0  0.75000  0.59600  0.06040  1.0000
  O   O2        1.0  0.75000  0.90400  0.06040  1.0000
  O   O3        1.0  0.75000  0.25000  0.25000  1.0000
  O   O4        1.0  0.06890  0.56900  0.25000  1.0000
  O   O5        1.0  0.43100  0.56900  0.25000  1.0000
  O   O6        1.0  0.06890  0.93100  0.25000  1.0000
  O   O7        1.0  0.43100  0.93100  0.25000  1.0000
  O   O8        1.0  0.09630  0.25000  0.44000  1.0000
  O   O9        1.0  0.40400  0.25000  0.44000  1.0000
  O   O10       1.0  0.59600  0.75000  0.56000  1.0000
  O   O11       1.0  0.90400  0.75000  0.56000  1.0000
  O   O12       1.0  0.56900  0.06890  0.75000  1.0000
  O   O13       1.0  0.93100  0.06890  0.75000  1.0000
  O   O14       1.0  0.56900  0.43100  0.75000  1.0000
  O   O15       1.0  0.93100  0.43100  0.75000  1.0000
  O   O16       1.0  0.25000  0.75000  0.75000  1.0000
  O   O17       1.0  0.25000  0.09630  0.94000  1.0000
  O   O18       1.0  0.25000  0.40400  0.94000  1.0000
  Zn  Zn1       1.0  0.54700  0.25000  0.04300  1.0000
  Zn  Zn2       1.0  0.95300  0.25000  0.04300  1.0000
  Zn  Zn3       1.0  0.75000  0.04720  0.45700  1.0000
  Zn  Zn4       1.0  0.75000  0.45300  0.45700  1.0000
  Zn  Zn5       1.0  0.25000  0.54700  0.54300  1.0000
  Zn  Zn6       1.0  0.25000  0.95300  0.54300  1.0000
  Zn  Zn7       1.0  0.04720  0.75000  0.95700  1.0000
  Zn  Zn8       1.0  0.45300  0.75000  0.95700  1.0000
