data_image0
_chemical_formula_structural       H8O11Si4
_chemical_formula_sum              "H8 O11 Si4"
_cell_length_a       9.38308
_cell_length_b       4.75062
_cell_length_c       4.70088
_cell_angle_alpha    108.186
_cell_angle_beta     91.7868
_cell_angle_gamma    122.718

_space_group_name_H-M_alt    "P 1"
_space_group_IT_number       1

loop_
  _space_group_symop_operation_xyz
  'x, y, z'

loop_
  _atom_site_type_symbol
  _atom_site_label
  _atom_site_symmetry_multiplicity
  _atom_site_fract_x
  _atom_site_fract_y
  _atom_site_fract_z
  _atom_site_occupancy
  H   H1        1.0  0.12800  0.39300  0.43100  1.0000
  H   H2        1.0  0.88500  0.20500  0.47100  1.0000
  H   H3        1.0  0.27000  0.05140  0.48800  1.0000
  H   H4        1.0  0.58500  0.29100  0.51000  1.0000
  H   H5        1.0  0.92200  0.76100  0.52200  1.0000
  H   H6        1.0  0.63100  0.84200  0.57800  1.0000
  H   H7        1.0  0.28600  0.53800  0.84600  1.0000
  H   H8        1.0  0.69300  0.45400  0.90000  1.0000
  O   O1        1.0  0.95600  0.63800  0.19900  1.0000
  O   O2        1.0  0.11200  0.30400  0.20300  1.0000
  O   O3        1.0  0.80500  0.03000  0.24600  1.0000
  O   O4        1.0  0.28000  0.04050  0.26100  1.0000
  O   O5        1.0  0.60000  0.25000  0.28100  1.0000
  O   O6        1.0  0.02740  0.43700  0.74900  1.0000
  O   O7        1.0  0.91600  0.82600  0.75300  1.0000
  O   O8        1.0  0.24900  0.08390  0.79500  1.0000
  O   O9        1.0  0.69600  0.99900  0.79900  1.0000
  O   O10       1.0  0.57500  0.37300  0.80500  1.0000
  O   O11       1.0  0.39400  0.75300  0.83900  1.0000
  Si  Si1       1.0  0.43100  0.21500  0.04810  1.0000
  Si  Si2       1.0  0.58000  0.83900  0.08190  1.0000
  Si  Si3       1.0  0.08670  0.87600  0.98900  1.0000
  Si  Si4       1.0  0.92400  0.22600  0.99200  1.0000
