data_image0
_chemical_formula_structural       Fe10H2O16
_chemical_formula_sum              "Fe10 H2 O16"
_cell_length_a       5.95881
_cell_length_b       5.95877
_cell_length_c       9.19698
_cell_angle_alpha    90
_cell_angle_beta     90
_cell_angle_gamma    120

_space_group_name_H-M_alt    "P 1"
_space_group_IT_number       1

loop_
  _space_group_symop_operation_xyz
  'x, y, z'

loop_
  _atom_site_type_symbol
  _atom_site_label
  _atom_site_symmetry_multiplicity
  _atom_site_fract_x
  _atom_site_fract_y
  _atom_site_fract_z
  _atom_site_occupancy
  Fe  Fe1       1.0  0.33200  0.16600  0.13400  1.0000
  Fe  Fe2       1.0  0.83400  0.16600  0.13400  1.0000
  Fe  Fe3       1.0  0.83400  0.66800  0.13400  1.0000
  Fe  Fe4       1.0  0.33300  0.66700  0.34200  1.0000
  Fe  Fe5       1.0  0.66700  0.33300  0.46100  1.0000
  Fe  Fe6       1.0  0.16600  0.83400  0.63400  1.0000
  Fe  Fe7       1.0  0.66800  0.83400  0.63400  1.0000
  Fe  Fe8       1.0  0.16600  0.33200  0.63400  1.0000
  Fe  Fe9       1.0  0.66700  0.33300  0.84200  1.0000
  Fe  Fe10      1.0  0.33300  0.66700  0.96100  1.0000
  H   H1        1.0  0.00000  0.00000  0.40300  1.0000
  H   H2        1.0  0.00000  0.00000  0.90300  1.0000
  O   O1        1.0  0.51600  0.03150  0.99700  1.0000
  O   O2        1.0  0.51600  0.48400  0.99700  1.0000
  O   O3        1.0  0.96900  0.48400  0.99700  1.0000
  O   O4        1.0  0.00000  0.00000  0.01010  1.0000
  O   O5        1.0  0.16600  0.83400  0.23700  1.0000
  O   O6        1.0  0.66800  0.83400  0.23700  1.0000
  O   O7        1.0  0.16600  0.33200  0.23700  1.0000
  O   O8        1.0  0.66700  0.33300  0.24900  1.0000
  O   O9        1.0  0.48400  0.96900  0.49700  1.0000
  O   O10       1.0  0.03140  0.51600  0.49700  1.0000
  O   O11       1.0  0.48400  0.51600  0.49700  1.0000
  O   O12       1.0  0.00000  0.00000  0.51000  1.0000
  O   O13       1.0  0.33200  0.16600  0.73700  1.0000
  O   O14       1.0  0.83400  0.16600  0.73700  1.0000
  O   O15       1.0  0.83400  0.66800  0.73700  1.0000
  O   O16       1.0  0.33300  0.66700  0.74900  1.0000
