data_image0
_chemical_formula_structural       H4O6Sc2
_chemical_formula_sum              "H4 O6 Sc2"
_cell_length_a       5.15967
_cell_length_b       5.15967
_cell_length_c       4.89137
_cell_angle_alpha    105.539
_cell_angle_beta     105.539
_cell_angle_gamma    113.714

_space_group_name_H-M_alt    "P 1"
_space_group_IT_number       1

loop_
  _space_group_symop_operation_xyz
  'x, y, z'

loop_
  _atom_site_type_symbol
  _atom_site_label
  _atom_site_symmetry_multiplicity
  _atom_site_fract_x
  _atom_site_fract_y
  _atom_site_fract_z
  _atom_site_occupancy
  H   H1        1.0  0.83800  0.83800  0.34500  1.0000
  H   H2        1.0  0.52700  0.35700  0.45000  1.0000
  H   H3        1.0  0.35700  0.52700  0.45000  1.0000
  H   H4        1.0  0.60000  0.60000  0.87800  1.0000
  O   O1        1.0  0.97300  0.68400  0.31500  1.0000
  O   O2        1.0  0.68400  0.97300  0.31500  1.0000
  O   O3        1.0  0.32300  0.32300  0.31900  1.0000
  O   O4        1.0  0.38400  0.05080  0.78600  1.0000
  O   O5        1.0  0.05080  0.38400  0.78600  1.0000
  O   O6        1.0  0.74500  0.74500  0.82100  1.0000
  Sc  Sc1       1.0  0.82200  0.19700  0.01820  1.0000
  Sc  Sc2       1.0  0.19700  0.82200  0.01820  1.0000
