data_image0
_chemical_formula_structural       B12H4O20
_chemical_formula_sum              "B12 H4 O20"
_cell_length_a       8.48037
_cell_length_b       5.07816
_cell_length_c       7.08543
_cell_angle_alpha    90
_cell_angle_beta     90
_cell_angle_gamma    90

_space_group_name_H-M_alt    "P 1"
_space_group_IT_number       1

loop_
  _space_group_symop_operation_xyz
  'x, y, z'

loop_
  _atom_site_type_symbol
  _atom_site_label
  _atom_site_symmetry_multiplicity
  _atom_site_fract_x
  _atom_site_fract_y
  _atom_site_fract_z
  _atom_site_occupancy
  B   B1        1.0  0.70200  0.98700  0.04110  1.0000
  B   B2        1.0  0.47700  0.29200  0.18600  1.0000
  B   B3        1.0  0.85200  0.68700  0.23800  1.0000
  B   B4        1.0  0.35200  0.68700  0.26200  1.0000
  B   B5        1.0  0.97700  0.29200  0.31400  1.0000
  B   B6        1.0  0.20200  0.98700  0.45900  1.0000
  B   B7        1.0  0.79800  0.48700  0.54100  1.0000
  B   B8        1.0  0.02310  0.79200  0.68600  1.0000
  B   B9        1.0  0.64800  0.18700  0.73800  1.0000
  B   B10       1.0  0.14800  0.18700  0.76200  1.0000
  B   B11       1.0  0.52300  0.79200  0.81400  1.0000
  B   B12       1.0  0.29800  0.48700  0.95900  1.0000
  H   H1        1.0  0.12600  0.05520  0.15600  1.0000
  H   H2        1.0  0.62600  0.05520  0.34400  1.0000
  H   H3        1.0  0.37400  0.55500  0.65600  1.0000
  H   H4        1.0  0.87400  0.55500  0.84400  1.0000
  O   O1        1.0  0.40200  0.27500  0.01850  1.0000
  O   O2        1.0  0.27600  0.69200  0.09360  1.0000
  O   O3        1.0  0.84400  0.89500  0.11800  1.0000
  O   O4        1.0  0.94400  0.47600  0.18100  1.0000
  O   O5        1.0  0.60800  0.12500  0.21600  1.0000
  O   O6        1.0  0.10800  0.12500  0.28400  1.0000
  O   O7        1.0  0.44400  0.47600  0.31900  1.0000
  O   O8        1.0  0.34400  0.89500  0.38200  1.0000
  O   O9        1.0  0.77600  0.69200  0.40600  1.0000
  O   O10       1.0  0.90200  0.27500  0.48200  1.0000
  O   O11       1.0  0.09750  0.77500  0.51800  1.0000
  O   O12       1.0  0.22400  0.19200  0.59400  1.0000
  O   O13       1.0  0.65600  0.39500  0.61800  1.0000
  O   O14       1.0  0.55600  0.97600  0.68100  1.0000
  O   O15       1.0  0.89200  0.62500  0.71600  1.0000
  O   O16       1.0  0.39200  0.62500  0.78400  1.0000
  O   O17       1.0  0.05600  0.97600  0.81900  1.0000
  O   O18       1.0  0.15600  0.39500  0.88200  1.0000
  O   O19       1.0  0.72400  0.19200  0.90600  1.0000
  O   O20       1.0  0.59800  0.77500  0.98200  1.0000
