data_image0
_chemical_formula_structural       H2O16V6
_chemical_formula_sum              "H2 O16 V6"
_cell_length_a       6.17792
_cell_length_b       3.62247
_cell_length_c       11.8672
_cell_angle_alpha    90
_cell_angle_beta     107.176
_cell_angle_gamma    90

_space_group_name_H-M_alt    "P 1"
_space_group_IT_number       1

loop_
  _space_group_symop_operation_xyz
  'x, y, z'

loop_
  _atom_site_type_symbol
  _atom_site_label
  _atom_site_symmetry_multiplicity
  _atom_site_fract_x
  _atom_site_fract_y
  _atom_site_fract_z
  _atom_site_occupancy
  H   H1        1.0  0.39400  0.75000  0.31900  1.0000
  H   H2        1.0  0.60600  0.25000  0.68100  1.0000
  O   O1        1.0  0.69100  0.75000  0.05500  1.0000
  O   O2        1.0  0.13600  0.75000  0.07070  1.0000
  O   O3        1.0  0.00411  0.25000  0.17600  1.0000
  O   O4        1.0  0.46400  0.25000  0.18600  1.0000
  O   O5        1.0  0.81000  0.75000  0.29500  1.0000
  O   O6        1.0  0.23900  0.75000  0.32500  1.0000
  O   O7        1.0  0.59800  0.25000  0.43600  1.0000
  O   O8        1.0  0.07180  0.25000  0.45400  1.0000
  O   O9        1.0  0.92800  0.75000  0.54600  1.0000
  O   O10       1.0  0.40200  0.75000  0.56400  1.0000
  O   O11       1.0  0.76100  0.25000  0.67500  1.0000
  O   O12       1.0  0.19000  0.25000  0.70500  1.0000
  O   O13       1.0  0.53600  0.75000  0.81400  1.0000
  O   O14       1.0  0.99600  0.75000  0.82400  1.0000
  O   O15       1.0  0.86400  0.25000  0.92900  1.0000
  O   O16       1.0  0.30900  0.25000  0.94500  1.0000
  V   V1        1.0  0.22900  0.25000  0.08220  1.0000
  V   V2        1.0  0.92300  0.75000  0.18700  1.0000
  V   V3        1.0  0.16300  0.75000  0.46400  1.0000
  V   V4        1.0  0.83700  0.25000  0.53600  1.0000
  V   V5        1.0  0.07670  0.25000  0.81300  1.0000
  V   V6        1.0  0.77100  0.75000  0.91800  1.0000
