data_image0
_chemical_formula_structural       B4H11O12
_chemical_formula_sum              "B4 H11 O12"
_cell_length_a       2.92466
_cell_length_b       8.44139
_cell_length_c       7.67801
_cell_angle_alpha    94.1151
_cell_angle_beta     103.198
_cell_angle_gamma    88.8881

_space_group_name_H-M_alt    "P 1"
_space_group_IT_number       1

loop_
  _space_group_symop_operation_xyz
  'x, y, z'

loop_
  _atom_site_type_symbol
  _atom_site_label
  _atom_site_symmetry_multiplicity
  _atom_site_fract_x
  _atom_site_fract_y
  _atom_site_fract_z
  _atom_site_occupancy
  B   B1        1.0  0.23200  0.19500  0.23400  1.0000
  B   B2        1.0  0.83700  0.72600  0.27100  1.0000
  B   B3        1.0  0.15300  0.29900  0.74700  1.0000
  B   B4        1.0  0.79400  0.79400  0.78300  1.0000
  H   H1        1.0  0.23800  0.39500  0.03300  1.0000
  H   H2        1.0  0.43500  0.71300  0.03540  1.0000
  H   H3        1.0  0.04070  0.99600  0.05240  1.0000
  H   H4        1.0  0.45900  0.42400  0.31300  1.0000
  H   H5        1.0  0.77800  0.94500  0.39100  1.0000
  H   H6        1.0  0.59700  0.21800  0.48400  1.0000
  H   H7        1.0  0.26700  0.75000  0.49800  1.0000
  H   H8        1.0  0.56900  0.58600  0.62700  1.0000
  H   H9        1.0  0.49800  0.99600  0.68000  1.0000
  H   H10       1.0  0.95600  0.51800  0.84600  1.0000
  H   H11       1.0  0.60100  0.15400  0.90900  1.0000
  O   O1        1.0  0.98100  0.11500  0.08340  1.0000
  O   O2        1.0  0.66800  0.63900  0.11200  1.0000
  O   O3        1.0  0.33500  0.35200  0.20800  1.0000
  O   O4        1.0  0.69700  0.88100  0.27800  1.0000
  O   O5        1.0  0.36500  0.13900  0.40000  1.0000
  O   O6        1.0  0.14200  0.65800  0.41100  1.0000
  O   O7        1.0  0.93100  0.34200  0.58400  1.0000
  O   O8        1.0  0.56300  0.88200  0.64400  1.0000
  O   O9        1.0  0.73000  0.62900  0.74700  1.0000
  O   O10       1.0  0.41200  0.16300  0.78200  1.0000
  O   O11       1.0  0.13400  0.40900  0.89300  1.0000
  O   O12       1.0  0.09190  0.84400  0.93500  1.0000
