data_image0
_chemical_formula_structural       In3Pd2
_chemical_formula_sum              "In3 Pd2"
_cell_length_a       4.58625
_cell_length_b       4.58621
_cell_length_c       5.57754
_cell_angle_alpha    90
_cell_angle_beta     89.9992
_cell_angle_gamma    120

_space_group_name_H-M_alt    "P 1"
_space_group_IT_number       1

loop_
  _space_group_symop_operation_xyz
  'x, y, z'

loop_
  _atom_site_type_symbol
  _atom_site_label
  _atom_site_symmetry_multiplicity
  _atom_site_fract_x
  _atom_site_fract_y
  _atom_site_fract_z
  _atom_site_occupancy
  In  In1       1.0  0.00000  0.00000  0.00000  1.0000
  In  In2       1.0  0.66700  0.33300  0.35700  1.0000
  In  In3       1.0  0.33300  0.66700  0.64300  1.0000
  Pd  Pd1       1.0  0.33300  0.66700  0.14900  1.0000
  Pd  Pd2       1.0  0.66700  0.33300  0.85100  1.0000
