data_image0
_chemical_formula_structural       Al4H8O11
_chemical_formula_sum              "Al4 H8 O11"
_cell_length_a       10.2446
_cell_length_b       4.91444
_cell_length_c       4.70574
_cell_angle_alpha    105.588
_cell_angle_beta     99.9365
_cell_angle_gamma    122.86

_space_group_name_H-M_alt    "P 1"
_space_group_IT_number       1

loop_
  _space_group_symop_operation_xyz
  'x, y, z'

loop_
  _atom_site_type_symbol
  _atom_site_label
  _atom_site_symmetry_multiplicity
  _atom_site_fract_x
  _atom_site_fract_y
  _atom_site_fract_z
  _atom_site_occupancy
  Al  Al1       1.0  0.07960  0.87000  0.03960  1.0000
  Al  Al2       1.0  0.57000  0.82600  0.87500  1.0000
  Al  Al3       1.0  0.40000  0.09710  0.96300  1.0000
  Al  Al4       1.0  0.91100  0.16500  0.99100  1.0000
  H   H1        1.0  0.73000  0.70200  0.18300  1.0000
  H   H2        1.0  0.64200  0.35200  0.40300  1.0000
  H   H3        1.0  0.21300  0.45800  0.45600  1.0000
  H   H4        1.0  0.07170  0.75700  0.47400  1.0000
  H   H5        1.0  0.88800  0.69600  0.53400  1.0000
  H   H6        1.0  0.04530  0.34900  0.60700  1.0000
  H   H7        1.0  0.74400  0.27500  0.69100  1.0000
  H   H8        1.0  0.25500  0.31800  0.82000  1.0000
  O   O1        1.0  0.75000  0.90900  0.14900  1.0000
  O   O2        1.0  0.61700  0.28400  0.17400  1.0000
  O   O3        1.0  0.97600  0.61600  0.26200  1.0000
  O   O4        1.0  0.09410  0.24900  0.28400  1.0000
  O   O5        1.0  0.35400  0.16800  0.33800  1.0000
  O   O6        1.0  0.48200  0.32500  0.66700  1.0000
  O   O7        1.0  0.70900  0.04790  0.69800  1.0000
  O   O8        1.0  0.88100  0.74400  0.74900  1.0000
  O   O9        1.0  0.36100  0.68500  0.77100  1.0000
  O   O10       1.0  0.04570  0.45000  0.81900  1.0000
  O   O11       1.0  0.21700  0.08100  0.82800  1.0000
