data_image0
_chemical_formula_structural       B16H8O28
_chemical_formula_sum              "B16 H8 O28"
_cell_length_a       8.18099
_cell_length_b       8.18099
_cell_length_c       8.18099
_cell_angle_alpha    111.051
_cell_angle_beta     106.355
_cell_angle_gamma    111.051

_space_group_name_H-M_alt    "P 1"
_space_group_IT_number       1

loop_
  _space_group_symop_operation_xyz
  'x, y, z'

loop_
  _atom_site_type_symbol
  _atom_site_label
  _atom_site_symmetry_multiplicity
  _atom_site_fract_x
  _atom_site_fract_y
  _atom_site_fract_z
  _atom_site_occupancy
  B   B1        1.0  0.02870  0.72900  0.10300  1.0000
  B   B2        1.0  0.35300  0.57400  0.12400  1.0000
  B   B3        1.0  0.01190  0.03960  0.18500  1.0000
  B   B4        1.0  0.93500  0.54000  0.26200  1.0000
  B   B5        1.0  0.85300  0.22900  0.27900  1.0000
  B   B6        1.0  0.37400  0.27100  0.30000  1.0000
  B   B7        1.0  0.72200  0.46000  0.39500  1.0000
  B   B8        1.0  0.51200  0.82700  0.47200  1.0000
  B   B9        1.0  0.87400  0.07430  0.60300  1.0000
  B   B10       1.0  0.04970  0.77100  0.62400  1.0000
  B   B11       1.0  0.64500  0.17300  0.68500  1.0000
  B   B12       1.0  0.22200  0.32700  0.76200  1.0000
  B   B13       1.0  0.55000  0.42600  0.77900  1.0000
  B   B14       1.0  0.52900  0.92600  0.80000  1.0000
  B   B15       1.0  0.43500  0.67300  0.89500  1.0000
  B   B16       1.0  0.14500  0.96000  0.97200  1.0000
  H   H1        1.0  0.56300  0.12800  0.23800  1.0000
  H   H2        1.0  0.68500  0.82500  0.31300  1.0000
  H   H3        1.0  0.18500  0.37200  0.36000  1.0000
  H   H4        1.0  0.11000  0.87200  0.43500  1.0000
  H   H5        1.0  0.61000  0.67500  0.73800  1.0000
  H   H6        1.0  0.98800  0.62800  0.81300  1.0000
  H   H7        1.0  0.48800  0.17500  0.86000  1.0000
  H   H8        1.0  0.06290  0.32500  0.93500  1.0000
  O   O1        1.0  0.48900  0.69300  0.09020  1.0000
  O   O2        1.0  0.97300  0.55700  0.10800  1.0000
  O   O3        1.0  0.34000  0.10100  0.14800  1.0000
  O   O4        1.0  0.85800  0.05690  0.22300  1.0000
  O   O5        1.0  0.04670  0.89900  0.23900  1.0000
  O   O6        1.0  0.74500  0.50000  0.24500  1.0000
  O   O7        1.0  0.98900  0.39900  0.29700  1.0000
  O   O8        1.0  0.35800  0.63500  0.30100  1.0000
  O   O9        1.0  0.70600  0.24100  0.33300  1.0000
  O   O10       1.0  0.21500  0.25900  0.34200  1.0000
  O   O11       1.0  0.55100  0.44300  0.41600  1.0000
  O   O12       1.0  0.71500  0.87300  0.45600  1.0000
  O   O13       1.0  0.09220  0.75900  0.46500  1.0000
  O   O14       1.0  0.49500  0.00000  0.49500  1.0000
  O   O15       1.0  0.89800  0.60100  0.59000  1.0000
  O   O16       1.0  0.05070  0.13500  0.60800  1.0000
  O   O17       1.0  0.54700  0.80700  0.64800  1.0000
  O   O18       1.0  0.66600  0.36500  0.72300  1.0000
  O   O19       1.0  0.84000  0.19300  0.73900  1.0000
  O   O20       1.0  0.24500  0.50000  0.74500  1.0000
  O   O21       1.0  0.39800  0.30700  0.79700  1.0000
  O   O22       1.0  0.16600  0.94300  0.80100  1.0000
  O   O23       1.0  0.59200  0.62700  0.83300  1.0000
  O   O24       1.0  0.58300  0.12700  0.84200  1.0000
  O   O25       1.0  0.47300  0.86500  0.91600  1.0000
  O   O26       1.0  0.08320  0.74100  0.95600  1.0000
  O   O27       1.0  0.20600  0.37300  0.96500  1.0000
  O   O28       1.0  0.99500  0.00000  0.99500  1.0000
