data_image0
_chemical_formula_structural       H16O12Si2
_chemical_formula_sum              "H16 O12 Si2"
_cell_length_a       5.02815
_cell_length_b       5.03602
_cell_length_c       9.3914
_cell_angle_alpha    92.3539
_cell_angle_beta     88.466
_cell_angle_gamma    122.864

_space_group_name_H-M_alt    "P 1"
_space_group_IT_number       1

loop_
  _space_group_symop_operation_xyz
  'x, y, z'

loop_
  _atom_site_type_symbol
  _atom_site_label
  _atom_site_symmetry_multiplicity
  _atom_site_fract_x
  _atom_site_fract_y
  _atom_site_fract_z
  _atom_site_occupancy
  H   H1        1.0  0.60300  0.33700  0.06710  1.0000
  H   H2        1.0  0.45800  0.60200  0.15100  1.0000
  H   H3        1.0  0.43700  0.89900  0.16100  1.0000
  H   H4        1.0  0.90400  0.47200  0.16100  1.0000
  H   H5        1.0  0.98900  0.15300  0.20000  1.0000
  H   H6        1.0  0.68900  0.58300  0.32200  1.0000
  H   H7        1.0  0.43500  0.10900  0.33600  1.0000
  H   H8        1.0  0.18200  0.50900  0.40200  1.0000
  H   H9        1.0  0.65100  0.40900  0.57200  1.0000
  H   H10       1.0  0.10600  0.59800  0.65500  1.0000
  H   H11       1.0  0.54000  0.11000  0.66100  1.0000
  H   H12       1.0  0.36000  0.51900  0.66800  1.0000
  H   H13       1.0  0.83100  0.98800  0.69700  1.0000
  H   H14       1.0  0.42100  0.30500  0.82700  1.0000
  H   H15       1.0  0.90000  0.56300  0.83300  1.0000
  H   H16       1.0  0.48900  0.81900  0.90400  1.0000
  O   O1        1.0  0.99100  0.99100  0.13900  1.0000
  O   O2        1.0  0.66700  0.33900  0.16600  1.0000
  O   O3        1.0  0.30900  0.66700  0.16600  1.0000
  O   O4        1.0  0.99100  0.29200  0.39500  1.0000
  O   O5        1.0  0.67800  0.66700  0.41700  1.0000
  O   O6        1.0  0.31200  0.99900  0.42000  1.0000
  O   O7        1.0  0.00916  0.01770  0.63900  1.0000
  O   O8        1.0  0.33600  0.69700  0.65900  1.0000
  O   O9        1.0  0.66000  0.34600  0.66900  1.0000
  O   O10       1.0  0.70900  0.00168  0.89500  1.0000
  O   O11       1.0  0.01270  0.68900  0.91800  1.0000
  O   O12       1.0  0.33500  0.31800  0.92000  1.0000
  Si  Si1       1.0  0.99900  0.00384  0.46500  1.0000
  Si  Si2       1.0  1.00000  0.99600  0.96500  1.0000
