data_image0
_chemical_formula_structural       C3Ga
_chemical_formula_sum              "C3 Ga1"
_cell_length_a       5.32705
_cell_length_b       5.32705
_cell_length_c       5.32705
_cell_angle_alpha    150.048
_cell_angle_beta     150.048
_cell_angle_gamma    42.8716

_space_group_name_H-M_alt    "P 1"
_space_group_IT_number       1

loop_
  _space_group_symop_operation_xyz
  'x, y, z'

loop_
  _atom_site_type_symbol
  _atom_site_label
  _atom_site_symmetry_multiplicity
  _atom_site_fract_x
  _atom_site_fract_y
  _atom_site_fract_z
  _atom_site_occupancy
  C   C1        1.0  0.75000  0.25000  0.50000  1.0000
  C   C2        1.0  0.25000  0.75000  0.50000  1.0000
  C   C3        1.0  0.50000  0.50000  0.00000  1.0000
  Ga  Ga1       1.0  0.00000  0.00000  0.00000  1.0000
