data_image0
_chemical_formula_structural       H15O12Si2
_chemical_formula_sum              "H15 O12 Si2"
_cell_length_a       5.0192
_cell_length_b       5.04456
_cell_length_c       9.45807
_cell_angle_alpha    93.3345
_cell_angle_beta     87.396
_cell_angle_gamma    123.823

_space_group_name_H-M_alt    "P 1"
_space_group_IT_number       1

loop_
  _space_group_symop_operation_xyz
  'x, y, z'

loop_
  _atom_site_type_symbol
  _atom_site_label
  _atom_site_symmetry_multiplicity
  _atom_site_fract_x
  _atom_site_fract_y
  _atom_site_fract_z
  _atom_site_occupancy
  H   H1        1.0  0.85700  0.54300  0.01210  1.0000
  H   H2        1.0  0.51300  0.37600  0.13600  1.0000
  H   H3        1.0  0.55700  0.88500  0.17100  1.0000
  H   H4        1.0  0.87000  0.55700  0.19500  1.0000
  H   H5        1.0  0.32200  0.86800  0.29600  1.0000
  H   H6        1.0  0.01850  0.32400  0.32500  1.0000
  H   H7        1.0  0.52700  0.66400  0.32600  1.0000
  H   H8        1.0  0.47300  0.25400  0.43100  1.0000
  H   H9        1.0  0.13600  0.54900  0.59100  1.0000
  H   H10       1.0  0.36100  0.91300  0.64800  1.0000
  H   H11       1.0  0.68100  0.54400  0.65600  1.0000
  H   H12       1.0  0.48600  0.32300  0.78100  1.0000
  H   H13       1.0  0.74300  0.00307  0.79000  1.0000
  H   H14       1.0  0.06200  0.69200  0.82800  1.0000
  H   H15       1.0  0.39400  0.59600  0.91700  1.0000
  O   O1        1.0  0.72300  0.40500  0.12200  1.0000
  O   O2        1.0  0.97400  0.05270  0.14700  1.0000
  O   O3        1.0  0.34800  0.73200  0.21900  1.0000
  O   O4        1.0  0.67100  0.64100  0.39100  1.0000
  O   O5        1.0  0.95300  0.28800  0.42600  1.0000
  O   O6        1.0  0.28800  0.02490  0.42800  1.0000
  O   O7        1.0  0.87600  0.93200  0.64300  1.0000
  O   O8        1.0  0.24300  0.68600  0.67700  1.0000
  O   O9        1.0  0.57500  0.31700  0.68400  1.0000
  O   O10       1.0  0.70000  0.00888  0.89500  1.0000
  O   O11       1.0  0.34000  0.37500  0.92300  1.0000
  O   O12       1.0  0.02800  0.74500  0.93000  1.0000
  Si  Si1       1.0  0.94200  0.97300  0.47500  1.0000
  Si  Si2       1.0  0.00573  0.06170  0.97900  1.0000
