data_image0
_chemical_formula_structural       Ge4H6O11
_chemical_formula_sum              "Ge4 H6 O11"
_cell_length_a       10.1845
_cell_length_b       5.01636
_cell_length_c       4.62805
_cell_angle_alpha    97.3837
_cell_angle_beta     93.5984
_cell_angle_gamma    123.46

_space_group_name_H-M_alt    "P 1"
_space_group_IT_number       1

loop_
  _space_group_symop_operation_xyz
  'x, y, z'

loop_
  _atom_site_type_symbol
  _atom_site_label
  _atom_site_symmetry_multiplicity
  _atom_site_fract_x
  _atom_site_fract_y
  _atom_site_fract_z
  _atom_site_occupancy
  Ge  Ge1       1.0  0.42500  0.13000  0.02890  1.0000
  Ge  Ge2       1.0  0.93100  0.19600  0.04490  1.0000
  Ge  Ge3       1.0  0.10800  0.91600  0.05440  1.0000
  Ge  Ge4       1.0  0.56800  0.84400  0.92700  1.0000
  H   H1        1.0  0.82400  0.78500  0.35900  1.0000
  H   H2        1.0  0.00798  0.59600  0.47300  1.0000
  H   H3        1.0  0.77500  0.02860  0.52100  1.0000
  H   H4        1.0  0.26000  0.09430  0.59100  1.0000
  H   H5        1.0  0.15800  0.51500  0.76100  1.0000
  H   H6        1.0  0.81500  0.59700  0.80600  1.0000
  O   O1        1.0  0.57900  0.10400  0.24300  1.0000
  O   O2        1.0  0.10100  0.24300  0.24500  1.0000
  O   O3        1.0  0.96100  0.57900  0.26900  1.0000
  O   O4        1.0  0.28700  0.01430  0.28700  1.0000
  O   O5        1.0  0.79400  0.93300  0.31300  1.0000
  O   O6        1.0  0.39400  0.79900  0.74800  1.0000
  O   O7        1.0  0.06020  0.50500  0.79500  1.0000
  O   O8        1.0  0.75600  0.11200  0.79700  1.0000
  O   O9        1.0  0.91300  0.81400  0.80800  1.0000
  O   O10       1.0  0.25400  0.14500  0.80900  1.0000
  O   O11       1.0  0.56400  0.48900  0.89300  1.0000
