data_image0
_chemical_formula_structural       H8O28Si12
_chemical_formula_sum              "H8 O28 Si12"
_cell_length_a       19.3934
_cell_length_b       5.65447
_cell_length_c       4.75767
_cell_angle_alpha    90
_cell_angle_beta     90
_cell_angle_gamma    90

_space_group_name_H-M_alt    "P 1"
_space_group_IT_number       1

loop_
  _space_group_symop_operation_xyz
  'x, y, z'

loop_
  _atom_site_type_symbol
  _atom_site_label
  _atom_site_symmetry_multiplicity
  _atom_site_fract_x
  _atom_site_fract_y
  _atom_site_fract_z
  _atom_site_occupancy
  H   H1        1.0  0.05760  0.43900  0.23200  1.0000
  H   H2        1.0  0.44200  0.43900  0.23200  1.0000
  H   H3        1.0  0.55800  0.43900  0.26800  1.0000
  H   H4        1.0  0.94200  0.43900  0.26800  1.0000
  H   H5        1.0  0.05760  0.56100  0.73200  1.0000
  H   H6        1.0  0.44200  0.56100  0.73200  1.0000
  H   H7        1.0  0.55800  0.56100  0.76800  1.0000
  H   H8        1.0  0.94200  0.56100  0.76800  1.0000
  O   O1        1.0  0.68400  0.18200  0.01290  1.0000
  O   O2        1.0  0.81600  0.18200  0.01290  1.0000
  O   O3        1.0  0.56100  0.38500  0.06890  1.0000
  O   O4        1.0  0.93900  0.38500  0.06890  1.0000
  O   O5        1.0  0.75000  0.59300  0.09760  1.0000
  O   O6        1.0  0.58100  0.90900  0.15600  1.0000
  O   O7        1.0  0.91900  0.90900  0.15600  1.0000
  O   O8        1.0  0.08060  0.90900  0.34400  1.0000
  O   O9        1.0  0.41900  0.90900  0.34400  1.0000
  O   O10       1.0  0.25000  0.59300  0.40200  1.0000
  O   O11       1.0  0.06080  0.38500  0.43100  1.0000
  O   O12       1.0  0.43900  0.38500  0.43100  1.0000
  O   O13       1.0  0.18400  0.18200  0.48700  1.0000
  O   O14       1.0  0.31600  0.18200  0.48700  1.0000
  O   O15       1.0  0.68400  0.81800  0.51300  1.0000
  O   O16       1.0  0.81600  0.81800  0.51300  1.0000
  O   O17       1.0  0.56100  0.61500  0.56900  1.0000
  O   O18       1.0  0.93900  0.61500  0.56900  1.0000
  O   O19       1.0  0.75000  0.40700  0.59800  1.0000
  O   O20       1.0  0.58100  0.09130  0.65600  1.0000
  O   O21       1.0  0.91900  0.09130  0.65600  1.0000
  O   O22       1.0  0.08060  0.09130  0.84400  1.0000
  O   O23       1.0  0.41900  0.09130  0.84400  1.0000
  O   O24       1.0  0.25000  0.40700  0.90200  1.0000
  O   O25       1.0  0.06080  0.61500  0.93100  1.0000
  O   O26       1.0  0.43900  0.61500  0.93100  1.0000
  O   O27       1.0  0.18400  0.81800  0.98700  1.0000
  O   O28       1.0  0.31600  0.81800  0.98700  1.0000
  Si  Si1       1.0  0.10100  0.85400  0.01970  1.0000
  Si  Si2       1.0  0.39900  0.85400  0.01970  1.0000
  Si  Si3       1.0  0.25000  0.66000  0.06910  1.0000
  Si  Si4       1.0  0.75000  0.66000  0.43100  1.0000
  Si  Si5       1.0  0.60100  0.85400  0.48000  1.0000
  Si  Si6       1.0  0.89900  0.85400  0.48000  1.0000
  Si  Si7       1.0  0.10100  0.14600  0.52000  1.0000
  Si  Si8       1.0  0.39900  0.14600  0.52000  1.0000
  Si  Si9       1.0  0.25000  0.34000  0.56900  1.0000
  Si  Si10      1.0  0.75000  0.34000  0.93100  1.0000
  Si  Si11      1.0  0.60100  0.14600  0.98000  1.0000
  Si  Si12      1.0  0.89900  0.14600  0.98000  1.0000
