data_image0
_chemical_formula_structural       F6Fe2Sr
_chemical_formula_sum              "F6 Fe2 Sr1"
_cell_length_a       3.90496
_cell_length_b       5.17236
_cell_length_c       6.21308
_cell_angle_alpha    92.1158
_cell_angle_beta     90.0528
_cell_angle_gamma    111.986

_space_group_name_H-M_alt    "P 1"
_space_group_IT_number       1

loop_
  _space_group_symop_operation_xyz
  'x, y, z'

loop_
  _atom_site_type_symbol
  _atom_site_label
  _atom_site_symmetry_multiplicity
  _atom_site_fract_x
  _atom_site_fract_y
  _atom_site_fract_z
  _atom_site_occupancy
  F   F1        1.0  0.48000  0.82100  0.17600  1.0000
  F   F2        1.0  0.74200  0.34600  0.18600  1.0000
  F   F3        1.0  0.97300  0.80500  0.48500  1.0000
  F   F4        1.0  0.26000  0.38100  0.48600  1.0000
  F   F5        1.0  0.49000  0.84000  0.78500  1.0000
  F   F6        1.0  0.75200  0.36500  0.79500  1.0000
  Fe  Fe1       1.0  0.49400  0.84700  0.48000  1.0000
  Fe  Fe2       1.0  0.73900  0.33900  0.49200  1.0000
  Sr  Sr1       1.0  0.11600  0.09300  0.98600  1.0000
