data_image0
_chemical_formula_structural       CaCoF5
_chemical_formula_sum              "Ca1 Co1 F5"
_cell_length_a       3.88818
_cell_length_b       4.90514
_cell_length_c       5.24427
_cell_angle_alpha    67.3158
_cell_angle_beta     69.6759
_cell_angle_gamma    68.5915

_space_group_name_H-M_alt    "P 1"
_space_group_IT_number       1

loop_
  _space_group_symop_operation_xyz
  'x, y, z'

loop_
  _atom_site_type_symbol
  _atom_site_label
  _atom_site_symmetry_multiplicity
  _atom_site_fract_x
  _atom_site_fract_y
  _atom_site_fract_z
  _atom_site_occupancy
  Ca  Ca1       1.0  0.78600  0.16000  0.37400  1.0000
  Co  Co1       1.0  0.28600  0.66000  0.87400  1.0000
  F   F1        1.0  0.37800  0.23800  0.10300  1.0000
  F   F2        1.0  0.06890  0.77300  0.20200  1.0000
  F   F3        1.0  0.50400  0.54800  0.54600  1.0000
  F   F4        1.0  0.19400  0.08250  0.64500  1.0000
  F   F5        1.0  0.78600  0.66000  0.87400  1.0000
