data_image0
_chemical_formula_structural       Ge9H4O20
_chemical_formula_sum              "Ge9 H4 O20"
_cell_length_a       7.19018
_cell_length_b       7.19018
_cell_length_c       7.27789
_cell_angle_alpha    92.7541
_cell_angle_beta     92.7541
_cell_angle_gamma    64.8966

_space_group_name_H-M_alt    "P 1"
_space_group_IT_number       1

loop_
  _space_group_symop_operation_xyz
  'x, y, z'

loop_
  _atom_site_type_symbol
  _atom_site_label
  _atom_site_symmetry_multiplicity
  _atom_site_fract_x
  _atom_site_fract_y
  _atom_site_fract_z
  _atom_site_occupancy
  Ge  Ge1       1.0  0.60400  0.94400  0.03290  1.0000
  Ge  Ge2       1.0  0.13800  0.04900  0.25300  1.0000
  Ge  Ge3       1.0  0.53100  0.63500  0.30600  1.0000
  Ge  Ge4       1.0  0.32200  0.35200  0.32000  1.0000
  Ge  Ge5       1.0  0.78500  0.21500  0.50000  1.0000
  Ge  Ge6       1.0  0.64800  0.67800  0.68000  1.0000
  Ge  Ge7       1.0  0.36500  0.46900  0.69400  1.0000
  Ge  Ge8       1.0  0.95100  0.86200  0.74700  1.0000
  Ge  Ge9       1.0  0.05560  0.39600  0.96700  1.0000
  H   H1        1.0  0.87400  0.12600  0.00000  1.0000
  H   H2        1.0  0.25100  0.74900  0.00000  1.0000
  H   H3        1.0  0.78200  0.77700  0.32100  1.0000
  H   H4        1.0  0.22300  0.21800  0.67900  1.0000
  O   O1        1.0  0.99700  0.19500  0.04430  1.0000
  O   O2        1.0  0.39800  0.13000  0.14600  1.0000
  O   O3        1.0  0.29900  0.80300  0.15200  1.0000
  O   O4        1.0  0.12200  0.50900  0.15600  1.0000
  O   O5        1.0  0.70700  0.74400  0.21200  1.0000
  O   O6        1.0  0.52900  0.40800  0.21500  1.0000
  O   O7        1.0  0.90900  0.03300  0.31900  1.0000
  O   O8        1.0  0.18200  0.20900  0.42000  1.0000
  O   O9        1.0  0.77100  0.46800  0.47400  1.0000
  O   O10       1.0  0.21300  0.56500  0.49500  1.0000
  O   O11       1.0  0.43500  0.78700  0.50500  1.0000
  O   O12       1.0  0.53200  0.22900  0.52600  1.0000
  O   O13       1.0  0.79100  0.81800  0.58000  1.0000
  O   O14       1.0  0.96700  0.09150  0.68100  1.0000
  O   O15       1.0  0.59200  0.47100  0.78500  1.0000
  O   O16       1.0  0.25600  0.29300  0.78800  1.0000
  O   O17       1.0  0.49100  0.87800  0.84400  1.0000
  O   O18       1.0  0.19700  0.70100  0.84800  1.0000
  O   O19       1.0  0.87000  0.60200  0.85400  1.0000
  O   O20       1.0  0.80500  0.00252  0.95600  1.0000
