data_image0
_chemical_formula_structural       H8O11Zn4
_chemical_formula_sum              "H8 O11 Zn4"
_cell_length_a       10.5073
_cell_length_b       5.00542
_cell_length_c       4.55565
_cell_angle_alpha    109.283
_cell_angle_beta     90.6744
_cell_angle_gamma    118.476

_space_group_name_H-M_alt    "P 1"
_space_group_IT_number       1

loop_
  _space_group_symop_operation_xyz
  'x, y, z'

loop_
  _atom_site_type_symbol
  _atom_site_label
  _atom_site_symmetry_multiplicity
  _atom_site_fract_x
  _atom_site_fract_y
  _atom_site_fract_z
  _atom_site_occupancy
  H   H1        1.0  0.05590  0.74500  0.38900  1.0000
  H   H2        1.0  0.15500  0.45400  0.46400  1.0000
  H   H3        1.0  0.56600  0.33600  0.47200  1.0000
  H   H4        1.0  0.83700  0.78300  0.61900  1.0000
  H   H5        1.0  0.34100  0.52700  0.64800  1.0000
  H   H6        1.0  0.15300  0.18900  0.73400  1.0000
  H   H7        1.0  0.77200  0.37300  0.74300  1.0000
  H   H8        1.0  0.61400  0.44800  0.97400  1.0000
  O   O1        1.0  0.26000  0.84800  0.21100  1.0000
  O   O2        1.0  0.96500  0.58200  0.22700  1.0000
  O   O3        1.0  0.28900  0.62600  0.23000  1.0000
  O   O4        1.0  0.56600  0.25500  0.23800  1.0000
  O   O5        1.0  0.73100  0.95000  0.39800  1.0000
  O   O6        1.0  0.07540  0.33500  0.56600  1.0000
  O   O7        1.0  0.41300  0.74600  0.65700  1.0000
  O   O8        1.0  0.73900  0.13900  0.72800  1.0000
  O   O9        1.0  0.18900  0.05720  0.79600  1.0000
  O   O10       1.0  0.86400  0.75800  0.81200  1.0000
  O   O11       1.0  0.55000  0.46000  0.82000  1.0000
  Zn  Zn1       1.0  0.57800  0.88100  0.04300  1.0000
  Zn  Zn2       1.0  0.90600  0.13300  0.19600  1.0000
  Zn  Zn3       1.0  0.03420  0.67600  0.86200  1.0000
  Zn  Zn4       1.0  0.38000  0.11600  0.93200  1.0000
