data_image0
_chemical_formula_structural       Ga4H8O11
_chemical_formula_sum              "Ga4 H8 O11"
_cell_length_a       10.6383
_cell_length_b       5.05
_cell_length_c       4.68346
_cell_angle_alpha    97.9552
_cell_angle_beta     103.566
_cell_angle_gamma    123.615

_space_group_name_H-M_alt    "P 1"
_space_group_IT_number       1

loop_
  _space_group_symop_operation_xyz
  'x, y, z'

loop_
  _atom_site_type_symbol
  _atom_site_label
  _atom_site_symmetry_multiplicity
  _atom_site_fract_x
  _atom_site_fract_y
  _atom_site_fract_z
  _atom_site_occupancy
  Ga  Ga1       1.0  0.09350  0.89400  0.07080  1.0000
  Ga  Ga2       1.0  0.56200  0.82100  0.84900  1.0000
  Ga  Ga3       1.0  0.40400  0.10700  0.96000  1.0000
  Ga  Ga4       1.0  0.90400  0.16100  0.97600  1.0000
  H   H1        1.0  0.72000  0.65600  0.14400  1.0000
  H   H2        1.0  0.64800  0.22300  0.35500  1.0000
  H   H3        1.0  0.20300  0.45000  0.43500  1.0000
  H   H4        1.0  0.00693  0.57800  0.46000  1.0000
  H   H5        1.0  0.89200  0.76800  0.55300  1.0000
  H   H6        1.0  0.74300  0.33600  0.75200  1.0000
  H   H7        1.0  0.13300  0.47800  0.79400  1.0000
  H   H8        1.0  0.26300  0.32900  0.82100  1.0000
  O   O1        1.0  0.74000  0.87300  0.14000  1.0000
  O   O2        1.0  0.62200  0.25400  0.15100  1.0000
  O   O3        1.0  0.95900  0.57400  0.24700  1.0000
  O   O4        1.0  0.09840  0.24700  0.27000  1.0000
  O   O5        1.0  0.36100  0.19100  0.33700  1.0000
  O   O6        1.0  0.48700  0.35000  0.65500  1.0000
  O   O7        1.0  0.70400  0.09950  0.67000  1.0000
  O   O8        1.0  0.88500  0.77600  0.75800  1.0000
  O   O9        1.0  0.35000  0.68700  0.77200  1.0000
  O   O10       1.0  0.04080  0.47900  0.78900  1.0000
  O   O11       1.0  0.21700  0.08920  0.81000  1.0000
