data_image0
_chemical_formula_structural       HO6Zr2
_chemical_formula_sum              "H1 O6 Zr2"
_cell_length_a       5.97692
_cell_length_b       5.97692
_cell_length_c       3.50369
_cell_angle_alpha    100.066
_cell_angle_beta     100.066
_cell_angle_gamma    129.195

_space_group_name_H-M_alt    "P 1"
_space_group_IT_number       1

loop_
  _space_group_symop_operation_xyz
  'x, y, z'

loop_
  _atom_site_type_symbol
  _atom_site_label
  _atom_site_symmetry_multiplicity
  _atom_site_fract_x
  _atom_site_fract_y
  _atom_site_fract_z
  _atom_site_occupancy
  H   H1        1.0  0.50000  0.50000  0.00000  1.0000
  O   O1        1.0  0.26500  0.26500  0.02430  1.0000
  O   O2        1.0  0.89700  0.53600  0.33200  1.0000
  O   O3        1.0  0.53600  0.89700  0.33200  1.0000
  O   O4        1.0  0.46400  0.10300  0.66800  1.0000
  O   O5        1.0  0.10300  0.46400  0.66800  1.0000
  O   O6        1.0  0.73500  0.73500  0.97600  1.0000
  Zr  Zr1       1.0  0.85000  0.15000  0.00000  1.0000
  Zr  Zr2       1.0  0.15000  0.85000  0.00000  1.0000
