data_image0
_chemical_formula_structural       Fe4H8O11
_chemical_formula_sum              "Fe4 H8 O11"
_cell_length_a       10.2626
_cell_length_b       4.97095
_cell_length_c       4.88347
_cell_angle_alpha    107.243
_cell_angle_beta     100.276
_cell_angle_gamma    117.877

_space_group_name_H-M_alt    "P 1"
_space_group_IT_number       1

loop_
  _space_group_symop_operation_xyz
  'x, y, z'

loop_
  _atom_site_type_symbol
  _atom_site_label
  _atom_site_symmetry_multiplicity
  _atom_site_fract_x
  _atom_site_fract_y
  _atom_site_fract_z
  _atom_site_occupancy
  Fe  Fe1       1.0  0.08560  0.86200  0.03010  1.0000
  Fe  Fe2       1.0  0.42600  0.11200  0.03110  1.0000
  Fe  Fe3       1.0  0.89000  0.16100  0.90000  1.0000
  Fe  Fe4       1.0  0.58200  0.79200  0.94300  1.0000
  H   H1        1.0  0.80500  0.73800  0.12800  1.0000
  H   H2        1.0  0.22600  0.49800  0.37500  1.0000
  H   H3        1.0  0.07600  0.34200  0.47700  1.0000
  H   H4        1.0  0.92400  0.71700  0.49300  1.0000
  H   H5        1.0  0.38500  0.10700  0.49600  1.0000
  H   H6        1.0  0.63600  0.06470  0.55500  1.0000
  H   H7        1.0  0.28000  0.29700  0.77600  1.0000
  H   H8        1.0  0.15700  0.45500  0.88600  1.0000
  O   O1        1.0  0.79300  0.93200  0.15600  1.0000
  O   O2        1.0  0.93900  0.59600  0.17100  1.0000
  O   O3        1.0  0.60400  0.15800  0.24700  1.0000
  O   O4        1.0  0.30800  0.96200  0.27200  1.0000
  O   O5        1.0  0.11300  0.30400  0.28400  1.0000
  O   O6        1.0  0.66600  0.93800  0.64600  1.0000
  O   O7        1.0  0.91500  0.78700  0.70400  1.0000
  O   O8        1.0  0.38200  0.67700  0.75200  1.0000
  O   O9        1.0  0.06330  0.43300  0.76000  1.0000
  O   O10       1.0  0.52300  0.35300  0.82500  1.0000
  O   O11       1.0  0.25000  0.12700  0.86400  1.0000
