data_image0
_chemical_formula_structural       H6O11Sn4
_chemical_formula_sum              "H6 O11 Sn4"
_cell_length_a       11.0641
_cell_length_b       5.57216
_cell_length_c       5.03616
_cell_angle_alpha    103.487
_cell_angle_beta     99.1711
_cell_angle_gamma    122.728

_space_group_name_H-M_alt    "P 1"
_space_group_IT_number       1

loop_
  _space_group_symop_operation_xyz
  'x, y, z'

loop_
  _atom_site_type_symbol
  _atom_site_label
  _atom_site_symmetry_multiplicity
  _atom_site_fract_x
  _atom_site_fract_y
  _atom_site_fract_z
  _atom_site_occupancy
  H   H1        1.0  0.78800  0.75200  0.24600  1.0000
  H   H2        1.0  0.40000  0.17800  0.48300  1.0000
  H   H3        1.0  0.07100  0.72700  0.49100  1.0000
  H   H4        1.0  0.29500  0.50000  0.49200  1.0000
  H   H5        1.0  0.10100  0.25300  0.55600  1.0000
  H   H6        1.0  0.73600  0.00672  0.56100  1.0000
  O   O1        1.0  0.54500  0.00831  0.19200  1.0000
  O   O2        1.0  0.78200  0.92300  0.24900  1.0000
  O   O3        1.0  0.33200  0.12400  0.28400  1.0000
  O   O4        1.0  0.98000  0.58400  0.28600  1.0000
  O   O5        1.0  0.11900  0.23100  0.36400  1.0000
  O   O6        1.0  0.39900  0.70700  0.61200  1.0000
  O   O7        1.0  0.20100  0.97300  0.74600  1.0000
  O   O8        1.0  0.74100  0.05360  0.76800  1.0000
  O   O9        1.0  0.52100  0.34700  0.79900  1.0000
  O   O10       1.0  0.91000  0.79200  0.81600  1.0000
  O   O11       1.0  0.09270  0.46100  0.87400  1.0000
  Sn  Sn1       1.0  0.09160  0.83500  0.03900  1.0000
  Sn  Sn2       1.0  0.95000  0.18500  0.04950  1.0000
  Sn  Sn3       1.0  0.57900  0.76400  0.91000  1.0000
  Sn  Sn4       1.0  0.38800  0.00801  0.93000  1.0000
