data_image0
_chemical_formula_structural       H6O11V4
_chemical_formula_sum              "H6 O11 V4"
_cell_length_a       10.1412
_cell_length_b       5.22253
_cell_length_c       4.87355
_cell_angle_alpha    107.131
_cell_angle_beta     103.117
_cell_angle_gamma    117.992

_space_group_name_H-M_alt    "P 1"
_space_group_IT_number       1

loop_
  _space_group_symop_operation_xyz
  'x, y, z'

loop_
  _atom_site_type_symbol
  _atom_site_label
  _atom_site_symmetry_multiplicity
  _atom_site_fract_x
  _atom_site_fract_y
  _atom_site_fract_z
  _atom_site_occupancy
  H   H1        1.0  0.72000  0.49000  0.45300  1.0000
  H   H2        1.0  0.64100  0.94500  0.55100  1.0000
  H   H3        1.0  0.28900  0.61300  0.55600  1.0000
  H   H4        1.0  0.53400  0.31800  0.56800  1.0000
  H   H5        1.0  0.94600  0.79200  0.59200  1.0000
  H   H6        1.0  0.07870  0.40200  0.69900  1.0000
  O   O1        1.0  0.50800  0.69100  0.22000  1.0000
  O   O2        1.0  0.80400  0.99600  0.22400  1.0000
  O   O3        1.0  0.61200  0.28600  0.27800  1.0000
  O   O4        1.0  0.99000  0.65500  0.31600  1.0000
  O   O5        1.0  0.12400  0.28200  0.36400  1.0000
  O   O6        1.0  0.48200  0.40500  0.68200  1.0000
  O   O7        1.0  0.39800  0.83700  0.71900  1.0000
  O   O8        1.0  0.90500  0.80600  0.76500  1.0000
  O   O9        1.0  0.71000  0.10500  0.78800  1.0000
  O   O10       1.0  0.05820  0.46900  0.88800  1.0000
  O   O11       1.0  0.23800  0.07300  0.96600  1.0000
  V   V1        1.0  0.92500  0.21500  0.06220  1.0000
  V   V2        1.0  0.07720  0.88600  0.12400  1.0000
  V   V3        1.0  0.42900  0.24300  0.97700  1.0000
  V   V4        1.0  0.58500  0.88100  0.99300  1.0000
