data_image0
_chemical_formula_structural       B14H6O24
_chemical_formula_sum              "B14 H6 O24"
_cell_length_a       6.31701
_cell_length_b       7.57903
_cell_length_c       8.0175
_cell_angle_alpha    92.7251
_cell_angle_beta     109.379
_cell_angle_gamma    95.7018

_space_group_name_H-M_alt    "P 1"
_space_group_IT_number       1

loop_
  _space_group_symop_operation_xyz
  'x, y, z'

loop_
  _atom_site_type_symbol
  _atom_site_label
  _atom_site_symmetry_multiplicity
  _atom_site_fract_x
  _atom_site_fract_y
  _atom_site_fract_z
  _atom_site_occupancy
  B   B1        1.0  0.27600  0.12500  0.00971  1.0000
  B   B2        1.0  0.51000  0.71300  0.14600  1.0000
  B   B3        1.0  0.08670  0.00852  0.22100  1.0000
  B   B4        1.0  0.23900  0.53000  0.23200  1.0000
  B   B5        1.0  0.60100  0.43500  0.28200  1.0000
  B   B6        1.0  0.96600  0.31600  0.33600  1.0000
  B   B7        1.0  0.76700  0.86200  0.47500  1.0000
  B   B8        1.0  0.23300  0.13800  0.52500  1.0000
  B   B9        1.0  0.03440  0.68400  0.66400  1.0000
  B   B10       1.0  0.39900  0.56500  0.71800  1.0000
  B   B11       1.0  0.76100  0.47000  0.76800  1.0000
  B   B12       1.0  0.91300  0.99100  0.77900  1.0000
  B   B13       1.0  0.49000  0.28700  0.85400  1.0000
  B   B14       1.0  0.72400  0.87500  0.99000  1.0000
  H   H1        1.0  0.87900  0.20500  0.06950  1.0000
  H   H2        1.0  0.89400  0.56700  0.21800  1.0000
  H   H3        1.0  0.48900  0.96000  0.27400  1.0000
  H   H4        1.0  0.51100  0.03970  0.72600  1.0000
  H   H5        1.0  0.10600  0.43300  0.78200  1.0000
  H   H6        1.0  0.12100  0.79500  0.93000  1.0000
  O   O1        1.0  0.47900  0.20200  0.00554  1.0000
  O   O2        1.0  0.92100  0.86200  0.12600  1.0000
  O   O3        1.0  0.27400  0.65800  0.12900  1.0000
  O   O4        1.0  0.28000  0.03980  0.15800  1.0000
  O   O5        1.0  0.64800  0.57000  0.18400  1.0000
  O   O6        1.0  0.95900  0.17800  0.19200  1.0000
  O   O7        1.0  0.03300  0.49500  0.26100  1.0000
  O   O8        1.0  0.59600  0.86200  0.30800  1.0000
  O   O9        1.0  0.39500  0.42000  0.30900  1.0000
  O   O10       1.0  0.75300  0.32400  0.35500  1.0000
  O   O11       1.0  0.18100  0.99200  0.40800  1.0000
  O   O12       1.0  0.13600  0.28900  0.49500  1.0000
  O   O13       1.0  0.86400  0.71100  0.50500  1.0000
  O   O14       1.0  0.81900  0.00770  0.59200  1.0000
  O   O15       1.0  0.24700  0.67600  0.64500  1.0000
  O   O16       1.0  0.60500  0.58000  0.69100  1.0000
  O   O17       1.0  0.40400  0.13800  0.69200  1.0000
  O   O18       1.0  0.96700  0.50500  0.73900  1.0000
  O   O19       1.0  0.04080  0.82200  0.80800  1.0000
  O   O20       1.0  0.35200  0.43000  0.81600  1.0000
  O   O21       1.0  0.72000  0.96000  0.84200  1.0000
  O   O22       1.0  0.72600  0.34200  0.87100  1.0000
  O   O23       1.0  0.07890  0.13800  0.87400  1.0000
  O   O24       1.0  0.52100  0.79800  0.99400  1.0000
