data_image0
_chemical_formula_structural       H12O14Zr4
_chemical_formula_sum              "H12 O14 Zr4"
_cell_length_a       5.52579
_cell_length_b       5.82684
_cell_length_c       10.1114
_cell_angle_alpha    93.3403
_cell_angle_beta     90
_cell_angle_gamma    118.305

_space_group_name_H-M_alt    "P 1"
_space_group_IT_number       1

loop_
  _space_group_symop_operation_xyz
  'x, y, z'

loop_
  _atom_site_type_symbol
  _atom_site_label
  _atom_site_symmetry_multiplicity
  _atom_site_fract_x
  _atom_site_fract_y
  _atom_site_fract_z
  _atom_site_occupancy
  H   H1        1.0  0.31900  0.25500  0.00242  1.0000
  H   H2        1.0  0.85600  0.11100  0.07220  1.0000
  H   H3        1.0  0.71500  0.65700  0.16800  1.0000
  H   H4        1.0  0.05780  0.34300  0.33200  1.0000
  H   H5        1.0  0.74500  0.88900  0.42800  1.0000
  H   H6        1.0  0.06370  0.74500  0.49800  1.0000
  H   H7        1.0  0.93600  0.25500  0.50200  1.0000
  H   H8        1.0  0.25500  0.11100  0.57200  1.0000
  H   H9        1.0  0.94200  0.65700  0.66800  1.0000
  H   H10       1.0  0.28500  0.34300  0.83200  1.0000
  H   H11       1.0  0.14400  0.88900  0.92800  1.0000
  H   H12       1.0  0.68100  0.74500  0.99800  1.0000
  O   O1        1.0  0.98400  0.27600  0.03210  1.0000
  O   O2        1.0  0.58600  0.78500  0.07030  1.0000
  O   O3        1.0  0.78500  0.55000  0.21300  1.0000
  O   O4        1.0  0.31300  0.00000  0.25000  1.0000
  O   O5        1.0  0.23600  0.45000  0.28700  1.0000
  O   O6        1.0  0.80100  0.21500  0.43000  1.0000
  O   O7        1.0  0.70900  0.72400  0.46800  1.0000
  O   O8        1.0  0.29100  0.27600  0.53200  1.0000
  O   O9        1.0  0.19900  0.78500  0.57000  1.0000
  O   O10       1.0  0.76400  0.55000  0.71300  1.0000
  O   O11       1.0  0.68700  0.00000  0.75000  1.0000
  O   O12       1.0  0.21500  0.45000  0.78700  1.0000
  O   O13       1.0  0.41400  0.21500  0.93000  1.0000
  O   O14       1.0  0.01570  0.72400  0.96800  1.0000
  Zr  Zr1       1.0  0.19900  0.67300  0.14200  1.0000
  Zr  Zr2       1.0  0.52600  0.32700  0.35800  1.0000
  Zr  Zr3       1.0  0.47400  0.67300  0.64200  1.0000
  Zr  Zr4       1.0  0.80100  0.32700  0.85800  1.0000
