data_image0
_chemical_formula_structural       Cu4H8O11
_chemical_formula_sum              "Cu4 H8 O11"
_cell_length_a       10.069
_cell_length_b       4.88423
_cell_length_c       4.59285
_cell_angle_alpha    100.801
_cell_angle_beta     96.4664
_cell_angle_gamma    121.648

_space_group_name_H-M_alt    "P 1"
_space_group_IT_number       1

loop_
  _space_group_symop_operation_xyz
  'x, y, z'

loop_
  _atom_site_type_symbol
  _atom_site_label
  _atom_site_symmetry_multiplicity
  _atom_site_fract_x
  _atom_site_fract_y
  _atom_site_fract_z
  _atom_site_occupancy
  Cu  Cu1       1.0  0.10500  0.89700  0.06280  1.0000
  Cu  Cu2       1.0  0.43600  0.18700  0.08410  1.0000
  Cu  Cu3       1.0  0.58600  0.83200  0.97900  1.0000
  Cu  Cu4       1.0  0.91800  0.21700  0.98600  1.0000
  H   H1        1.0  0.17500  0.45100  0.33600  1.0000
  H   H2        1.0  0.39200  0.92800  0.47500  1.0000
  H   H3        1.0  0.95000  0.95100  0.51100  1.0000
  H   H4        1.0  0.77300  0.12600  0.51100  1.0000
  H   H5        1.0  0.80300  0.62200  0.55200  1.0000
  H   H6        1.0  0.35400  0.45800  0.61900  1.0000
  H   H7        1.0  0.18200  0.52900  0.87200  1.0000
  H   H8        1.0  0.65400  0.43500  0.87500  1.0000
  O   O1        1.0  0.77800  0.96200  0.19400  1.0000
  O   O2        1.0  0.96100  0.60800  0.22900  1.0000
  O   O3        1.0  0.61200  0.19900  0.23900  1.0000
  O   O4        1.0  0.07870  0.21800  0.27200  1.0000
  O   O5        1.0  0.32100  0.94600  0.32000  1.0000
  O   O6        1.0  0.90300  0.84500  0.67000  1.0000
  O   O7        1.0  0.40000  0.69800  0.70800  1.0000
  O   O8        1.0  0.75400  0.18800  0.72100  1.0000
  O   O9        1.0  0.08060  0.51600  0.80800  1.0000
  O   O10       1.0  0.55100  0.41800  0.82000  1.0000
  O   O11       1.0  0.26400  0.19000  0.92500  1.0000
