data_image0
_chemical_formula_structural       Ge4H8O11
_chemical_formula_sum              "Ge4 H8 O11"
_cell_length_a       10.1545
_cell_length_b       4.78444
_cell_length_c       4.95016
_cell_angle_alpha    96.5951
_cell_angle_beta     107.977
_cell_angle_gamma    120.231

_space_group_name_H-M_alt    "P 1"
_space_group_IT_number       1

loop_
  _space_group_symop_operation_xyz
  'x, y, z'

loop_
  _atom_site_type_symbol
  _atom_site_label
  _atom_site_symmetry_multiplicity
  _atom_site_fract_x
  _atom_site_fract_y
  _atom_site_fract_z
  _atom_site_occupancy
  Ge  Ge1       1.0  0.12400  0.91400  0.03790  1.0000
  Ge  Ge2       1.0  0.95500  0.23100  0.06130  1.0000
  Ge  Ge3       1.0  0.60800  0.80100  0.98200  1.0000
  Ge  Ge4       1.0  0.43700  0.18400  0.99300  1.0000
  H   H1        1.0  0.46900  0.30100  0.47100  1.0000
  H   H2        1.0  0.66000  0.14000  0.47200  1.0000
  H   H3        1.0  0.31400  0.63300  0.54400  1.0000
  H   H4        1.0  0.13300  0.89700  0.54800  1.0000
  H   H5        1.0  0.89200  0.87800  0.55400  1.0000
  H   H6        1.0  0.69800  0.61400  0.64200  1.0000
  H   H7        1.0  0.12500  0.44200  0.77600  1.0000
  H   H8        1.0  0.77000  0.40600  0.97000  1.0000
  O   O1        1.0  0.82000  0.91000  0.20300  1.0000
  O   O2        1.0  0.34300  0.02960  0.25100  1.0000
  O   O3        1.0  0.15800  0.29900  0.25300  1.0000
  O   O4        1.0  0.62400  0.13200  0.25600  1.0000
  O   O5        1.0  0.02690  0.66500  0.26100  1.0000
  O   O6        1.0  0.58300  0.56700  0.60600  1.0000
  O   O7        1.0  0.90000  0.83700  0.75300  1.0000
  O   O8        1.0  0.40500  0.79900  0.75600  1.0000
  O   O9        1.0  0.21500  0.09080  0.76600  1.0000
  O   O10       1.0  0.03530  0.46700  0.78200  1.0000
  O   O11       1.0  0.73500  0.18700  0.83700  1.0000
