data_image0
_chemical_formula_structural       H8O16V6
_chemical_formula_sum              "H8 O16 V6"
_cell_length_a       5.97069
_cell_length_b       3.82786
_cell_length_c       12.2609
_cell_angle_alpha    90
_cell_angle_beta     110.495
_cell_angle_gamma    90

_space_group_name_H-M_alt    "P 1"
_space_group_IT_number       1

loop_
  _space_group_symop_operation_xyz
  'x, y, z'

loop_
  _atom_site_type_symbol
  _atom_site_label
  _atom_site_symmetry_multiplicity
  _atom_site_fract_x
  _atom_site_fract_y
  _atom_site_fract_z
  _atom_site_occupancy
  H   H1        1.0  0.49900  0.75000  0.03090  1.0000
  H   H2        1.0  0.54000  0.25000  0.28200  1.0000
  H   H3        1.0  0.42500  0.75000  0.33600  1.0000
  H   H4        1.0  0.44500  0.25000  0.43400  1.0000
  H   H5        1.0  0.55500  0.75000  0.56600  1.0000
  H   H6        1.0  0.57500  0.25000  0.66400  1.0000
  H   H7        1.0  0.46000  0.75000  0.71800  1.0000
  H   H8        1.0  0.50100  0.25000  0.96900  1.0000
  O   O1        1.0  0.66900  0.75000  0.04300  1.0000
  O   O2        1.0  0.11000  0.75000  0.07180  1.0000
  O   O3        1.0  0.99100  0.25000  0.17400  1.0000
  O   O4        1.0  0.48000  0.25000  0.19300  1.0000
  O   O5        1.0  0.82400  0.75000  0.30500  1.0000
  O   O6        1.0  0.25600  0.75000  0.32900  1.0000
  O   O7        1.0  0.59700  0.25000  0.42000  1.0000
  O   O8        1.0  0.08620  0.25000  0.45300  1.0000
  O   O9        1.0  0.91400  0.75000  0.54700  1.0000
  O   O10       1.0  0.40300  0.75000  0.58000  1.0000
  O   O11       1.0  0.74400  0.25000  0.67100  1.0000
  O   O12       1.0  0.17600  0.25000  0.69500  1.0000
  O   O13       1.0  0.52000  0.75000  0.80700  1.0000
  O   O14       1.0  0.00925  0.75000  0.82600  1.0000
  O   O15       1.0  0.89000  0.25000  0.92800  1.0000
  O   O16       1.0  0.33100  0.25000  0.95700  1.0000
  V   V1        1.0  0.19200  0.25000  0.08750  1.0000
  V   V2        1.0  0.93000  0.75000  0.19200  1.0000
  V   V3        1.0  0.11800  0.75000  0.44600  1.0000
  V   V4        1.0  0.88200  0.25000  0.55400  1.0000
  V   V5        1.0  0.07020  0.25000  0.80800  1.0000
  V   V6        1.0  0.80800  0.75000  0.91300  1.0000
