data_image0
_chemical_formula_structural       Ge10H8O24
_chemical_formula_sum              "Ge10 H8 O24"
_cell_length_a       4.89609
_cell_length_b       9.26083
_cell_length_c       9.61171
_cell_angle_alpha    73.0569
_cell_angle_beta     79.9366
_cell_angle_gamma    79.9604

_space_group_name_H-M_alt    "P 1"
_space_group_IT_number       1

loop_
  _space_group_symop_operation_xyz
  'x, y, z'

loop_
  _atom_site_type_symbol
  _atom_site_label
  _atom_site_symmetry_multiplicity
  _atom_site_fract_x
  _atom_site_fract_y
  _atom_site_fract_z
  _atom_site_occupancy
  Ge  Ge1       1.0  0.81200  0.74400  0.07220  1.0000
  Ge  Ge2       1.0  0.88000  0.39700  0.14100  1.0000
  Ge  Ge3       1.0  0.28000  0.10500  0.27100  1.0000
  Ge  Ge4       1.0  0.82400  0.90600  0.32300  1.0000
  Ge  Ge5       1.0  0.58400  0.54800  0.34000  1.0000
  Ge  Ge6       1.0  0.41600  0.45200  0.66000  1.0000
  Ge  Ge7       1.0  0.17600  0.09360  0.67700  1.0000
  Ge  Ge8       1.0  0.72000  0.89500  0.72900  1.0000
  Ge  Ge9       1.0  0.12000  0.60300  0.85900  1.0000
  Ge  Ge10      1.0  0.18800  0.25600  0.92800  1.0000
  H   H1        1.0  0.60100  0.16000  0.06130  1.0000
  H   H2        1.0  0.31800  0.68800  0.14200  1.0000
  H   H3        1.0  0.34200  0.27800  0.45400  1.0000
  H   H4        1.0  0.09190  0.63100  0.46900  1.0000
  H   H5        1.0  0.90800  0.36900  0.53100  1.0000
  H   H6        1.0  0.65800  0.72200  0.54600  1.0000
  H   H7        1.0  0.68200  0.31200  0.85800  1.0000
  H   H8        1.0  0.39900  0.84000  0.93900  1.0000
  O   O1        1.0  0.23100  0.41900  0.00849  1.0000
  O   O2        1.0  0.84500  0.25400  0.04480  1.0000
  O   O3        1.0  0.40700  0.12100  0.07760  1.0000
  O   O4        1.0  0.85900  0.89600  0.14400  1.0000
  O   O5        1.0  0.44300  0.72100  0.19600  1.0000
  O   O6        1.0  0.93100  0.57700  0.23400  1.0000
  O   O7        1.0  0.54200  0.40200  0.26400  1.0000
  O   O8        1.0  0.05770  0.26300  0.29600  1.0000
  O   O9        1.0  0.59300  0.06830  0.34900  1.0000
  O   O10       1.0  0.14600  0.93200  0.36100  1.0000
  O   O11       1.0  0.75400  0.72400  0.44500  1.0000
  O   O12       1.0  0.28200  0.57200  0.48100  1.0000
  O   O13       1.0  0.71800  0.42800  0.51900  1.0000
  O   O14       1.0  0.24600  0.27600  0.55500  1.0000
  O   O15       1.0  0.85400  0.06760  0.63900  1.0000
  O   O16       1.0  0.40700  0.93200  0.65100  1.0000
  O   O17       1.0  0.94200  0.73700  0.70400  1.0000
  O   O18       1.0  0.45800  0.59800  0.73600  1.0000
  O   O19       1.0  0.06910  0.42300  0.76600  1.0000
  O   O20       1.0  0.55700  0.27900  0.80400  1.0000
  O   O21       1.0  0.14100  0.10400  0.85600  1.0000
  O   O22       1.0  0.59300  0.87900  0.92200  1.0000
  O   O23       1.0  0.15500  0.74600  0.95500  1.0000
  O   O24       1.0  0.76900  0.58100  0.99100  1.0000
