data_image0
_chemical_formula_structural       H8O11Sn4
_chemical_formula_sum              "H8 O11 Sn4"
_cell_length_a       10.703
_cell_length_b       5.15402
_cell_length_c       5.03631
_cell_angle_alpha    94.0166
_cell_angle_beta     109.81
_cell_angle_gamma    116.129

_space_group_name_H-M_alt    "P 1"
_space_group_IT_number       1

loop_
  _space_group_symop_operation_xyz
  'x, y, z'

loop_
  _atom_site_type_symbol
  _atom_site_label
  _atom_site_symmetry_multiplicity
  _atom_site_fract_x
  _atom_site_fract_y
  _atom_site_fract_z
  _atom_site_occupancy
  H   H1        1.0  0.89800  0.62900  0.20600  1.0000
  H   H2        1.0  0.83300  0.85200  0.39800  1.0000
  H   H3        1.0  0.65700  0.09390  0.46700  1.0000
  H   H4        1.0  0.35700  0.88000  0.52000  1.0000
  H   H5        1.0  0.16900  0.14600  0.56500  1.0000
  H   H6        1.0  0.56400  0.30800  0.65400  1.0000
  H   H7        1.0  0.78700  0.62400  0.68300  1.0000
  H   H8        1.0  0.11400  0.39100  0.78300  1.0000
  O   O1        1.0  0.79600  0.82600  0.17900  1.0000
  O   O2        1.0  0.31100  0.91500  0.22200  1.0000
  O   O3        1.0  0.98600  0.59500  0.23200  1.0000
  O   O4        1.0  0.62200  0.11100  0.25200  1.0000
  O   O5        1.0  0.11500  0.19000  0.25200  1.0000
  O   O6        1.0  0.56700  0.47800  0.57300  1.0000
  O   O7        1.0  0.88400  0.80200  0.71100  1.0000
  O   O8        1.0  0.39900  0.87800  0.73900  1.0000
  O   O9        1.0  0.02490  0.42200  0.75800  1.0000
  O   O10       1.0  0.70600  0.09930  0.77500  1.0000
  O   O11       1.0  0.20900  0.15800  0.78600  1.0000
  Sn  Sn1       1.0  0.91700  0.17200  0.01780  1.0000
  Sn  Sn2       1.0  0.44900  0.23100  0.08670  1.0000
  Sn  Sn3       1.0  0.56900  0.76600  0.91400  1.0000
  Sn  Sn4       1.0  0.10300  0.85400  0.98900  1.0000
