data_image0
_chemical_formula_structural       Cu4H4O4
_chemical_formula_sum              "Cu4 H4 O4"
_cell_length_a       2.78806
_cell_length_b       6.42432
_cell_length_c       6.42432
_cell_angle_alpha    92.6988
_cell_angle_beta     77.4675
_cell_angle_gamma    102.532

_space_group_name_H-M_alt    "P 1"
_space_group_IT_number       1

loop_
  _space_group_symop_operation_xyz
  'x, y, z'

loop_
  _atom_site_type_symbol
  _atom_site_label
  _atom_site_symmetry_multiplicity
  _atom_site_fract_x
  _atom_site_fract_y
  _atom_site_fract_z
  _atom_site_occupancy
  Cu  Cu1       1.0  0.90500  0.50000  0.19000  1.0000
  Cu  Cu2       1.0  0.90500  0.81000  0.50000  1.0000
  Cu  Cu3       1.0  0.59500  0.19000  0.50000  1.0000
  Cu  Cu4       1.0  0.59500  0.50000  0.81000  1.0000
  H   H1        1.0  0.47100  0.83700  0.16300  1.0000
  H   H2        1.0  0.36600  0.16300  0.16300  1.0000
  H   H3        1.0  0.36600  0.83700  0.83700  1.0000
  H   H4        1.0  0.79600  0.16300  0.83700  1.0000
  O   O1        1.0  0.10200  0.79300  0.20700  1.0000
  O   O2        1.0  0.69200  0.20700  0.20700  1.0000
  O   O3        1.0  0.69200  0.79300  0.79300  1.0000
  O   O4        1.0  0.51500  0.20700  0.79300  1.0000
