data_image0
_chemical_formula_structural       H8O11Zr4
_chemical_formula_sum              "H8 O11 Zr4"
_cell_length_a       12.08
_cell_length_b       5.30937
_cell_length_c       4.2115
_cell_angle_alpha    102.755
_cell_angle_beta     106.18
_cell_angle_gamma    117.26

_space_group_name_H-M_alt    "P 1"
_space_group_IT_number       1

loop_
  _space_group_symop_operation_xyz
  'x, y, z'

loop_
  _atom_site_type_symbol
  _atom_site_label
  _atom_site_symmetry_multiplicity
  _atom_site_fract_x
  _atom_site_fract_y
  _atom_site_fract_z
  _atom_site_occupancy
  H   H1        1.0  0.78000  0.59500  0.00983  1.0000
  H   H2        1.0  0.30400  0.46700  0.02530  1.0000
  H   H3        1.0  0.55600  0.65500  0.32000  1.0000
  H   H4        1.0  0.23800  0.48400  0.39000  1.0000
  H   H5        1.0  0.72400  0.40000  0.46900  1.0000
  H   H6        1.0  0.86600  0.80700  0.50300  1.0000
  H   H7        1.0  0.19300  0.24200  0.55800  1.0000
  H   H8        1.0  0.57300  0.29600  0.69800  1.0000
  O   O1        1.0  0.26900  0.79600  0.07630  1.0000
  O   O2        1.0  0.77500  0.77300  0.12400  1.0000
  O   O3        1.0  0.62800  0.21900  0.32100  1.0000
  O   O4        1.0  0.15600  0.27600  0.32900  1.0000
  O   O5        1.0  0.05890  0.70600  0.33800  1.0000
  O   O6        1.0  0.97900  0.33300  0.66800  1.0000
  O   O7        1.0  0.49800  0.32900  0.67100  1.0000
  O   O8        1.0  0.42300  0.78300  0.71300  1.0000
  O   O9        1.0  0.90900  0.80600  0.74400  1.0000
  O   O10       1.0  0.27700  0.25300  0.89900  1.0000
  O   O11       1.0  0.76200  0.20300  0.92100  1.0000
  Zr  Zr1       1.0  0.42700  0.13500  0.05610  1.0000
  Zr  Zr2       1.0  0.93600  0.21500  0.10800  1.0000
  Zr  Zr3       1.0  0.09790  0.80900  0.89300  1.0000
  Zr  Zr4       1.0  0.60500  0.83800  0.92700  1.0000
