data_image0
_chemical_formula_structural       Ge2H16O12
_chemical_formula_sum              "Ge2 H16 O12"
_cell_length_a       5.06075
_cell_length_b       4.87642
_cell_length_c       9.64626
_cell_angle_alpha    89.9936
_cell_angle_beta     89.9999
_cell_angle_gamma    119.857

_space_group_name_H-M_alt    "P 1"
_space_group_IT_number       1

loop_
  _space_group_symop_operation_xyz
  'x, y, z'

loop_
  _atom_site_type_symbol
  _atom_site_label
  _atom_site_symmetry_multiplicity
  _atom_site_fract_x
  _atom_site_fract_y
  _atom_site_fract_z
  _atom_site_occupancy
  Ge  Ge1       1.0  0.12300  0.13900  0.00527  1.0000
  Ge  Ge2       1.0  0.87700  0.86100  0.50500  1.0000
  H   H1        1.0  0.52500  0.99000  0.15100  1.0000
  H   H2        1.0  0.10200  0.47700  0.17200  1.0000
  H   H3        1.0  0.54800  0.32700  0.18400  1.0000
  H   H4        1.0  0.10600  0.96000  0.24300  1.0000
  H   H5        1.0  0.59100  0.70000  0.30300  1.0000
  H   H6        1.0  0.76900  0.20500  0.33100  1.0000
  H   H7        1.0  0.25700  0.75300  0.42000  1.0000
  H   H8        1.0  0.79100  0.31400  0.49400  1.0000
  H   H9        1.0  0.47500  0.01040  0.65100  1.0000
  H   H10       1.0  0.89800  0.52300  0.67200  1.0000
  H   H11       1.0  0.45100  0.67300  0.68400  1.0000
  H   H12       1.0  0.89400  0.03960  0.74300  1.0000
  H   H13       1.0  0.40900  0.30000  0.80300  1.0000
  H   H14       1.0  0.23100  0.79500  0.83100  1.0000
  H   H15       1.0  0.74300  0.24700  0.92000  1.0000
  H   H16       1.0  0.20900  0.68500  0.99400  1.0000
  O   O1        1.0  0.27800  0.51500  0.11500  1.0000
  O   O2        1.0  0.98800  0.88600  0.15500  1.0000
  O   O3        1.0  0.65800  0.20800  0.18200  1.0000
  O   O4        1.0  0.54000  0.62500  0.39800  1.0000
  O   O5        1.0  0.19900  0.91900  0.40900  1.0000
  O   O6        1.0  0.88500  0.23800  0.42100  1.0000
  O   O7        1.0  0.72200  0.48400  0.61500  1.0000
  O   O8        1.0  0.01220  0.11400  0.65500  1.0000
  O   O9        1.0  0.34200  0.79200  0.68200  1.0000
  O   O10       1.0  0.46100  0.37500  0.89800  1.0000
  O   O11       1.0  0.80100  0.08110  0.90900  1.0000
  O   O12       1.0  0.11500  0.76200  0.92100  1.0000
