data_image0
_chemical_formula_structural       AgCrTe2
_chemical_formula_sum              "Ag1 Cr1 Te2"
_cell_length_a       4.09432
_cell_length_b       4.09432
_cell_length_c       7.63907
_cell_angle_alpha    90
_cell_angle_beta     105.544
_cell_angle_gamma    120

_space_group_name_H-M_alt    "P 1"
_space_group_IT_number       1

loop_
  _space_group_symop_operation_xyz
  'x, y, z'

loop_
  _atom_site_type_symbol
  _atom_site_label
  _atom_site_symmetry_multiplicity
  _atom_site_fract_x
  _atom_site_fract_y
  _atom_site_fract_z
  _atom_site_occupancy
  Ag  Ag1       1.0  0.28800  0.14400  0.43200  1.0000
  Cr  Cr1       1.0  0.99700  0.99800  0.99500  1.0000
  Te  Te1       1.0  0.46700  0.73300  0.20000  1.0000
  Te  Te2       1.0  0.53600  0.26800  0.80400  1.0000
