data_image0
_chemical_formula_structural       Fe4H6O11
_chemical_formula_sum              "Fe4 H6 O11"
_cell_length_a       9.84933
_cell_length_b       4.89998
_cell_length_c       4.73576
_cell_angle_alpha    93.6043
_cell_angle_beta     106.691
_cell_angle_gamma    116.776

_space_group_name_H-M_alt    "P 1"
_space_group_IT_number       1

loop_
  _space_group_symop_operation_xyz
  'x, y, z'

loop_
  _atom_site_type_symbol
  _atom_site_label
  _atom_site_symmetry_multiplicity
  _atom_site_fract_x
  _atom_site_fract_y
  _atom_site_fract_z
  _atom_site_occupancy
  Fe  Fe1       1.0  0.89500  0.16100  0.01550  1.0000
  Fe  Fe2       1.0  0.56400  0.78500  0.94300  1.0000
  Fe  Fe3       1.0  0.37400  0.05770  0.97300  1.0000
  Fe  Fe4       1.0  0.06460  0.80600  0.98600  1.0000
  H   H1        1.0  0.79100  0.64900  0.16800  1.0000
  H   H2        1.0  0.12200  0.11700  0.46100  1.0000
  H   H3        1.0  0.30600  0.71500  0.49500  1.0000
  H   H4        1.0  0.83000  0.82000  0.53800  1.0000
  H   H5        1.0  0.58200  0.30700  0.75000  1.0000
  H   H6        1.0  0.12000  0.43900  0.76400  1.0000
  O   O1        1.0  0.95700  0.55100  0.21100  1.0000
  O   O2        1.0  0.26100  0.86400  0.21700  1.0000
  O   O3        1.0  0.54600  0.05560  0.22100  1.0000
  O   O4        1.0  0.76900  0.81700  0.23300  1.0000
  O   O5        1.0  0.09410  0.15700  0.24600  1.0000
  O   O6        1.0  0.33700  0.68900  0.71000  1.0000
  O   O7        1.0  0.01550  0.43000  0.75100  1.0000
  O   O8        1.0  0.86800  0.80100  0.76600  1.0000
  O   O9        1.0  0.49500  0.35000  0.77000  1.0000
  O   O10       1.0  0.18200  0.06680  0.78000  1.0000
  O   O11       1.0  0.69800  0.09580  0.78300  1.0000
