data_image0
_chemical_formula_structural       H8O11V4
_chemical_formula_sum              "H8 O11 V4"
_cell_length_a       10.3645
_cell_length_b       5.19291
_cell_length_c       4.73919
_cell_angle_alpha    95.2233
_cell_angle_beta     98.6611
_cell_angle_gamma    121.864

_space_group_name_H-M_alt    "P 1"
_space_group_IT_number       1

loop_
  _space_group_symop_operation_xyz
  'x, y, z'

loop_
  _atom_site_type_symbol
  _atom_site_label
  _atom_site_symmetry_multiplicity
  _atom_site_fract_x
  _atom_site_fract_y
  _atom_site_fract_z
  _atom_site_occupancy
  H   H1        1.0  0.76700  0.70600  0.18200  1.0000
  H   H2        1.0  0.20100  0.44200  0.31300  1.0000
  H   H3        1.0  0.65100  0.17400  0.43200  1.0000
  H   H4        1.0  0.99000  0.56600  0.43300  1.0000
  H   H5        1.0  0.89300  0.84900  0.55600  1.0000
  H   H6        1.0  0.24000  0.06560  0.56900  1.0000
  H   H7        1.0  0.14300  0.49800  0.74500  1.0000
  H   H8        1.0  0.63000  0.44600  0.79900  1.0000
  O   O1        1.0  0.76600  0.89400  0.21100  1.0000
  O   O2        1.0  0.60300  0.16900  0.22800  1.0000
  O   O3        1.0  0.95000  0.57400  0.23000  1.0000
  O   O4        1.0  0.10300  0.24200  0.23200  1.0000
  O   O5        1.0  0.29000  0.97500  0.27000  1.0000
  O   O6        1.0  0.70700  0.10900  0.72700  1.0000
  O   O7        1.0  0.04760  0.49600  0.75000  1.0000
  O   O8        1.0  0.89500  0.83500  0.76000  1.0000
  O   O9        1.0  0.24000  0.12000  0.77600  1.0000
  O   O10       1.0  0.53300  0.43700  0.80600  1.0000
  O   O11       1.0  0.38600  0.76300  0.81100  1.0000
  V   V1        1.0  0.08760  0.88200  0.00591  1.0000
  V   V2        1.0  0.40400  0.10200  0.01800  1.0000
  V   V3        1.0  0.59200  0.86600  0.93400  1.0000
  V   V4        1.0  0.91300  0.20100  0.98300  1.0000
