data_image0
_chemical_formula_structural       H8O11Y4
_chemical_formula_sum              "H8 O11 Y4"
_cell_length_a       10.7024
_cell_length_b       5.78256
_cell_length_c       4.16527
_cell_angle_alpha    90.0177
_cell_angle_beta     109.044
_cell_angle_gamma    115.152

_space_group_name_H-M_alt    "P 1"
_space_group_IT_number       1

loop_
  _space_group_symop_operation_xyz
  'x, y, z'

loop_
  _atom_site_type_symbol
  _atom_site_label
  _atom_site_symmetry_multiplicity
  _atom_site_fract_x
  _atom_site_fract_y
  _atom_site_fract_z
  _atom_site_occupancy
  H   H1        1.0  0.73400  0.60700  0.24900  1.0000
  H   H2        1.0  0.31900  0.74600  0.28300  1.0000
  H   H3        1.0  0.30600  0.37500  0.45500  1.0000
  H   H4        1.0  0.75000  0.36900  0.47100  1.0000
  H   H5        1.0  0.22200  0.00051  0.48300  1.0000
  H   H6        1.0  0.83800  0.86700  0.62200  1.0000
  H   H7        1.0  0.77600  0.35300  0.95500  1.0000
  H   H8        1.0  0.19300  0.37500  0.99100  1.0000
  O   O1        1.0  0.51800  0.90300  0.06110  1.0000
  O   O2        1.0  0.29200  0.89000  0.23000  1.0000
  O   O3        1.0  0.70600  0.41600  0.23500  1.0000
  O   O4        1.0  0.73900  0.89300  0.26200  1.0000
  O   O5        1.0  0.36400  0.49300  0.32400  1.0000
  O   O6        1.0  0.02080  0.57700  0.37900  1.0000
  O   O7        1.0  0.20300  0.11700  0.61900  1.0000
  O   O8        1.0  0.53700  0.40400  0.63300  1.0000
  O   O9        1.0  0.80300  0.27000  0.79800  1.0000
  O   O10       1.0  0.87600  0.83000  0.86000  1.0000
  O   O11       1.0  0.08590  0.32500  0.91500  1.0000
  Y   Y1        1.0  0.44800  0.22500  0.06210  1.0000
  Y   Y2        1.0  0.97900  0.18100  0.31300  1.0000
  Y   Y3        1.0  0.61800  0.84000  0.66700  1.0000
  Y   Y4        1.0  0.04830  0.69500  0.89200  1.0000
