data_image0
_chemical_formula_structural       CaMg2N2
_chemical_formula_sum              "Ca1 Mg2 N2"
_cell_length_a       3.53259
_cell_length_b       3.53273
_cell_length_c       6.05974
_cell_angle_alpha    90
_cell_angle_beta     90.0015
_cell_angle_gamma    120.001

_space_group_name_H-M_alt    "P 1"
_space_group_IT_number       1

loop_
  _space_group_symop_operation_xyz
  'x, y, z'

loop_
  _atom_site_type_symbol
  _atom_site_label
  _atom_site_symmetry_multiplicity
  _atom_site_fract_x
  _atom_site_fract_y
  _atom_site_fract_z
  _atom_site_occupancy
  Ca  Ca1       1.0  0.00000  0.00000  0.50000  1.0000
  Mg  Mg1       1.0  0.66700  0.33300  0.14100  1.0000
  Mg  Mg2       1.0  0.33300  0.66700  0.85900  1.0000
  N   N1        1.0  0.33300  0.66700  0.23400  1.0000
  N   N2        1.0  0.66700  0.33300  0.76600  1.0000
