data_image0
_chemical_formula_structural       H8O11Sc4
_chemical_formula_sum              "H8 O11 Sc4"
_cell_length_a       10.0463
_cell_length_b       5.13795
_cell_length_c       4.90136
_cell_angle_alpha    108.648
_cell_angle_beta     102.563
_cell_angle_gamma    108.892

_space_group_name_H-M_alt    "P 1"
_space_group_IT_number       1

loop_
  _space_group_symop_operation_xyz
  'x, y, z'

loop_
  _atom_site_type_symbol
  _atom_site_label
  _atom_site_symmetry_multiplicity
  _atom_site_fract_x
  _atom_site_fract_y
  _atom_site_fract_z
  _atom_site_occupancy
  H   H1        1.0  0.89300  0.87100  0.29700  1.0000
  H   H2        1.0  0.87900  0.51300  0.30600  1.0000
  H   H3        1.0  0.26400  0.92800  0.38400  1.0000
  H   H4        1.0  0.39200  0.73400  0.40900  1.0000
  H   H5        1.0  0.57200  0.32400  0.53400  1.0000
  H   H6        1.0  0.29600  0.56700  0.64800  1.0000
  H   H7        1.0  0.59700  0.85500  0.65600  1.0000
  H   H8        1.0  0.62700  0.35500  0.91700  1.0000
  O   O1        1.0  0.26100  0.02190  0.23900  1.0000
  O   O2        1.0  0.45900  0.67000  0.31200  1.0000
  O   O3        1.0  0.58400  0.24700  0.32900  1.0000
  O   O4        1.0  0.94900  0.42300  0.33800  1.0000
  O   O5        1.0  0.82700  0.89100  0.42300  1.0000
  O   O6        1.0  0.30300  0.77000  0.68100  1.0000
  O   O7        1.0  0.16600  0.13600  0.74900  1.0000
  O   O8        1.0  0.68200  0.01710  0.85000  1.0000
  O   O9        1.0  0.55200  0.43400  0.86400  1.0000
  O   O10       1.0  0.11900  0.35700  0.92900  1.0000
  O   O11       1.0  0.93300  0.75000  0.95400  1.0000
  Sc  Sc1       1.0  0.39000  0.21900  0.03790  1.0000
  Sc  Sc2       1.0  0.63500  0.89000  0.19100  1.0000
  Sc  Sc3       1.0  0.09160  0.69700  0.80100  1.0000
  Sc  Sc4       1.0  0.90800  0.08870  0.90700  1.0000
