data_image0
_chemical_formula_structural       H6O11Zr4
_chemical_formula_sum              "H6 O11 Zr4"
_cell_length_a       10.5386
_cell_length_b       5.60658
_cell_length_c       4.86444
_cell_angle_alpha    103.344
_cell_angle_beta     102.343
_cell_angle_gamma    113.974

_space_group_name_H-M_alt    "P 1"
_space_group_IT_number       1

loop_
  _space_group_symop_operation_xyz
  'x, y, z'

loop_
  _atom_site_type_symbol
  _atom_site_label
  _atom_site_symmetry_multiplicity
  _atom_site_fract_x
  _atom_site_fract_y
  _atom_site_fract_z
  _atom_site_occupancy
  H   H1        1.0  0.21500  0.92800  0.30200  1.0000
  H   H2        1.0  0.72800  0.46600  0.50400  1.0000
  H   H3        1.0  0.58000  0.37200  0.57500  1.0000
  H   H4        1.0  0.45600  0.52300  0.59200  1.0000
  H   H5        1.0  0.09270  0.17300  0.64600  1.0000
  H   H6        1.0  0.59600  0.01290  0.75700  1.0000
  O   O1        1.0  0.23900  0.90400  0.10600  1.0000
  O   O2        1.0  0.77500  0.90500  0.20300  1.0000
  O   O3        1.0  0.98800  0.44000  0.23800  1.0000
  O   O4        1.0  0.42300  0.54900  0.26600  1.0000
  O   O5        1.0  0.61800  0.32700  0.40200  1.0000
  O   O6        1.0  0.18900  0.99400  0.59400  1.0000
  O   O7        1.0  0.68600  0.02630  0.68100  1.0000
  O   O8        1.0  0.89300  0.70500  0.74200  1.0000
  O   O9        1.0  0.04770  0.27700  0.74700  1.0000
  O   O10       1.0  0.49900  0.47900  0.77100  1.0000
  O   O11       1.0  0.47900  0.95700  0.86000  1.0000
  Zr  Zr1       1.0  0.57900  0.86100  0.19800  1.0000
  Zr  Zr2       1.0  0.05560  0.63900  0.67800  1.0000
  Zr  Zr3       1.0  0.87600  0.05730  0.92800  1.0000
  Zr  Zr4       1.0  0.37800  0.18900  0.95200  1.0000
