data_image0
_chemical_formula_structural       CK2N2
_chemical_formula_sum              "C1 K2 N2"
_cell_length_a       4.02599
_cell_length_b       4.02599
_cell_length_c       5.82174
_cell_angle_alpha    103.184
_cell_angle_beta     76.8159
_cell_angle_gamma    90.9146

_space_group_name_H-M_alt    "P 1"
_space_group_IT_number       1

loop_
  _space_group_symop_operation_xyz
  'x, y, z'

loop_
  _atom_site_type_symbol
  _atom_site_label
  _atom_site_symmetry_multiplicity
  _atom_site_fract_x
  _atom_site_fract_y
  _atom_site_fract_z
  _atom_site_occupancy
  C   C1        1.0  0.00000  0.00000  0.00000  1.0000
  K   K1        1.0  0.32700  0.67300  0.29000  1.0000
  K   K2        1.0  0.67300  0.32700  0.71000  1.0000
  N   N1        1.0  0.84900  0.15100  0.20800  1.0000
  N   N2        1.0  0.15100  0.84900  0.79200  1.0000
