data_image0
_chemical_formula_structural       CaCo2F6
_chemical_formula_sum              "Ca1 Co2 F6"
_cell_length_a       4.20937
_cell_length_b       4.32369
_cell_length_c       6.36361
_cell_angle_alpha    99.9475
_cell_angle_beta     103.856
_cell_angle_gamma    111.238

_space_group_name_H-M_alt    "P 1"
_space_group_IT_number       1

loop_
  _space_group_symop_operation_xyz
  'x, y, z'

loop_
  _atom_site_type_symbol
  _atom_site_label
  _atom_site_symmetry_multiplicity
  _atom_site_fract_x
  _atom_site_fract_y
  _atom_site_fract_z
  _atom_site_occupancy
  Ca  Ca1       1.0  0.87800  0.26800  0.38000  1.0000
  Co  Co1       1.0  0.19000  0.06320  0.87700  1.0000
  Co  Co2       1.0  0.71900  0.59600  0.87800  1.0000
  F   F1        1.0  0.54100  0.88600  0.00196  1.0000
  F   F2        1.0  0.94500  0.63100  0.16500  1.0000
  F   F3        1.0  0.30400  0.26500  0.18700  1.0000
  F   F4        1.0  0.09800  0.89000  0.56800  1.0000
  F   F5        1.0  0.47600  0.53700  0.58900  1.0000
  F   F6        1.0  0.88900  0.29600  0.75800  1.0000
