data_image0
_chemical_formula_structural       LiPSe3
_chemical_formula_sum              "Li1 P1 Se3"
_cell_length_a       3.69059
_cell_length_b       5.47052
_cell_length_c       6.1231
_cell_angle_alpha    67.4421
_cell_angle_beta     90.0051
_cell_angle_gamma    89.3369

_space_group_name_H-M_alt    "P 1"
_space_group_IT_number       1

loop_
  _space_group_symop_operation_xyz
  'x, y, z'

loop_
  _atom_site_type_symbol
  _atom_site_label
  _atom_site_symmetry_multiplicity
  _atom_site_fract_x
  _atom_site_fract_y
  _atom_site_fract_z
  _atom_site_occupancy
  Li  Li1       1.0  0.29400  0.94100  0.97800  1.0000
  P   P1        1.0  0.79400  0.27000  0.37800  1.0000
  Se  Se1       1.0  0.79000  0.26400  0.02590  1.0000
  Se  Se2       1.0  0.29900  0.53000  0.42800  1.0000
  Se  Se3       1.0  0.79600  0.87400  0.67000  1.0000
