data_image0
_chemical_formula_structural       C3Mg4S
_chemical_formula_sum              "C3 Mg4 S1"
_cell_length_a       3.6418
_cell_length_b       5.94702
_cell_length_c       6.25683
_cell_angle_alpha    102.087
_cell_angle_beta     90.1708
_cell_angle_gamma    107.635

_space_group_name_H-M_alt    "P 1"
_space_group_IT_number       1

loop_
  _space_group_symop_operation_xyz
  'x, y, z'

loop_
  _atom_site_type_symbol
  _atom_site_label
  _atom_site_symmetry_multiplicity
  _atom_site_fract_x
  _atom_site_fract_y
  _atom_site_fract_z
  _atom_site_occupancy
  C   C1        1.0  0.26900  0.50000  0.10600  1.0000
  C   C2        1.0  0.39100  0.73900  0.13600  1.0000
  C   C3        1.0  0.51500  0.98300  0.16600  1.0000
  Mg  Mg1       1.0  0.72200  0.40200  0.28300  1.0000
  Mg  Mg2       1.0  0.03990  0.02940  0.42100  1.0000
  Mg  Mg3       1.0  0.26600  0.49400  0.74300  1.0000
  Mg  Mg4       1.0  0.06250  0.08270  0.96200  1.0000
  S   S1        1.0  0.88200  0.72900  0.63800  1.0000
