data_image0
_chemical_formula_structural       C4Mg5S
_chemical_formula_sum              "C4 Mg5 S1"
_cell_length_a       3.74289
_cell_length_b       6.69515
_cell_length_c       6.72154
_cell_angle_alpha    116.678
_cell_angle_beta     98.6897
_cell_angle_gamma    92.784

_space_group_name_H-M_alt    "P 1"
_space_group_IT_number       1

loop_
  _space_group_symop_operation_xyz
  'x, y, z'

loop_
  _atom_site_type_symbol
  _atom_site_label
  _atom_site_symmetry_multiplicity
  _atom_site_fract_x
  _atom_site_fract_y
  _atom_site_fract_z
  _atom_site_occupancy
  C   C1        1.0  0.74600  0.26600  0.02380  1.0000
  C   C2        1.0  0.21400  0.81600  0.09020  1.0000
  C   C3        1.0  0.12900  0.85800  0.29200  1.0000
  C   C4        1.0  0.04850  0.89800  0.48900  1.0000
  Mg  Mg1       1.0  0.27200  0.16900  0.14500  1.0000
  Mg  Mg2       1.0  0.88900  0.54300  0.38500  1.0000
  Mg  Mg3       1.0  0.61400  0.07870  0.64600  1.0000
  Mg  Mg4       1.0  0.66700  0.82100  0.92800  1.0000
  Mg  Mg5       1.0  0.22900  0.44600  0.95100  1.0000
  S   S1        1.0  0.44800  0.44100  0.58100  1.0000
