data_image0
_chemical_formula_structural       C3Mg3S
_chemical_formula_sum              "C3 Mg3 S1"
_cell_length_a       3.46198
_cell_length_b       3.462
_cell_length_c       7.96153
_cell_angle_alpha    82.9813
_cell_angle_beta     82.9419
_cell_angle_gamma    88.1011

_space_group_name_H-M_alt    "P 1"
_space_group_IT_number       1

loop_
  _space_group_symop_operation_xyz
  'x, y, z'

loop_
  _atom_site_type_symbol
  _atom_site_label
  _atom_site_symmetry_multiplicity
  _atom_site_fract_x
  _atom_site_fract_y
  _atom_site_fract_z
  _atom_site_occupancy
  C   C1        1.0  0.49700  0.25100  0.06510  1.0000
  C   C2        1.0  0.62400  0.37800  0.19800  1.0000
  C   C3        1.0  0.74200  0.49600  0.33800  1.0000
  Mg  Mg1       1.0  0.06050  0.81300  0.00879  1.0000
  Mg  Mg2       1.0  0.19500  0.95000  0.35100  1.0000
  Mg  Mg3       1.0  0.64200  0.39700  0.61800  1.0000
  S   S1        1.0  0.12200  0.87700  0.68800  1.0000
