data_image0
_chemical_formula_structural       C2Mg5S
_chemical_formula_sum              "C2 Mg5 S1"
_cell_length_a       3.7233
_cell_length_b       3.72423
_cell_length_c       11.2062
_cell_angle_alpha    99.103
_cell_angle_beta     99.0313
_cell_angle_gamma    92.9187

_space_group_name_H-M_alt    "P 1"
_space_group_IT_number       1

loop_
  _space_group_symop_operation_xyz
  'x, y, z'

loop_
  _atom_site_type_symbol
  _atom_site_label
  _atom_site_symmetry_multiplicity
  _atom_site_fract_x
  _atom_site_fract_y
  _atom_site_fract_z
  _atom_site_occupancy
  C   C1        1.0  0.15800  0.53100  0.36400  1.0000
  C   C2        1.0  0.92500  0.76400  0.36400  1.0000
  Mg  Mg1       1.0  0.35500  0.96200  0.00296  1.0000
  Mg  Mg2       1.0  0.92900  0.53800  0.15400  1.0000
  Mg  Mg3       1.0  0.54300  0.14900  0.39500  1.0000
  Mg  Mg4       1.0  0.19800  0.80200  0.68300  1.0000
  Mg  Mg5       1.0  0.78600  0.39300  0.86400  1.0000
  S   S1        1.0  0.67000  0.27700  0.63000  1.0000
