data_image0
_chemical_formula_structural       LiP3Se5
_chemical_formula_sum              "Li1 P3 Se5"
_cell_length_a       5.42061
_cell_length_b       6.81686
_cell_length_c       6.88109
_cell_angle_alpha    83.2958
_cell_angle_beta     81.9334
_cell_angle_gamma    68.8572

_space_group_name_H-M_alt    "P 1"
_space_group_IT_number       1

loop_
  _space_group_symop_operation_xyz
  'x, y, z'

loop_
  _atom_site_type_symbol
  _atom_site_label
  _atom_site_symmetry_multiplicity
  _atom_site_fract_x
  _atom_site_fract_y
  _atom_site_fract_z
  _atom_site_occupancy
  Li  Li1       1.0  0.77100  0.47600  0.69500  1.0000
  P   P1        1.0  0.37900  0.98500  0.42300  1.0000
  P   P2        1.0  0.05260  0.84900  0.53300  1.0000
  P   P3        1.0  0.33800  0.99200  0.89700  1.0000
  Se  Se1       1.0  0.44700  0.64700  0.03910  1.0000
  Se  Se2       1.0  0.18300  0.20100  0.16600  1.0000
  Se  Se3       1.0  0.70800  0.72600  0.27000  1.0000
  Se  Se4       1.0  0.25200  0.52300  0.66300  1.0000
  Se  Se5       1.0  0.91600  0.05330  0.80900  1.0000
