data_image0
_chemical_formula_structural       H2O39V18
_chemical_formula_sum              "H2 O39 V18"
_cell_length_a       3.75671
_cell_length_b       10.9076
_cell_length_c       17.0707
_cell_angle_alpha    102.439
_cell_angle_beta     90
_cell_angle_gamma    99.9161

_space_group_name_H-M_alt    "P 1"
_space_group_IT_number       1

loop_
  _space_group_symop_operation_xyz
  'x, y, z'

loop_
  _atom_site_type_symbol
  _atom_site_label
  _atom_site_symmetry_multiplicity
  _atom_site_fract_x
  _atom_site_fract_y
  _atom_site_fract_z
  _atom_site_occupancy
  H   H1        1.0  0.76600  0.53300  0.41100  1.0000
  H   H2        1.0  0.23400  0.46700  0.58900  1.0000
  O   O1        1.0  0.50000  0.00000  0.00000  1.0000
  O   O2        1.0  0.22100  0.44200  0.03090  1.0000
  O   O3        1.0  0.62500  0.25000  0.05140  1.0000
  O   O4        1.0  0.34200  0.68400  0.09590  1.0000
  O   O5        1.0  0.05990  0.12000  0.12000  1.0000
  O   O6        1.0  0.75600  0.51200  0.12600  1.0000
  O   O7        1.0  0.47100  0.94200  0.14200  1.0000
  O   O8        1.0  0.19300  0.38500  0.18700  1.0000
  O   O9        1.0  0.90900  0.81800  0.20600  1.0000
  O   O10       1.0  0.60400  0.20800  0.20900  1.0000
  O   O11       1.0  0.32200  0.64300  0.23700  1.0000
  O   O12       1.0  0.04000  0.08000  0.27900  1.0000
  O   O13       1.0  0.44300  0.88700  0.30200  1.0000
  O   O14       1.0  0.16300  0.32700  0.32500  1.0000
  O   O15       1.0  0.88200  0.76400  0.36000  1.0000
  O   O16       1.0  0.28800  0.57700  0.38600  1.0000
  O   O17       1.0  0.00522  0.01040  0.42700  1.0000
  O   O18       1.0  0.73500  0.46900  0.44500  1.0000
  O   O19       1.0  0.41800  0.83700  0.46000  1.0000
  O   O20       1.0  0.14100  0.28200  0.47200  1.0000
  O   O21       1.0  0.85900  0.71800  0.52800  1.0000
  O   O22       1.0  0.58200  0.16300  0.54000  1.0000
  O   O23       1.0  0.26500  0.53100  0.55500  1.0000
  O   O24       1.0  0.99500  0.99000  0.57300  1.0000
  O   O25       1.0  0.71200  0.42300  0.61400  1.0000
  O   O26       1.0  0.11800  0.23600  0.64000  1.0000
  O   O27       1.0  0.83700  0.67300  0.67500  1.0000
  O   O28       1.0  0.55700  0.11300  0.69800  1.0000
  O   O29       1.0  0.96000  0.92000  0.72100  1.0000
  O   O30       1.0  0.67800  0.35700  0.76300  1.0000
  O   O31       1.0  0.39600  0.79200  0.79100  1.0000
  O   O32       1.0  0.09090  0.18200  0.79400  1.0000
  O   O33       1.0  0.80700  0.61500  0.81300  1.0000
  O   O34       1.0  0.52900  0.05850  0.85800  1.0000
  O   O35       1.0  0.24400  0.48800  0.87400  1.0000
  O   O36       1.0  0.94000  0.88000  0.88000  1.0000
  O   O37       1.0  0.65800  0.31600  0.90400  1.0000
  O   O38       1.0  0.37500  0.75000  0.94900  1.0000
  O   O39       1.0  0.77900  0.55800  0.96900  1.0000
  V   V1        1.0  0.69400  0.38900  0.02050  1.0000
  V   V2        1.0  0.55000  0.09980  0.09830  1.0000
  V   V3        1.0  0.25900  0.51800  0.15100  1.0000
  V   V4        1.0  0.40600  0.81200  0.18000  1.0000
  V   V5        1.0  0.11500  0.22900  0.23100  1.0000
  V   V6        1.0  0.97100  0.94200  0.31100  1.0000
  V   V7        1.0  0.35700  0.71500  0.35200  1.0000
  V   V8        1.0  0.20500  0.41100  0.43100  1.0000
  V   V9        1.0  0.93200  0.86500  0.47700  1.0000
  V   V10       1.0  0.06770  0.13500  0.52300  1.0000
  V   V11       1.0  0.79500  0.58900  0.56900  1.0000
  V   V12       1.0  0.64300  0.28500  0.64800  1.0000
  V   V13       1.0  0.02910  0.05810  0.68900  1.0000
  V   V14       1.0  0.88500  0.77100  0.76900  1.0000
  V   V15       1.0  0.59400  0.18800  0.82000  1.0000
  V   V16       1.0  0.74100  0.48200  0.84900  1.0000
  V   V17       1.0  0.45000  0.90000  0.90200  1.0000
  V   V18       1.0  0.30600  0.61100  0.97900  1.0000
