data_image0
_chemical_formula_structural       Al8H39O32
_chemical_formula_sum              "Al8 H39 O32"
_cell_length_a       8.79467
_cell_length_b       8.02467
_cell_length_c       8.26472
_cell_angle_alpha    89.9145
_cell_angle_beta     89.6279
_cell_angle_gamma    89.7905

_space_group_name_H-M_alt    "P 1"
_space_group_IT_number       1

loop_
  _space_group_symop_operation_xyz
  'x, y, z'

loop_
  _atom_site_type_symbol
  _atom_site_label
  _atom_site_symmetry_multiplicity
  _atom_site_fract_x
  _atom_site_fract_y
  _atom_site_fract_z
  _atom_site_occupancy
  Al  Al1       1.0  0.12500  0.11900  0.00159  1.0000
  Al  Al2       1.0  0.62600  0.38100  0.00243  1.0000
  Al  Al3       1.0  0.87300  0.88100  0.00637  1.0000
  Al  Al4       1.0  0.37300  0.88100  0.49900  1.0000
  Al  Al5       1.0  0.12500  0.37400  0.49900  1.0000
  Al  Al6       1.0  0.87400  0.61600  0.49900  1.0000
  Al  Al7       1.0  0.62500  0.11800  0.50500  1.0000
  Al  Al8       1.0  0.37400  0.61500  0.99200  1.0000
  H   H1        1.0  0.60900  0.08000  0.06240  1.0000
  H   H2        1.0  0.89500  0.58500  0.06380  1.0000
  H   H3        1.0  0.43100  0.17400  0.07950  1.0000
  H   H4        1.0  0.09420  0.67900  0.08840  1.0000
  H   H5        1.0  0.23100  0.78000  0.21200  1.0000
  H   H6        1.0  0.26600  0.27400  0.21900  1.0000
  H   H7        1.0  0.72400  0.52800  0.22200  1.0000
  H   H8        1.0  0.76800  0.03490  0.22400  1.0000
  H   H9        1.0  0.42400  0.44700  0.23600  1.0000
  H   H10       1.0  0.05580  0.96400  0.25200  1.0000
  H   H11       1.0  0.92600  0.44200  0.26000  1.0000
  H   H12       1.0  0.56900  0.94800  0.26100  1.0000
  H   H13       1.0  0.26900  0.02940  0.27100  1.0000
  H   H14       1.0  0.22400  0.52900  0.28100  1.0000
  H   H15       1.0  0.76400  0.27700  0.28800  1.0000
  H   H16       1.0  0.72800  0.77500  0.28900  1.0000
  H   H17       1.0  0.57100  0.67300  0.42400  1.0000
  H   H18       1.0  0.95300  0.16300  0.42800  1.0000
  H   H19       1.0  0.39100  0.58000  0.44100  1.0000
  H   H20       1.0  0.88800  0.92100  0.55400  1.0000
  H   H21       1.0  0.61100  0.41800  0.56600  1.0000
  H   H22       1.0  0.06460  0.83300  0.56800  1.0000
  H   H23       1.0  0.43000  0.32700  0.58500  1.0000
  H   H24       1.0  0.22600  0.72800  0.70800  1.0000
  H   H25       1.0  0.26900  0.22400  0.71400  1.0000
  H   H26       1.0  0.77600  0.46500  0.72200  1.0000
  H   H27       1.0  0.72900  0.96500  0.72400  1.0000
  H   H28       1.0  0.07280  0.55600  0.73600  1.0000
  H   H29       1.0  0.42600  0.05130  0.73900  1.0000
  H   H30       1.0  0.57500  0.55100  0.76000  1.0000
  H   H31       1.0  0.93900  0.04800  0.76300  1.0000
  H   H32       1.0  0.27100  0.46900  0.77400  1.0000
  H   H33       1.0  0.22500  0.97100  0.78000  1.0000
  H   H34       1.0  0.77100  0.22000  0.78800  1.0000
  H   H35       1.0  0.73500  0.72100  0.79100  1.0000
  H   H36       1.0  0.92800  0.32400  0.91900  1.0000
  H   H37       1.0  0.57200  0.82300  0.91900  1.0000
  H   H38       1.0  0.10700  0.42100  0.93500  1.0000
  H   H39       1.0  0.39100  0.91700  0.93600  1.0000
  O   O1        1.0  0.54100  0.17600  0.02490  1.0000
  O   O2        1.0  0.96000  0.68200  0.03330  1.0000
  O   O3        1.0  0.47200  0.48300  0.13300  1.0000
  O   O4        1.0  0.21800  0.68300  0.13400  1.0000
  O   O5        1.0  0.72700  0.95300  0.14200  1.0000
  O   O6        1.0  0.27800  0.18000  0.14300  1.0000
  O   O7        1.0  0.01890  0.99200  0.14300  1.0000
  O   O8        1.0  0.76700  0.44500  0.14400  1.0000
  O   O9        1.0  0.24500  0.92600  0.33700  1.0000
  O   O10       1.0  0.26900  0.44800  0.35900  1.0000
  O   O11       1.0  0.77400  0.17800  0.35900  1.0000
  O   O12       1.0  0.97300  0.47700  0.36300  1.0000
  O   O13       1.0  0.71700  0.67900  0.36400  1.0000
  O   O14       1.0  0.52600  0.98200  0.36700  1.0000
  O   O15       1.0  0.45700  0.67500  0.47900  1.0000
  O   O16       1.0  0.04880  0.16900  0.49200  1.0000
  O   O17       1.0  0.95400  0.82400  0.51800  1.0000
  O   O18       1.0  0.54300  0.32300  0.53200  1.0000
  O   O19       1.0  0.02910  0.52200  0.63100  1.0000
  O   O20       1.0  0.21600  0.82600  0.63600  1.0000
  O   O21       1.0  0.47200  0.01710  0.63600  1.0000
  O   O22       1.0  0.28200  0.32100  0.64100  1.0000
  O   O23       1.0  0.73400  0.54700  0.64200  1.0000
  O   O24       1.0  0.76900  0.04730  0.64300  1.0000
  O   O25       1.0  0.22900  0.55200  0.85400  1.0000
  O   O26       1.0  0.52600  0.51400  0.86200  1.0000
  O   O27       1.0  0.27000  0.04810  0.86200  1.0000
  O   O28       1.0  0.78200  0.31600  0.86300  1.0000
  O   O29       1.0  0.72100  0.81800  0.86400  1.0000
  O   O30       1.0  0.97600  0.01500  0.87000  1.0000
  O   O31       1.0  0.04240  0.32300  0.97000  1.0000
  O   O32       1.0  0.45800  0.82000  0.97100  1.0000
