data_image0
_chemical_formula_structural       Co4Li6O11
_chemical_formula_sum              "Co4 Li6 O11"
_cell_length_a       9.63894
_cell_length_b       4.8516
_cell_length_c       5.01365
_cell_angle_alpha    99.5158
_cell_angle_beta     100.662
_cell_angle_gamma    119.185

_space_group_name_H-M_alt    "P 1"
_space_group_IT_number       1

loop_
  _space_group_symop_operation_xyz
  'x, y, z'

loop_
  _atom_site_type_symbol
  _atom_site_label
  _atom_site_symmetry_multiplicity
  _atom_site_fract_x
  _atom_site_fract_y
  _atom_site_fract_z
  _atom_site_occupancy
  Co  Co1       1.0  0.42200  0.18400  0.00248  1.0000
  Co  Co2       1.0  0.57800  0.83200  0.00621  1.0000
  Co  Co3       1.0  0.08260  0.78300  0.97000  1.0000
  Co  Co4       1.0  0.90400  0.15900  0.99700  1.0000
  Li  Li1       1.0  0.75100  0.49700  0.00736  1.0000
  Li  Li2       1.0  0.50300  0.00346  0.49600  1.0000
  Li  Li3       1.0  0.19700  0.73600  0.50600  1.0000
  Li  Li4       1.0  0.98100  0.95500  0.50600  1.0000
  Li  Li5       1.0  0.66000  0.64300  0.51300  1.0000
  Li  Li6       1.0  0.26200  0.51000  0.96600  1.0000
  O   O1        1.0  0.28700  0.92900  0.21300  1.0000
  O   O2        1.0  0.79300  0.93900  0.22000  1.0000
  O   O3        1.0  0.46900  0.59500  0.22400  1.0000
  O   O4        1.0  0.98300  0.58100  0.22500  1.0000
  O   O5        1.0  0.60700  0.22900  0.22900  1.0000
  O   O6        1.0  0.03160  0.38400  0.76300  1.0000
  O   O7        1.0  0.39500  0.79800  0.77300  1.0000
  O   O8        1.0  0.70500  0.05930  0.78300  1.0000
  O   O9        1.0  0.53100  0.42300  0.78700  1.0000
  O   O10       1.0  0.20300  0.06670  0.79000  1.0000
  O   O11       1.0  0.89300  0.79500  0.80000  1.0000
