data_image0
_chemical_formula_structural       CeOsSi3
_chemical_formula_sum              "Ce1 Os1 Si3"
_cell_length_a       4.2855
_cell_length_b       4.2855
_cell_length_c       5.84644
_cell_angle_alpha    111.5
_cell_angle_beta     111.5
_cell_angle_gamma    90

_space_group_name_H-M_alt    "P 1"
_space_group_IT_number       1

loop_
  _space_group_symop_operation_xyz
  'x, y, z'

loop_
  _atom_site_type_symbol
  _atom_site_label
  _atom_site_symmetry_multiplicity
  _atom_site_fract_x
  _atom_site_fract_y
  _atom_site_fract_z
  _atom_site_occupancy
  Ce  Ce1       1.0  0.00147  0.00147  0.00293  1.0000
  Os  Os1       1.0  0.65800  0.65800  0.31700  1.0000
  Si  Si1       1.0  0.76300  0.26300  0.52700  1.0000
  Si  Si2       1.0  0.26300  0.76300  0.52700  1.0000
  Si  Si3       1.0  0.42200  0.42200  0.84400  1.0000
