data_image0
_chemical_formula_structural       Fe8H40O32
_chemical_formula_sum              "Fe8 H40 O32"
_cell_length_a       7.95916
_cell_length_b       7.85936
_cell_length_c       8.5701
_cell_angle_alpha    90
_cell_angle_beta     90
_cell_angle_gamma    90

_space_group_name_H-M_alt    "P 1"
_space_group_IT_number       1

loop_
  _space_group_symop_operation_xyz
  'x, y, z'

loop_
  _atom_site_type_symbol
  _atom_site_label
  _atom_site_symmetry_multiplicity
  _atom_site_fract_x
  _atom_site_fract_y
  _atom_site_fract_z
  _atom_site_occupancy
  Fe  Fe1       1.0  0.74700  0.25100  0.00666  1.0000
  Fe  Fe2       1.0  0.75300  0.75100  0.00666  1.0000
  Fe  Fe3       1.0  0.24700  0.25100  0.49300  1.0000
  Fe  Fe4       1.0  0.25300  0.75100  0.49300  1.0000
  Fe  Fe5       1.0  0.74700  0.24900  0.50700  1.0000
  Fe  Fe6       1.0  0.75300  0.74900  0.50700  1.0000
  Fe  Fe7       1.0  0.24700  0.24900  0.99300  1.0000
  Fe  Fe8       1.0  0.25300  0.74900  0.99300  1.0000
  H   H1        1.0  0.00179  0.10500  0.07810  1.0000
  H   H2        1.0  0.49800  0.60500  0.07810  1.0000
  H   H3        1.0  0.60600  0.00240  0.09180  1.0000
  H   H4        1.0  0.89400  0.50200  0.09180  1.0000
  H   H5        1.0  0.40500  0.10500  0.22600  1.0000
  H   H6        1.0  0.09470  0.60500  0.22600  1.0000
  H   H7        1.0  0.34900  0.36000  0.23200  1.0000
  H   H8        1.0  0.15100  0.86000  0.23200  1.0000
  H   H9        1.0  0.09970  0.40700  0.24300  1.0000
  H   H10       1.0  0.40000  0.90700  0.24300  1.0000
  H   H11       1.0  0.60000  0.40700  0.25700  1.0000
  H   H12       1.0  0.90000  0.90700  0.25700  1.0000
  H   H13       1.0  0.84900  0.36000  0.26800  1.0000
  H   H14       1.0  0.65100  0.86000  0.26800  1.0000
  H   H15       1.0  0.90500  0.10500  0.27400  1.0000
  H   H16       1.0  0.59500  0.60500  0.27400  1.0000
  H   H17       1.0  0.10600  0.00240  0.40800  1.0000
  H   H18       1.0  0.39400  0.50200  0.40800  1.0000
  H   H19       1.0  0.50200  0.10500  0.42200  1.0000
  H   H20       1.0  0.99800  0.60500  0.42200  1.0000
  H   H21       1.0  0.00179  0.39500  0.57800  1.0000
  H   H22       1.0  0.49800  0.89500  0.57800  1.0000
  H   H23       1.0  0.60600  0.49800  0.59200  1.0000
  H   H24       1.0  0.89400  0.99800  0.59200  1.0000
  H   H25       1.0  0.40500  0.39500  0.72600  1.0000
  H   H26       1.0  0.09470  0.89500  0.72600  1.0000
  H   H27       1.0  0.34900  0.14000  0.73200  1.0000
  H   H28       1.0  0.15100  0.64000  0.73200  1.0000
  H   H29       1.0  0.09970  0.09260  0.74300  1.0000
  H   H30       1.0  0.40000  0.59300  0.74300  1.0000
  H   H31       1.0  0.60000  0.09260  0.75700  1.0000
  H   H32       1.0  0.90000  0.59300  0.75700  1.0000
  H   H33       1.0  0.84900  0.14000  0.76800  1.0000
  H   H34       1.0  0.65100  0.64000  0.76800  1.0000
  H   H35       1.0  0.90500  0.39500  0.77400  1.0000
  H   H36       1.0  0.59500  0.89500  0.77400  1.0000
  H   H37       1.0  0.10600  0.49800  0.90800  1.0000
  H   H38       1.0  0.39400  0.99800  0.90800  1.0000
  H   H39       1.0  0.50200  0.39500  0.92200  1.0000
  H   H40       1.0  0.99800  0.89500  0.92200  1.0000
  O   O1        1.0  0.00118  0.20700  0.00957  1.0000
  O   O2        1.0  0.49900  0.70700  0.00957  1.0000
  O   O3        1.0  0.70900  0.00205  0.02420  1.0000
  O   O4        1.0  0.79100  0.50200  0.02420  1.0000
  O   O5        1.0  0.26700  0.26600  0.23500  1.0000
  O   O6        1.0  0.23300  0.76600  0.23500  1.0000
  O   O7        1.0  0.48100  0.00454  0.24500  1.0000
  O   O8        1.0  0.01890  0.50500  0.24500  1.0000
  O   O9        1.0  0.98100  0.00454  0.25500  1.0000
  O   O10       1.0  0.51900  0.50500  0.25500  1.0000
  O   O11       1.0  0.76700  0.26600  0.26500  1.0000
  O   O12       1.0  0.73300  0.76600  0.26500  1.0000
  O   O13       1.0  0.20900  0.00205  0.47600  1.0000
  O   O14       1.0  0.29100  0.50200  0.47600  1.0000
  O   O15       1.0  0.50100  0.20700  0.49000  1.0000
  O   O16       1.0  0.99900  0.70700  0.49000  1.0000
  O   O17       1.0  0.00118  0.29300  0.51000  1.0000
  O   O18       1.0  0.49900  0.79300  0.51000  1.0000
  O   O19       1.0  0.70900  0.49800  0.52400  1.0000
  O   O20       1.0  0.79100  0.99800  0.52400  1.0000
  O   O21       1.0  0.26700  0.23400  0.73500  1.0000
  O   O22       1.0  0.23300  0.73400  0.73500  1.0000
  O   O23       1.0  0.48100  0.49500  0.74500  1.0000
  O   O24       1.0  0.01890  0.99500  0.74500  1.0000
  O   O25       1.0  0.98100  0.49500  0.75500  1.0000
  O   O26       1.0  0.51900  0.99500  0.75500  1.0000
  O   O27       1.0  0.76700  0.23400  0.76500  1.0000
  O   O28       1.0  0.73300  0.73400  0.76500  1.0000
  O   O29       1.0  0.20900  0.49800  0.97600  1.0000
  O   O30       1.0  0.29100  0.99800  0.97600  1.0000
  O   O31       1.0  0.50100  0.29300  0.99000  1.0000
  O   O32       1.0  0.99900  0.79300  0.99000  1.0000
