data_image0
_chemical_formula_structural       Al4Mg8
_chemical_formula_sum              "Al4 Mg8"
_cell_length_a       5.26231
_cell_length_b       9.30457
_cell_length_c       5.02281
_cell_angle_alpha    90
_cell_angle_beta     90
_cell_angle_gamma    90

_space_group_name_H-M_alt    "P 1"
_space_group_IT_number       1

loop_
  _space_group_symop_operation_xyz
  'x, y, z'

loop_
  _atom_site_type_symbol
  _atom_site_label
  _atom_site_symmetry_multiplicity
  _atom_site_fract_x
  _atom_site_fract_y
  _atom_site_fract_z
  _atom_site_occupancy
  Al  Al1       1.0  0.99400  0.00084  0.00000  1.0000
  Al  Al2       1.0  0.99400  0.66600  0.00000  1.0000
  Al  Al3       1.0  0.83900  0.16600  0.50000  1.0000
  Al  Al4       1.0  0.83900  0.50100  0.50000  1.0000
  Mg  Mg1       1.0  0.51100  0.16200  0.00000  1.0000
  Mg  Mg2       1.0  0.00299  0.33300  0.00000  1.0000
  Mg  Mg3       1.0  0.51100  0.50500  0.00000  1.0000
  Mg  Mg4       1.0  0.48600  0.83300  0.00000  1.0000
  Mg  Mg5       1.0  0.32200  0.00458  0.50000  1.0000
  Mg  Mg6       1.0  0.34700  0.33300  0.50000  1.0000
  Mg  Mg7       1.0  0.32200  0.66200  0.50000  1.0000
  Mg  Mg8       1.0  0.83000  0.83300  0.50000  1.0000
