data_image0
_chemical_formula_structural       PTe2Ti2
_chemical_formula_sum              "P1 Te2 Ti2"
_cell_length_a       3.64649
_cell_length_b       3.64647
_cell_length_c       9.75978
_cell_angle_alpha    79.2357
_cell_angle_beta     100.767
_cell_angle_gamma    120

_space_group_name_H-M_alt    "P 1"
_space_group_IT_number       1

loop_
  _space_group_symop_operation_xyz
  'x, y, z'

loop_
  _atom_site_type_symbol
  _atom_site_label
  _atom_site_symmetry_multiplicity
  _atom_site_fract_x
  _atom_site_fract_y
  _atom_site_fract_z
  _atom_site_occupancy
  P   P1        1.0  0.00000  0.00000  0.00000  1.0000
  Te  Te1       1.0  0.77700  0.22300  0.33000  1.0000
  Te  Te2       1.0  0.22300  0.77700  0.67000  1.0000
  Ti  Ti1       1.0  0.38000  0.62000  0.13900  1.0000
  Ti  Ti2       1.0  0.62000  0.38000  0.86100  1.0000
