data_image0
_chemical_formula_structural       AgNiSe2
_chemical_formula_sum              "Ag1 Ni1 Se2"
_cell_length_a       3.6359
_cell_length_b       3.6359
_cell_length_c       7.21621
_cell_angle_alpha    75.4085
_cell_angle_beta     104.591
_cell_angle_gamma    120

_space_group_name_H-M_alt    "P 1"
_space_group_IT_number       1

loop_
  _space_group_symop_operation_xyz
  'x, y, z'

loop_
  _atom_site_type_symbol
  _atom_site_label
  _atom_site_symmetry_multiplicity
  _atom_site_fract_x
  _atom_site_fract_y
  _atom_site_fract_z
  _atom_site_occupancy
  Ag  Ag1       1.0  0.85100  0.14900  0.55300  1.0000
  Ni  Ni1       1.0  0.00297  0.99700  0.00892  1.0000
  Se  Se1       1.0  0.72800  0.27200  0.18300  1.0000
  Se  Se2       1.0  0.27400  0.72600  0.82300  1.0000
