data_image0
_chemical_formula_structural       Ba4Mg8
_chemical_formula_sum              "Ba4 Mg8"
_cell_length_a       6.66542
_cell_length_b       6.66548
_cell_length_c       10.5766
_cell_angle_alpha    90
_cell_angle_beta     90
_cell_angle_gamma    120

_space_group_name_H-M_alt    "P 1"
_space_group_IT_number       1

loop_
  _space_group_symop_operation_xyz
  'x, y, z'

loop_
  _atom_site_type_symbol
  _atom_site_label
  _atom_site_symmetry_multiplicity
  _atom_site_fract_x
  _atom_site_fract_y
  _atom_site_fract_z
  _atom_site_occupancy
  Ba  Ba1       1.0  0.33300  0.66700  0.05690  1.0000
  Ba  Ba2       1.0  0.33300  0.66700  0.44300  1.0000
  Ba  Ba3       1.0  0.66700  0.33300  0.55700  1.0000
  Ba  Ba4       1.0  0.66700  0.33300  0.94300  1.0000
  Mg  Mg1       1.0  0.00000  0.00000  0.00000  1.0000
  Mg  Mg2       1.0  0.32200  0.16100  0.25000  1.0000
  Mg  Mg3       1.0  0.83900  0.16100  0.25000  1.0000
  Mg  Mg4       1.0  0.83900  0.67800  0.25000  1.0000
  Mg  Mg5       1.0  0.00000  0.00000  0.50000  1.0000
  Mg  Mg6       1.0  0.16100  0.32200  0.75000  1.0000
  Mg  Mg7       1.0  0.16100  0.83900  0.75000  1.0000
  Mg  Mg8       1.0  0.67800  0.83900  0.75000  1.0000
