data_image0
_chemical_formula_structural       Ca2Mg4
_chemical_formula_sum              "Ca2 Mg4"
_cell_length_a       3.66906
_cell_length_b       8.77424
_cell_length_c       5.56111
_cell_angle_alpha    90
_cell_angle_beta     90
_cell_angle_gamma    77.9315

_space_group_name_H-M_alt    "P 1"
_space_group_IT_number       1

loop_
  _space_group_symop_operation_xyz
  'x, y, z'

loop_
  _atom_site_type_symbol
  _atom_site_label
  _atom_site_symmetry_multiplicity
  _atom_site_fract_x
  _atom_site_fract_y
  _atom_site_fract_z
  _atom_site_occupancy
  Ca  Ca1       1.0  0.33800  0.32500  0.00000  1.0000
  Ca  Ca2       1.0  0.77400  0.45300  0.50000  1.0000
  Mg  Mg1       1.0  0.00555  0.98900  0.00000  1.0000
  Mg  Mg2       1.0  0.65800  0.68300  0.00000  1.0000
  Mg  Mg3       1.0  0.45300  0.09450  0.50000  1.0000
  Mg  Mg4       1.0  0.10600  0.78900  0.50000  1.0000
