data_image0
_chemical_formula_structural       Ba2Bi3
_chemical_formula_sum              "Ba2 Bi3"
_cell_length_a       4.8313
_cell_length_b       6.89689
_cell_length_c       6.89689
_cell_angle_alpha    95.2315
_cell_angle_beta     110.503
_cell_angle_gamma    110.503

_space_group_name_H-M_alt    "P 1"
_space_group_IT_number       1

loop_
  _space_group_symop_operation_xyz
  'x, y, z'

loop_
  _atom_site_type_symbol
  _atom_site_label
  _atom_site_symmetry_multiplicity
  _atom_site_fract_x
  _atom_site_fract_y
  _atom_site_fract_z
  _atom_site_occupancy
  Ba  Ba1       1.0  0.50000  0.72400  0.27600  1.0000
  Ba  Ba2       1.0  0.50000  0.27600  0.72400  1.0000
  Bi  Bi1       1.0  0.00000  0.00000  0.00000  1.0000
  Bi  Bi2       1.0  0.79600  0.29600  0.29600  1.0000
  Bi  Bi3       1.0  0.20400  0.70400  0.70400  1.0000
