data_image0
_chemical_formula_structural       H2O10V4
_chemical_formula_sum              "H2 O10 V4"
_cell_length_a       11.3559
_cell_length_b       3.575
_cell_length_c       4.27203
_cell_angle_alpha    90
_cell_angle_beta     90
_cell_angle_gamma    90

_space_group_name_H-M_alt    "P 1"
_space_group_IT_number       1

loop_
  _space_group_symop_operation_xyz
  'x, y, z'

loop_
  _atom_site_type_symbol
  _atom_site_label
  _atom_site_symmetry_multiplicity
  _atom_site_fract_x
  _atom_site_fract_y
  _atom_site_fract_z
  _atom_site_occupancy
  H   H1        1.0  0.25000  0.75000  0.35400  1.0000
  H   H2        1.0  0.75000  0.25000  0.64600  1.0000
  O   O1        1.0  0.57100  0.25000  0.00806  1.0000
  O   O2        1.0  0.92900  0.25000  0.00806  1.0000
  O   O3        1.0  0.75000  0.75000  0.01610  1.0000
  O   O4        1.0  0.10100  0.25000  0.49900  1.0000
  O   O5        1.0  0.39900  0.25000  0.49900  1.0000
  O   O6        1.0  0.60100  0.75000  0.50100  1.0000
  O   O7        1.0  0.89900  0.75000  0.50100  1.0000
  O   O8        1.0  0.25000  0.25000  0.98400  1.0000
  O   O9        1.0  0.07060  0.75000  0.99200  1.0000
  O   O10       1.0  0.42900  0.75000  0.99200  1.0000
  V   V1        1.0  0.59800  0.75000  0.12400  1.0000
  V   V2        1.0  0.90200  0.75000  0.12400  1.0000
  V   V3        1.0  0.09840  0.25000  0.87600  1.0000
  V   V4        1.0  0.40200  0.25000  0.87600  1.0000
