data_image0
_chemical_formula_structural       Fe2Mg4
_chemical_formula_sum              "Fe2 Mg4"
_cell_length_a       4.9504
_cell_length_b       4.96004
_cell_length_c       4.51746
_cell_angle_alpha    90
_cell_angle_beta     90
_cell_angle_gamma    60.3027

_space_group_name_H-M_alt    "P 1"
_space_group_IT_number       1

loop_
  _space_group_symop_operation_xyz
  'x, y, z'

loop_
  _atom_site_type_symbol
  _atom_site_label
  _atom_site_symmetry_multiplicity
  _atom_site_fract_x
  _atom_site_fract_y
  _atom_site_fract_z
  _atom_site_occupancy
  Fe  Fe1       1.0  0.00127  0.00073  0.00000  1.0000
  Fe  Fe2       1.0  0.33300  0.33200  0.00000  1.0000
  Mg  Mg1       1.0  0.66700  0.66600  0.00000  1.0000
  Mg  Mg2       1.0  0.66600  0.02800  0.50000  1.0000
  Mg  Mg3       1.0  0.02710  0.30600  0.50000  1.0000
  Mg  Mg4       1.0  0.30500  0.66700  0.50000  1.0000
