data_image0
_chemical_formula_structural       Mg8Nb4
_chemical_formula_sum              "Mg8 Nb4"
_cell_length_a       5.532
_cell_length_b       8.98045
_cell_length_c       4.83272
_cell_angle_alpha    90
_cell_angle_beta     90
_cell_angle_gamma    90

_space_group_name_H-M_alt    "P 1"
_space_group_IT_number       1

loop_
  _space_group_symop_operation_xyz
  'x, y, z'

loop_
  _atom_site_type_symbol
  _atom_site_label
  _atom_site_symmetry_multiplicity
  _atom_site_fract_x
  _atom_site_fract_y
  _atom_site_fract_z
  _atom_site_occupancy
  Mg  Mg1       1.0  0.51200  0.16100  0.00000  1.0000
  Mg  Mg2       1.0  0.99600  0.33300  0.00000  1.0000
  Mg  Mg3       1.0  0.51200  0.50600  0.00000  1.0000
  Mg  Mg4       1.0  0.49500  0.83300  0.00000  1.0000
  Mg  Mg5       1.0  0.32200  0.00591  0.50000  1.0000
  Mg  Mg6       1.0  0.33800  0.33300  0.50000  1.0000
  Mg  Mg7       1.0  0.32200  0.66100  0.50000  1.0000
  Mg  Mg8       1.0  0.83700  0.83300  0.50000  1.0000
  Nb  Nb1       1.0  0.97700  0.00031  0.00000  1.0000
  Nb  Nb2       1.0  0.97700  0.66600  0.00000  1.0000
  Nb  Nb3       1.0  0.85600  0.16600  0.50000  1.0000
  Nb  Nb4       1.0  0.85600  0.50000  0.50000  1.0000
