data_image0
_chemical_formula_structural       Au2CeSi2
_chemical_formula_sum              "Au2 Ce1 Si2"
_cell_length_a       4.374
_cell_length_b       4.374
_cell_length_c       6.015
_cell_angle_alpha    111.321
_cell_angle_beta     111.321
_cell_angle_gamma    90

_space_group_name_H-M_alt    "P 1"
_space_group_IT_number       1

loop_
  _space_group_symop_operation_xyz
  'x, y, z'

loop_
  _atom_site_type_symbol
  _atom_site_label
  _atom_site_symmetry_multiplicity
  _atom_site_fract_x
  _atom_site_fract_y
  _atom_site_fract_z
  _atom_site_occupancy
  Au  Au1       1.0  0.75000  0.25000  0.50000  1.0000
  Au  Au2       1.0  0.25000  0.75000  0.50000  1.0000
  Ce  Ce1       1.0  0.00000  0.00000  0.00000  1.0000
  Si  Si1       1.0  0.61500  0.61500  0.23000  1.0000
  Si  Si2       1.0  0.38500  0.38500  0.77000  1.0000
