data_image0
_chemical_formula_structural       Ho2O2Se
_chemical_formula_sum              "Ho2 O2 Se1"
_cell_length_a       3.80361
_cell_length_b       3.80363
_cell_length_c       6.76585
_cell_angle_alpha    90
_cell_angle_beta     89.9999
_cell_angle_gamma    120

_space_group_name_H-M_alt    "P 1"
_space_group_IT_number       1

loop_
  _space_group_symop_operation_xyz
  'x, y, z'

loop_
  _atom_site_type_symbol
  _atom_site_label
  _atom_site_symmetry_multiplicity
  _atom_site_fract_x
  _atom_site_fract_y
  _atom_site_fract_z
  _atom_site_occupancy
  Ho  Ho1       1.0  0.33300  0.66700  0.29000  1.0000
  Ho  Ho2       1.0  0.66700  0.33300  0.71000  1.0000
  O   O1        1.0  0.66700  0.33300  0.37400  1.0000
  O   O2        1.0  0.33300  0.66700  0.62600  1.0000
  Se  Se1       1.0  0.00000  0.00000  0.00000  1.0000
