data_image0
_chemical_formula_structural       N4Ru2
_chemical_formula_sum              "N4 Ru2"
_cell_length_a       4.10049
_cell_length_b       4.89985
_cell_length_c       2.69345
_cell_angle_alpha    90
_cell_angle_beta     90
_cell_angle_gamma    90

_space_group_name_H-M_alt    "P 1"
_space_group_IT_number       1

loop_
  _space_group_symop_operation_xyz
  'x, y, z'

loop_
  _atom_site_type_symbol
  _atom_site_label
  _atom_site_symmetry_multiplicity
  _atom_site_fract_x
  _atom_site_fract_y
  _atom_site_fract_z
  _atom_site_occupancy
  N   N1        1.0  0.12100  0.40900  0.00000  1.0000
  N   N2        1.0  0.87900  0.59100  0.00000  1.0000
  N   N3        1.0  0.62100  0.09140  0.50000  1.0000
  N   N4        1.0  0.37900  0.90900  0.50000  1.0000
  Ru  Ru1       1.0  0.00000  0.00000  0.00000  1.0000
  Ru  Ru2       1.0  0.50000  0.50000  0.50000  1.0000
