data_image0
_chemical_formula_structural       Be6Zn8
_chemical_formula_sum              "Be6 Zn8"
_cell_length_a       6.8732
_cell_length_b       6.87309
_cell_length_c       3.99728
_cell_angle_alpha    90
_cell_angle_beta     90
_cell_angle_gamma    60.0013

_space_group_name_H-M_alt    "P 1"
_space_group_IT_number       1

loop_
  _space_group_symop_operation_xyz
  'x, y, z'

loop_
  _atom_site_type_symbol
  _atom_site_label
  _atom_site_symmetry_multiplicity
  _atom_site_fract_x
  _atom_site_fract_y
  _atom_site_fract_z
  _atom_site_occupancy
  Be  Be1       1.0  0.27300  0.29200  0.00000  1.0000
  Be  Be2       1.0  0.86300  0.57900  0.00000  1.0000
  Be  Be3       1.0  0.15000  0.70100  0.00000  1.0000
  Be  Be4       1.0  0.25100  0.08940  0.50000  1.0000
  Be  Be5       1.0  0.37400  0.68000  0.50000  1.0000
  Be  Be6       1.0  0.66100  0.80200  0.50000  1.0000
  Zn  Zn1       1.0  0.00938  0.16200  0.00000  1.0000
  Zn  Zn2       1.0  0.54300  0.43800  0.00000  1.0000
  Zn  Zn3       1.0  0.42900  0.85700  0.00000  1.0000
  Zn  Zn4       1.0  0.73300  0.97200  0.00000  1.0000
  Zn  Zn5       1.0  0.51400  0.21900  0.50000  1.0000
  Zn  Zn6       1.0  0.79100  0.40900  0.50000  1.0000
  Zn  Zn7       1.0  0.09520  0.52400  0.50000  1.0000
  Zn  Zn8       1.0  0.98000  0.94300  0.50000  1.0000
