data_image0
_chemical_formula_structural       Cd6Zn8
_chemical_formula_sum              "Cd6 Zn8"
_cell_length_a       7.60487
_cell_length_b       7.60469
_cell_length_c       4.89106
_cell_angle_alpha    90
_cell_angle_beta     90
_cell_angle_gamma    59.9962

_space_group_name_H-M_alt    "P 1"
_space_group_IT_number       1

loop_
  _space_group_symop_operation_xyz
  'x, y, z'

loop_
  _atom_site_type_symbol
  _atom_site_label
  _atom_site_symmetry_multiplicity
  _atom_site_fract_x
  _atom_site_fract_y
  _atom_site_fract_z
  _atom_site_occupancy
  Cd  Cd1       1.0  0.13500  0.28100  0.00000  1.0000
  Cd  Cd2       1.0  0.29800  0.56400  0.00000  1.0000
  Cd  Cd3       1.0  0.85200  0.72600  0.00000  1.0000
  Cd  Cd4       1.0  0.38800  0.10000  0.50000  1.0000
  Cd  Cd5       1.0  0.67100  0.65400  0.50000  1.0000
  Cd  Cd6       1.0  0.22600  0.81700  0.50000  1.0000
  Zn  Zn1       1.0  0.98700  0.01340  0.00000  1.0000
  Zn  Zn2       1.0  0.58500  0.14300  0.00000  1.0000
  Zn  Zn3       1.0  0.71400  0.41500  0.00000  1.0000
  Zn  Zn4       1.0  0.42900  0.85700  0.00000  1.0000
  Zn  Zn5       1.0  0.93900  0.23800  0.50000  1.0000
  Zn  Zn6       1.0  0.53700  0.36800  0.50000  1.0000
  Zn  Zn7       1.0  0.09520  0.52400  0.50000  1.0000
  Zn  Zn8       1.0  0.81000  0.96600  0.50000  1.0000
