data_image0
_chemical_formula_structural       Mg6Zn8
_chemical_formula_sum              "Mg6 Zn8"
_cell_length_a       7.6539
_cell_length_b       7.65434
_cell_length_c       4.82982
_cell_angle_alpha    90
_cell_angle_beta     90
_cell_angle_gamma    59.9952

_space_group_name_H-M_alt    "P 1"
_space_group_IT_number       1

loop_
  _space_group_symop_operation_xyz
  'x, y, z'

loop_
  _atom_site_type_symbol
  _atom_site_label
  _atom_site_symmetry_multiplicity
  _atom_site_fract_x
  _atom_site_fract_y
  _atom_site_fract_z
  _atom_site_occupancy
  Mg  Mg1       1.0  0.73100  0.41600  0.00000  1.0000
  Mg  Mg2       1.0  0.27300  0.56700  0.00000  1.0000
  Mg  Mg3       1.0  0.42400  0.87400  0.00000  1.0000
  Mg  Mg4       1.0  0.52800  0.36400  0.50000  1.0000
  Mg  Mg5       1.0  0.67900  0.67100  0.50000  1.0000
  Mg  Mg6       1.0  0.22100  0.82200  0.50000  1.0000
  Zn  Zn1       1.0  0.57700  0.13800  0.00000  1.0000
  Zn  Zn2       1.0  0.14300  0.28600  0.00000  1.0000
  Zn  Zn3       1.0  0.85600  0.72000  0.00000  1.0000
  Zn  Zn4       1.0  0.99500  0.99900  0.00000  1.0000
  Zn  Zn5       1.0  0.37600  0.09990  0.50000  1.0000
  Zn  Zn6       1.0  0.95700  0.23900  0.50000  1.0000
  Zn  Zn7       1.0  0.09590  0.51900  0.50000  1.0000
  Zn  Zn8       1.0  0.81000  0.95200  0.50000  1.0000
