data_image0
_chemical_formula_structural       Li6Zn8
_chemical_formula_sum              "Li6 Zn8"
_cell_length_a       7.18539
_cell_length_b       7.18469
_cell_length_c       4.36014
_cell_angle_alpha    90
_cell_angle_beta     90
_cell_angle_gamma    59.9947

_space_group_name_H-M_alt    "P 1"
_space_group_IT_number       1

loop_
  _space_group_symop_operation_xyz
  'x, y, z'

loop_
  _atom_site_type_symbol
  _atom_site_label
  _atom_site_symmetry_multiplicity
  _atom_site_fract_x
  _atom_site_fract_y
  _atom_site_fract_z
  _atom_site_occupancy
  Li  Li1       1.0  0.13800  0.28200  0.00000  1.0000
  Li  Li2       1.0  0.29400  0.56700  0.00000  1.0000
  Li  Li3       1.0  0.85400  0.72200  0.00000  1.0000
  Li  Li4       1.0  0.38500  0.09870  0.50000  1.0000
  Li  Li5       1.0  0.67000  0.65900  0.50000  1.0000
  Li  Li6       1.0  0.23000  0.81400  0.50000  1.0000
  Zn  Zn1       1.0  0.00604  0.00129  0.00000  1.0000
  Zn  Zn2       1.0  0.57300  0.13500  0.00000  1.0000
  Zn  Zn3       1.0  0.70700  0.43500  0.00000  1.0000
  Zn  Zn4       1.0  0.42800  0.85700  0.00000  1.0000
  Zn  Zn5       1.0  0.95100  0.24600  0.50000  1.0000
  Zn  Zn6       1.0  0.51800  0.37900  0.50000  1.0000
  Zn  Zn7       1.0  0.09530  0.52400  0.50000  1.0000
  Zn  Zn8       1.0  0.81700  0.94600  0.50000  1.0000
