data_image0
_chemical_formula_structural       Hg6Zn8
_chemical_formula_sum              "Hg6 Zn8"
_cell_length_a       7.82936
_cell_length_b       7.82891
_cell_length_c       5.0359
_cell_angle_alpha    90
_cell_angle_beta     90
_cell_angle_gamma    59.9859

_space_group_name_H-M_alt    "P 1"
_space_group_IT_number       1

loop_
  _space_group_symop_operation_xyz
  'x, y, z'

loop_
  _atom_site_type_symbol
  _atom_site_label
  _atom_site_symmetry_multiplicity
  _atom_site_fract_x
  _atom_site_fract_y
  _atom_site_fract_z
  _atom_site_occupancy
  Hg  Hg1       1.0  0.13000  0.27700  0.00000  1.0000
  Hg  Hg2       1.0  0.30700  0.55800  0.00000  1.0000
  Hg  Hg3       1.0  0.84900  0.73600  0.00000  1.0000
  Hg  Hg4       1.0  0.39400  0.10400  0.50000  1.0000
  Hg  Hg5       1.0  0.67500  0.64500  0.50000  1.0000
  Hg  Hg6       1.0  0.21600  0.82300  0.50000  1.0000
  Zn  Zn1       1.0  0.98300  0.01480  0.00000  1.0000
  Zn  Zn2       1.0  0.58600  0.14500  0.00000  1.0000
  Zn  Zn3       1.0  0.71600  0.41200  0.00000  1.0000
  Zn  Zn4       1.0  0.42900  0.85700  0.00000  1.0000
  Zn  Zn5       1.0  0.93800  0.23600  0.50000  1.0000
  Zn  Zn6       1.0  0.54100  0.36600  0.50000  1.0000
  Zn  Zn7       1.0  0.09520  0.52400  0.50000  1.0000
  Zn  Zn8       1.0  0.80700  0.96900  0.50000  1.0000
