data_image0
_chemical_formula_structural       Ga6Zn8
_chemical_formula_sum              "Ga6 Zn8"
_cell_length_a       7.50113
_cell_length_b       7.50114
_cell_length_c       4.76341
_cell_angle_alpha    90
_cell_angle_beta     90
_cell_angle_gamma    59.9911

_space_group_name_H-M_alt    "P 1"
_space_group_IT_number       1

loop_
  _space_group_symop_operation_xyz
  'x, y, z'

loop_
  _atom_site_type_symbol
  _atom_site_label
  _atom_site_symmetry_multiplicity
  _atom_site_fract_x
  _atom_site_fract_y
  _atom_site_fract_z
  _atom_site_occupancy
  Ga  Ga1       1.0  0.13600  0.28400  0.00000  1.0000
  Ga  Ga2       1.0  0.29400  0.56500  0.00000  1.0000
  Ga  Ga3       1.0  0.85600  0.72300  0.00000  1.0000
  Ga  Ga4       1.0  0.38800  0.09660  0.50000  1.0000
  Ga  Ga5       1.0  0.66800  0.65800  0.50000  1.0000
  Ga  Ga6       1.0  0.23000  0.81600  0.50000  1.0000
  Zn  Zn1       1.0  0.99700  0.00807  0.00000  1.0000
  Zn  Zn2       1.0  0.57900  0.13800  0.00000  1.0000
  Zn  Zn3       1.0  0.71000  0.42500  0.00000  1.0000
  Zn  Zn4       1.0  0.42900  0.85700  0.00000  1.0000
  Zn  Zn5       1.0  0.94400  0.24300  0.50000  1.0000
  Zn  Zn6       1.0  0.52700  0.37300  0.50000  1.0000
  Zn  Zn7       1.0  0.09520  0.52400  0.50000  1.0000
  Zn  Zn8       1.0  0.81400  0.95600  0.50000  1.0000
