data_image0
_chemical_formula_structural       Cu6Zn8
_chemical_formula_sum              "Cu6 Zn8"
_cell_length_a       7.00369
_cell_length_b       7.00382
_cell_length_c       4.26806
_cell_angle_alpha    90
_cell_angle_beta     90
_cell_angle_gamma    59.9981

_space_group_name_H-M_alt    "P 1"
_space_group_IT_number       1

loop_
  _space_group_symop_operation_xyz
  'x, y, z'

loop_
  _atom_site_type_symbol
  _atom_site_label
  _atom_site_symmetry_multiplicity
  _atom_site_fract_x
  _atom_site_fract_y
  _atom_site_fract_z
  _atom_site_occupancy
  Cu  Cu1       1.0  0.14100  0.28700  0.00000  1.0000
  Cu  Cu2       1.0  0.28600  0.57000  0.00000  1.0000
  Cu  Cu3       1.0  0.85800  0.71500  0.00000  1.0000
  Cu  Cu4       1.0  0.38300  0.09390  0.50000  1.0000
  Cu  Cu5       1.0  0.66500  0.66600  0.50000  1.0000
  Cu  Cu6       1.0  0.23800  0.81100  0.50000  1.0000
  Zn  Zn1       1.0  0.56100  0.14600  0.00000  1.0000
  Zn  Zn2       1.0  0.71800  0.43500  0.00000  1.0000
  Zn  Zn3       1.0  0.42900  0.85700  0.00000  1.0000
  Zn  Zn4       1.0  0.00649  0.99000  0.00000  1.0000
  Zn  Zn5       1.0  0.96300  0.23400  0.50000  1.0000
  Zn  Zn6       1.0  0.51700  0.39100  0.50000  1.0000
  Zn  Zn7       1.0  0.09520  0.52400  0.50000  1.0000
  Zn  Zn8       1.0  0.80600  0.94600  0.50000  1.0000
