data_image0
_chemical_formula_structural       K6Zn8
_chemical_formula_sum              "K6 Zn8"
_cell_length_a       9.68222
_cell_length_b       9.68428
_cell_length_c       5.22208
_cell_angle_alpha    90
_cell_angle_beta     90
_cell_angle_gamma    60.0077

_space_group_name_H-M_alt    "P 1"
_space_group_IT_number       1

loop_
  _space_group_symop_operation_xyz
  'x, y, z'

loop_
  _atom_site_type_symbol
  _atom_site_label
  _atom_site_symmetry_multiplicity
  _atom_site_fract_x
  _atom_site_fract_y
  _atom_site_fract_z
  _atom_site_occupancy
  K   K1        1.0  0.11000  0.27100  0.00000  1.0000
  K   K2        1.0  0.33300  0.53800  0.00000  1.0000
  K   K3        1.0  0.84200  0.76200  0.00000  1.0000
  K   K4        1.0  0.41400  0.11000  0.50000  1.0000
  K   K5        1.0  0.68100  0.61900  0.50000  1.0000
  K   K6        1.0  0.19000  0.84300  0.50000  1.0000
  Zn  Zn1       1.0  0.93500  0.04880  0.00000  1.0000
  Zn  Zn2       1.0  0.62000  0.15900  0.00000  1.0000
  Zn  Zn3       1.0  0.73000  0.36400  0.00000  1.0000
  Zn  Zn4       1.0  0.42900  0.85700  0.00000  1.0000
  Zn  Zn5       1.0  0.79300  0.01720  0.50000  1.0000
  Zn  Zn6       1.0  0.90400  0.22200  0.50000  1.0000
  Zn  Zn7       1.0  0.58900  0.33200  0.50000  1.0000
  Zn  Zn8       1.0  0.09540  0.52400  0.50000  1.0000
