data_image0
_chemical_formula_structural       Ge6Zn8
_chemical_formula_sum              "Ge6 Zn8"
_cell_length_a       7.67793
_cell_length_b       7.67824
_cell_length_c       4.74576
_cell_angle_alpha    90
_cell_angle_beta     90
_cell_angle_gamma    59.9902

_space_group_name_H-M_alt    "P 1"
_space_group_IT_number       1

loop_
  _space_group_symop_operation_xyz
  'x, y, z'

loop_
  _atom_site_type_symbol
  _atom_site_label
  _atom_site_symmetry_multiplicity
  _atom_site_fract_x
  _atom_site_fract_y
  _atom_site_fract_z
  _atom_site_occupancy
  Ge  Ge1       1.0  0.13800  0.28000  0.00000  1.0000
  Ge  Ge2       1.0  0.29700  0.56700  0.00000  1.0000
  Ge  Ge3       1.0  0.85100  0.72500  0.00000  1.0000
  Ge  Ge4       1.0  0.38600  0.10100  0.50000  1.0000
  Ge  Ge5       1.0  0.67300  0.65600  0.50000  1.0000
  Ge  Ge6       1.0  0.22700  0.81400  0.50000  1.0000
  Zn  Zn1       1.0  0.99400  0.01100  0.00000  1.0000
  Zn  Zn2       1.0  0.58200  0.13800  0.00000  1.0000
  Zn  Zn3       1.0  0.70900  0.42300  0.00000  1.0000
  Zn  Zn4       1.0  0.42900  0.85700  0.00000  1.0000
  Zn  Zn5       1.0  0.94100  0.24300  0.50000  1.0000
  Zn  Zn6       1.0  0.53000  0.37000  0.50000  1.0000
  Zn  Zn7       1.0  0.09520  0.52400  0.50000  1.0000
  Zn  Zn8       1.0  0.81500  0.95800  0.50000  1.0000
