data_image0
_chemical_formula_structural       In6Zn8
_chemical_formula_sum              "In6 Zn8"
_cell_length_a       8.28381
_cell_length_b       8.28228
_cell_length_c       4.81667
_cell_angle_alpha    90
_cell_angle_beta     90
_cell_angle_gamma    59.9837

_space_group_name_H-M_alt    "P 1"
_space_group_IT_number       1

loop_
  _space_group_symop_operation_xyz
  'x, y, z'

loop_
  _atom_site_type_symbol
  _atom_site_label
  _atom_site_symmetry_multiplicity
  _atom_site_fract_x
  _atom_site_fract_y
  _atom_site_fract_z
  _atom_site_occupancy
  In  In1       1.0  0.12200  0.28100  0.00000  1.0000
  In  In2       1.0  0.31100  0.55100  0.00000  1.0000
  In  In3       1.0  0.85200  0.74000  0.00000  1.0000
  In  In4       1.0  0.40100  0.10000  0.50000  1.0000
  In  In5       1.0  0.67200  0.64100  0.50000  1.0000
  In  In6       1.0  0.21300  0.83000  0.50000  1.0000
  Zn  Zn1       1.0  0.97400  0.02410  0.00000  1.0000
  Zn  Zn2       1.0  0.59600  0.14500  0.00000  1.0000
  Zn  Zn3       1.0  0.71600  0.40200  0.00000  1.0000
  Zn  Zn4       1.0  0.42900  0.85700  0.00000  1.0000
  Zn  Zn5       1.0  0.92800  0.23600  0.50000  1.0000
  Zn  Zn6       1.0  0.55000  0.35700  0.50000  1.0000
  Zn  Zn7       1.0  0.09530  0.52400  0.50000  1.0000
  Zn  Zn8       1.0  0.80700  0.97800  0.50000  1.0000
