data_image0
_chemical_formula_structural       Eu6Zn8
_chemical_formula_sum              "Eu6 Zn8"
_cell_length_a       8.77089
_cell_length_b       8.77245
_cell_length_c       5.05486
_cell_angle_alpha    90
_cell_angle_beta     90
_cell_angle_gamma    60.0208

_space_group_name_H-M_alt    "P 1"
_space_group_IT_number       1

loop_
  _space_group_symop_operation_xyz
  'x, y, z'

loop_
  _atom_site_type_symbol
  _atom_site_label
  _atom_site_symmetry_multiplicity
  _atom_site_fract_x
  _atom_site_fract_y
  _atom_site_fract_z
  _atom_site_occupancy
  Eu  Eu1       1.0  0.77400  0.40200  0.00000  1.0000
  Eu  Eu2       1.0  0.26000  0.53800  0.00000  1.0000
  Eu  Eu3       1.0  0.39500  0.91700  0.00000  1.0000
  Eu  Eu4       1.0  0.55800  0.32100  0.50000  1.0000
  Eu  Eu5       1.0  0.69300  0.70000  0.50000  1.0000
  Eu  Eu6       1.0  0.17800  0.83600  0.50000  1.0000
  Zn  Zn1       1.0  0.60900  0.11000  0.00000  1.0000
  Zn  Zn2       1.0  0.14300  0.28600  0.00000  1.0000
  Zn  Zn3       1.0  0.85200  0.75200  0.00000  1.0000
  Zn  Zn4       1.0  0.96700  0.99500  0.00000  1.0000
  Zn  Zn5       1.0  0.34300  0.12800  0.50000  1.0000
  Zn  Zn6       1.0  0.98500  0.24300  0.50000  1.0000
  Zn  Zn7       1.0  0.09990  0.48600  0.50000  1.0000
  Zn  Zn8       1.0  0.81000  0.95200  0.50000  1.0000
