data_image0
_chemical_formula_structural       Cr6Zn8
_chemical_formula_sum              "Cr6 Zn8"
_cell_length_a       6.93093
_cell_length_b       6.93112
_cell_length_c       4.33958
_cell_angle_alpha    90
_cell_angle_beta     90
_cell_angle_gamma    59.9995

_space_group_name_H-M_alt    "P 1"
_space_group_IT_number       1

loop_
  _space_group_symop_operation_xyz
  'x, y, z'

loop_
  _atom_site_type_symbol
  _atom_site_label
  _atom_site_symmetry_multiplicity
  _atom_site_fract_x
  _atom_site_fract_y
  _atom_site_fract_z
  _atom_site_occupancy
  Cr  Cr1       1.0  0.14900  0.30300  0.00000  1.0000
  Cr  Cr2       1.0  0.26200  0.57800  0.00000  1.0000
  Cr  Cr3       1.0  0.87500  0.69000  0.00000  1.0000
  Cr  Cr4       1.0  0.37500  0.07770  0.50000  1.0000
  Cr  Cr5       1.0  0.64900  0.69100  0.50000  1.0000
  Cr  Cr6       1.0  0.26200  0.80300  0.50000  1.0000
  Zn  Zn1       1.0  0.57100  0.13700  0.00000  1.0000
  Zn  Zn2       1.0  0.70800  0.43500  0.00000  1.0000
  Zn  Zn3       1.0  0.42900  0.85700  0.00000  1.0000
  Zn  Zn4       1.0  0.00633  0.00000  0.00000  1.0000
  Zn  Zn5       1.0  0.51700  0.38100  0.50000  1.0000
  Zn  Zn6       1.0  0.09520  0.52400  0.50000  1.0000
  Zn  Zn7       1.0  0.81500  0.94600  0.50000  1.0000
  Zn  Zn8       1.0  0.95300  0.24400  0.50000  1.0000
