data_image0
_chemical_formula_structural       Na6Zn8
_chemical_formula_sum              "Na6 Zn8"
_cell_length_a       8.27974
_cell_length_b       8.28112
_cell_length_c       4.77439
_cell_angle_alpha    90
_cell_angle_beta     90
_cell_angle_gamma    59.9914

_space_group_name_H-M_alt    "P 1"
_space_group_IT_number       1

loop_
  _space_group_symop_operation_xyz
  'x, y, z'

loop_
  _atom_site_type_symbol
  _atom_site_label
  _atom_site_symmetry_multiplicity
  _atom_site_fract_x
  _atom_site_fract_y
  _atom_site_fract_z
  _atom_site_occupancy
  Na  Na1       1.0  0.13000  0.27900  0.00000  1.0000
  Na  Na2       1.0  0.30500  0.55900  0.00000  1.0000
  Na  Na3       1.0  0.85100  0.73300  0.00000  1.0000
  Na  Na4       1.0  0.39400  0.10200  0.50000  1.0000
  Na  Na5       1.0  0.67300  0.64700  0.50000  1.0000
  Na  Na6       1.0  0.21900  0.82300  0.50000  1.0000
  Zn  Zn1       1.0  0.97400  0.02740  0.00000  1.0000
  Zn  Zn2       1.0  0.59900  0.14200  0.00000  1.0000
  Zn  Zn3       1.0  0.71400  0.40200  0.00000  1.0000
  Zn  Zn4       1.0  0.42900  0.85700  0.00000  1.0000
  Zn  Zn5       1.0  0.92500  0.23900  0.50000  1.0000
  Zn  Zn6       1.0  0.55000  0.35300  0.50000  1.0000
  Zn  Zn7       1.0  0.09540  0.52400  0.50000  1.0000
  Zn  Zn8       1.0  0.81000  0.97800  0.50000  1.0000
