data_image0
_chemical_formula_structural       Bi6Zn8
_chemical_formula_sum              "Bi6 Zn8"
_cell_length_a       8.9029
_cell_length_b       8.90254
_cell_length_c       4.78484
_cell_angle_alpha    90
_cell_angle_beta     90
_cell_angle_gamma    60.0031

_space_group_name_H-M_alt    "P 1"
_space_group_IT_number       1

loop_
  _space_group_symop_operation_xyz
  'x, y, z'

loop_
  _atom_site_type_symbol
  _atom_site_label
  _atom_site_symmetry_multiplicity
  _atom_site_fract_x
  _atom_site_fract_y
  _atom_site_fract_z
  _atom_site_occupancy
  Bi  Bi1       1.0  0.77800  0.39000  0.00000  1.0000
  Bi  Bi2       1.0  0.24700  0.54600  0.00000  1.0000
  Bi  Bi3       1.0  0.40300  0.92100  0.00000  1.0000
  Bi  Bi4       1.0  0.54900  0.31700  0.50000  1.0000
  Bi  Bi5       1.0  0.70500  0.69200  0.50000  1.0000
  Bi  Bi6       1.0  0.17500  0.84800  0.50000  1.0000
  Zn  Zn1       1.0  0.94800  0.01220  0.00000  1.0000
  Zn  Zn2       1.0  0.61100  0.09100  0.00000  1.0000
  Zn  Zn3       1.0  0.14300  0.28600  0.00000  1.0000
  Zn  Zn4       1.0  0.86900  0.75400  0.00000  1.0000
  Zn  Zn5       1.0  0.34100  0.14700  0.50000  1.0000
  Zn  Zn6       1.0  0.00430  0.22600  0.50000  1.0000
  Zn  Zn7       1.0  0.08300  0.48400  0.50000  1.0000
  Zn  Zn8       1.0  0.81000  0.95200  0.50000  1.0000
