data_image0
_chemical_formula_structural       Ce6Zn8
_chemical_formula_sum              "Ce6 Zn8"
_cell_length_a       9.12217
_cell_length_b       9.12124
_cell_length_c       4.71315
_cell_angle_alpha    90
_cell_angle_beta     90
_cell_angle_gamma    60.0013

_space_group_name_H-M_alt    "P 1"
_space_group_IT_number       1

loop_
  _space_group_symop_operation_xyz
  'x, y, z'

loop_
  _atom_site_type_symbol
  _atom_site_label
  _atom_site_symmetry_multiplicity
  _atom_site_fract_x
  _atom_site_fract_y
  _atom_site_fract_z
  _atom_site_occupancy
  Ce  Ce1       1.0  0.10900  0.27800  0.00000  1.0000
  Ce  Ce2       1.0  0.32700  0.53700  0.00000  1.0000
  Ce  Ce3       1.0  0.85000  0.75600  0.00000  1.0000
  Ce  Ce4       1.0  0.41500  0.10300  0.50000  1.0000
  Ce  Ce5       1.0  0.67400  0.62500  0.50000  1.0000
  Ce  Ce6       1.0  0.19700  0.84400  0.50000  1.0000
  Zn  Zn1       1.0  0.95400  0.03040  0.00000  1.0000
  Zn  Zn2       1.0  0.60200  0.15800  0.00000  1.0000
  Zn  Zn3       1.0  0.73000  0.38200  0.00000  1.0000
  Zn  Zn4       1.0  0.42900  0.85700  0.00000  1.0000
  Zn  Zn5       1.0  0.92200  0.22200  0.50000  1.0000
  Zn  Zn6       1.0  0.57000  0.35000  0.50000  1.0000
  Zn  Zn7       1.0  0.09530  0.52400  0.50000  1.0000
  Zn  Zn8       1.0  0.79400  0.99800  0.50000  1.0000
