data_image0
_chemical_formula_structural       Er6Zn8
_chemical_formula_sum              "Er6 Zn8"
_cell_length_a       8.58656
_cell_length_b       8.58655
_cell_length_c       4.61449
_cell_angle_alpha    90
_cell_angle_beta     90
_cell_angle_gamma    59.9976

_space_group_name_H-M_alt    "P 1"
_space_group_IT_number       1

loop_
  _space_group_symop_operation_xyz
  'x, y, z'

loop_
  _atom_site_type_symbol
  _atom_site_label
  _atom_site_symmetry_multiplicity
  _atom_site_fract_x
  _atom_site_fract_y
  _atom_site_fract_z
  _atom_site_occupancy
  Er  Er1       1.0  0.10600  0.28900  0.00000  1.0000
  Er  Er2       1.0  0.31900  0.53400  0.00000  1.0000
  Er  Er3       1.0  0.86100  0.74800  0.00000  1.0000
  Er  Er4       1.0  0.41800  0.09160  0.50000  1.0000
  Er  Er5       1.0  0.66300  0.63300  0.50000  1.0000
  Er  Er6       1.0  0.20500  0.84700  0.50000  1.0000
  Zn  Zn1       1.0  0.97300  0.01730  0.00000  1.0000
  Zn  Zn2       1.0  0.58900  0.15300  0.00000  1.0000
  Zn  Zn3       1.0  0.72400  0.40100  0.00000  1.0000
  Zn  Zn4       1.0  0.42900  0.85700  0.00000  1.0000
  Zn  Zn5       1.0  0.93500  0.22800  0.50000  1.0000
  Zn  Zn6       1.0  0.55100  0.36400  0.50000  1.0000
  Zn  Zn7       1.0  0.09520  0.52400  0.50000  1.0000
  Zn  Zn8       1.0  0.79900  0.98000  0.50000  1.0000
