data_image0
_chemical_formula_structural       Pd6Zn8
_chemical_formula_sum              "Pd6 Zn8"
_cell_length_a       7.27585
_cell_length_b       7.27598
_cell_length_c       4.44614
_cell_angle_alpha    90
_cell_angle_beta     90
_cell_angle_gamma    59.9987

_space_group_name_H-M_alt    "P 1"
_space_group_IT_number       1

loop_
  _space_group_symop_operation_xyz
  'x, y, z'

loop_
  _atom_site_type_symbol
  _atom_site_label
  _atom_site_symmetry_multiplicity
  _atom_site_fract_x
  _atom_site_fract_y
  _atom_site_fract_z
  _atom_site_occupancy
  Pd  Pd1       1.0  0.12500  0.28300  0.00000  1.0000
  Pd  Pd2       1.0  0.30600  0.55400  0.00000  1.0000
  Pd  Pd3       1.0  0.85400  0.73500  0.00000  1.0000
  Pd  Pd4       1.0  0.39800  0.09830  0.50000  1.0000
  Pd  Pd5       1.0  0.67000  0.64600  0.50000  1.0000
  Pd  Pd6       1.0  0.21800  0.82700  0.50000  1.0000
  Zn  Zn1       1.0  0.56300  0.14400  0.00000  1.0000
  Zn  Zn2       1.0  0.71500  0.43600  0.00000  1.0000
  Zn  Zn3       1.0  0.42900  0.85700  0.00000  1.0000
  Zn  Zn4       1.0  0.00761  0.99100  0.00000  1.0000
  Zn  Zn5       1.0  0.96100  0.23700  0.50000  1.0000
  Zn  Zn6       1.0  0.51600  0.39000  0.50000  1.0000
  Zn  Zn7       1.0  0.09520  0.52400  0.50000  1.0000
  Zn  Zn8       1.0  0.80800  0.94500  0.50000  1.0000
