data_image0
_chemical_formula_structural       Mo6Zn8
_chemical_formula_sum              "Mo6 Zn8"
_cell_length_a       7.42262
_cell_length_b       7.42292
_cell_length_c       4.49079
_cell_angle_alpha    90
_cell_angle_beta     90
_cell_angle_gamma    60.0034

_space_group_name_H-M_alt    "P 1"
_space_group_IT_number       1

loop_
  _space_group_symop_operation_xyz
  'x, y, z'

loop_
  _atom_site_type_symbol
  _atom_site_label
  _atom_site_symmetry_multiplicity
  _atom_site_fract_x
  _atom_site_fract_y
  _atom_site_fract_z
  _atom_site_occupancy
  Mo  Mo1       1.0  0.70000  0.44100  0.00000  1.0000
  Mo  Mo2       1.0  0.29800  0.57300  0.00000  1.0000
  Mo  Mo3       1.0  0.43000  0.84300  0.00000  1.0000
  Mo  Mo4       1.0  0.52200  0.39500  0.50000  1.0000
  Mo  Mo5       1.0  0.65400  0.66500  0.50000  1.0000
  Mo  Mo6       1.0  0.25200  0.79700  0.50000  1.0000
  Zn  Zn1       1.0  0.99600  0.00672  0.00000  1.0000
  Zn  Zn2       1.0  0.56900  0.13900  0.00000  1.0000
  Zn  Zn3       1.0  0.14300  0.28600  0.00000  1.0000
  Zn  Zn4       1.0  0.86400  0.71200  0.00000  1.0000
  Zn  Zn5       1.0  0.38300  0.09960  0.50000  1.0000
  Zn  Zn6       1.0  0.95700  0.23100  0.50000  1.0000
  Zn  Zn7       1.0  0.08860  0.52600  0.50000  1.0000
  Zn  Zn8       1.0  0.80900  0.95300  0.50000  1.0000
