data_image0
_chemical_formula_structural       Ni6Zn8
_chemical_formula_sum              "Ni6 Zn8"
_cell_length_a       6.86488
_cell_length_b       6.86531
_cell_length_c       4.25016
_cell_angle_alpha    90
_cell_angle_beta     90
_cell_angle_gamma    59.9955

_space_group_name_H-M_alt    "P 1"
_space_group_IT_number       1

loop_
  _space_group_symop_operation_xyz
  'x, y, z'

loop_
  _atom_site_type_symbol
  _atom_site_label
  _atom_site_symmetry_multiplicity
  _atom_site_fract_x
  _atom_site_fract_y
  _atom_site_fract_z
  _atom_site_occupancy
  Ni  Ni1       1.0  0.70900  0.42900  0.00000  1.0000
  Ni  Ni2       1.0  0.28600  0.57600  0.00000  1.0000
  Ni  Ni3       1.0  0.43400  0.85200  0.00000  1.0000
  Ni  Ni4       1.0  0.51900  0.38600  0.50000  1.0000
  Ni  Ni5       1.0  0.66700  0.66200  0.50000  1.0000
  Ni  Ni6       1.0  0.24300  0.80900  0.50000  1.0000
  Zn  Zn1       1.0  0.56300  0.16400  0.00000  1.0000
  Zn  Zn2       1.0  0.14300  0.28600  0.00000  1.0000
  Zn  Zn3       1.0  0.84400  0.70600  0.00000  1.0000
  Zn  Zn4       1.0  0.02140  0.98700  0.00000  1.0000
  Zn  Zn5       1.0  0.38900  0.07380  0.50000  1.0000
  Zn  Zn6       1.0  0.93100  0.25100  0.50000  1.0000
  Zn  Zn7       1.0  0.10800  0.53200  0.50000  1.0000
  Zn  Zn8       1.0  0.81000  0.95200  0.50000  1.0000
