data_image0
_chemical_formula_structural       Nb6Zn8
_chemical_formula_sum              "Nb6 Zn8"
_cell_length_a       7.51077
_cell_length_b       7.51054
_cell_length_c       4.60895
_cell_angle_alpha    90
_cell_angle_beta     90
_cell_angle_gamma    59.9975

_space_group_name_H-M_alt    "P 1"
_space_group_IT_number       1

loop_
  _space_group_symop_operation_xyz
  'x, y, z'

loop_
  _atom_site_type_symbol
  _atom_site_label
  _atom_site_symmetry_multiplicity
  _atom_site_fract_x
  _atom_site_fract_y
  _atom_site_fract_z
  _atom_site_occupancy
  Nb  Nb1       1.0  0.12900  0.28900  0.00000  1.0000
  Nb  Nb2       1.0  0.29600  0.55800  0.00000  1.0000
  Nb  Nb3       1.0  0.86000  0.72500  0.00000  1.0000
  Nb  Nb4       1.0  0.39400  0.09230  0.50000  1.0000
  Nb  Nb5       1.0  0.66400  0.65600  0.50000  1.0000
  Nb  Nb6       1.0  0.22800  0.82300  0.50000  1.0000
  Zn  Zn1       1.0  0.99700  0.00435  0.00000  1.0000
  Zn  Zn2       1.0  0.57600  0.14200  0.00000  1.0000
  Zn  Zn3       1.0  0.71300  0.42500  0.00000  1.0000
  Zn  Zn4       1.0  0.42900  0.85700  0.00000  1.0000
  Zn  Zn5       1.0  0.94800  0.23900  0.50000  1.0000
  Zn  Zn6       1.0  0.52700  0.37700  0.50000  1.0000
  Zn  Zn7       1.0  0.09520  0.52400  0.50000  1.0000
  Zn  Zn8       1.0  0.81000  0.95600  0.50000  1.0000
