data_image0
_chemical_formula_structural       Fe6Zn8
_chemical_formula_sum              "Fe6 Zn8"
_cell_length_a       6.94309
_cell_length_b       6.94328
_cell_length_c       4.25734
_cell_angle_alpha    90
_cell_angle_beta     90
_cell_angle_gamma    60.0027

_space_group_name_H-M_alt    "P 1"
_space_group_IT_number       1

loop_
  _space_group_symop_operation_xyz
  'x, y, z'

loop_
  _atom_site_type_symbol
  _atom_site_label
  _atom_site_symmetry_multiplicity
  _atom_site_fract_x
  _atom_site_fract_y
  _atom_site_fract_z
  _atom_site_occupancy
  Fe  Fe1       1.0  0.14600  0.29100  0.00000  1.0000
  Fe  Fe2       1.0  0.27800  0.57400  0.00000  1.0000
  Fe  Fe3       1.0  0.86200  0.70600  0.00000  1.0000
  Fe  Fe4       1.0  0.37800  0.09000  0.50000  1.0000
  Fe  Fe5       1.0  0.66100  0.67500  0.50000  1.0000
  Fe  Fe6       1.0  0.24600  0.80700  0.50000  1.0000
  Zn  Zn1       1.0  0.56500  0.14100  0.00000  1.0000
  Zn  Zn2       1.0  0.71300  0.43600  0.00000  1.0000
  Zn  Zn3       1.0  0.42900  0.85700  0.00000  1.0000
  Zn  Zn4       1.0  0.00777  0.99400  0.00000  1.0000
  Zn  Zn5       1.0  0.51600  0.38700  0.50000  1.0000
  Zn  Zn6       1.0  0.09520  0.52400  0.50000  1.0000
  Zn  Zn7       1.0  0.81100  0.94500  0.50000  1.0000
  Zn  Zn8       1.0  0.95900  0.24000  0.50000  1.0000
