data_image0
_chemical_formula_structural       Mn6Zn8
_chemical_formula_sum              "Mn6 Zn8"
_cell_length_a       7.08594
_cell_length_b       7.08582
_cell_length_c       4.33027
_cell_angle_alpha    90
_cell_angle_beta     90
_cell_angle_gamma    60.0013

_space_group_name_H-M_alt    "P 1"
_space_group_IT_number       1

loop_
  _space_group_symop_operation_xyz
  'x, y, z'

loop_
  _atom_site_type_symbol
  _atom_site_label
  _atom_site_symmetry_multiplicity
  _atom_site_fract_x
  _atom_site_fract_y
  _atom_site_fract_z
  _atom_site_occupancy
  Mn  Mn1       1.0  0.13100  0.29400  0.00000  1.0000
  Mn  Mn2       1.0  0.28900  0.56000  0.00000  1.0000
  Mn  Mn3       1.0  0.86500  0.71800  0.00000  1.0000
  Mn  Mn4       1.0  0.39300  0.08710  0.50000  1.0000
  Mn  Mn5       1.0  0.65800  0.66300  0.50000  1.0000
  Mn  Mn6       1.0  0.23400  0.82100  0.50000  1.0000
  Zn  Zn1       1.0  0.56500  0.14100  0.00000  1.0000
  Zn  Zn2       1.0  0.71200  0.43700  0.00000  1.0000
  Zn  Zn3       1.0  0.42900  0.85700  0.00000  1.0000
  Zn  Zn4       1.0  0.00874  0.99300  0.00000  1.0000
  Zn  Zn5       1.0  0.09530  0.52400  0.50000  1.0000
  Zn  Zn6       1.0  0.81200  0.94400  0.50000  1.0000
  Zn  Zn7       1.0  0.95900  0.24000  0.50000  1.0000
  Zn  Zn8       1.0  0.51500  0.38800  0.50000  1.0000
