data_image0
_chemical_formula_structural       Gd6Zn8
_chemical_formula_sum              "Gd6 Zn8"
_cell_length_a       8.38202
_cell_length_b       8.38032
_cell_length_c       5.15857
_cell_angle_alpha    90
_cell_angle_beta     90
_cell_angle_gamma    59.9907

_space_group_name_H-M_alt    "P 1"
_space_group_IT_number       1

loop_
  _space_group_symop_operation_xyz
  'x, y, z'

loop_
  _atom_site_type_symbol
  _atom_site_label
  _atom_site_symmetry_multiplicity
  _atom_site_fract_x
  _atom_site_fract_y
  _atom_site_fract_z
  _atom_site_occupancy
  Gd  Gd1       1.0  0.76100  0.41700  0.00000  1.0000
  Gd  Gd2       1.0  0.27400  0.53700  0.00000  1.0000
  Gd  Gd3       1.0  0.39400  0.90400  0.00000  1.0000
  Gd  Gd4       1.0  0.55900  0.33400  0.50000  1.0000
  Gd  Gd5       1.0  0.67900  0.70100  0.50000  1.0000
  Gd  Gd6       1.0  0.19100  0.82100  0.50000  1.0000
  Zn  Zn1       1.0  0.59700  0.12200  0.00000  1.0000
  Zn  Zn2       1.0  0.14300  0.28600  0.00000  1.0000
  Zn  Zn3       1.0  0.85200  0.74000  0.00000  1.0000
  Zn  Zn4       1.0  0.97900  0.99500  0.00000  1.0000
  Zn  Zn5       1.0  0.35500  0.11600  0.50000  1.0000
  Zn  Zn6       1.0  0.97300  0.24300  0.50000  1.0000
  Zn  Zn7       1.0  0.10000  0.49800  0.50000  1.0000
  Zn  Zn8       1.0  0.81000  0.95200  0.50000  1.0000
