data_image0
_chemical_formula_structural       Ba6Zn8
_chemical_formula_sum              "Ba6 Zn8"
_cell_length_a       10.0719
_cell_length_b       10.0779
_cell_length_c       5.42513
_cell_angle_alpha    90
_cell_angle_beta     90
_cell_angle_gamma    60.0299

_space_group_name_H-M_alt    "P 1"
_space_group_IT_number       1

loop_
  _space_group_symop_operation_xyz
  'x, y, z'

loop_
  _atom_site_type_symbol
  _atom_site_label
  _atom_site_symmetry_multiplicity
  _atom_site_fract_x
  _atom_site_fract_y
  _atom_site_fract_z
  _atom_site_occupancy
  Ba  Ba1       1.0  0.79200  0.35000  0.00000  1.0000
  Ba  Ba2       1.0  0.20600  0.57300  0.00000  1.0000
  Ba  Ba3       1.0  0.43000  0.93400  0.00000  1.0000
  Ba  Ba4       1.0  0.52200  0.30300  0.50000  1.0000
  Ba  Ba5       1.0  0.74600  0.66500  0.50000  1.0000
  Ba  Ba6       1.0  0.16100  0.88800  0.50000  1.0000
  Zn  Zn1       1.0  0.65300  0.09610  0.00000  1.0000
  Zn  Zn2       1.0  0.14300  0.28500  0.00000  1.0000
  Zn  Zn3       1.0  0.82200  0.79700  0.00000  1.0000
  Zn  Zn4       1.0  0.95300  0.96600  0.00000  1.0000
  Zn  Zn5       1.0  0.29900  0.14200  0.50000  1.0000
  Zn  Zn6       1.0  0.99900  0.27200  0.50000  1.0000
  Zn  Zn7       1.0  0.13000  0.44100  0.50000  1.0000
  Zn  Zn8       1.0  0.81000  0.95300  0.50000  1.0000
