data_image0
_chemical_formula_structural       Ho6Zn8
_chemical_formula_sum              "Ho6 Zn8"
_cell_length_a       8.25961
_cell_length_b       8.25734
_cell_length_c       5.10257
_cell_angle_alpha    90
_cell_angle_beta     90
_cell_angle_gamma    59.992

_space_group_name_H-M_alt    "P 1"
_space_group_IT_number       1

loop_
  _space_group_symop_operation_xyz
  'x, y, z'

loop_
  _atom_site_type_symbol
  _atom_site_label
  _atom_site_symmetry_multiplicity
  _atom_site_fract_x
  _atom_site_fract_y
  _atom_site_fract_z
  _atom_site_occupancy
  Ho  Ho1       1.0  0.75700  0.42100  0.00000  1.0000
  Ho  Ho2       1.0  0.27800  0.53600  0.00000  1.0000
  Ho  Ho3       1.0  0.39300  0.90000  0.00000  1.0000
  Ho  Ho4       1.0  0.55900  0.33800  0.50000  1.0000
  Ho  Ho5       1.0  0.67400  0.70200  0.50000  1.0000
  Ho  Ho6       1.0  0.19500  0.81700  0.50000  1.0000
  Zn  Zn1       1.0  0.59400  0.12300  0.00000  1.0000
  Zn  Zn2       1.0  0.14300  0.28600  0.00000  1.0000
  Zn  Zn3       1.0  0.85500  0.73600  0.00000  1.0000
  Zn  Zn4       1.0  0.98000  0.99800  0.00000  1.0000
  Zn  Zn5       1.0  0.35900  0.11500  0.50000  1.0000
  Zn  Zn6       1.0  0.97200  0.24000  0.50000  1.0000
  Zn  Zn7       1.0  0.09730  0.50200  0.50000  1.0000
  Zn  Zn8       1.0  0.81000  0.95200  0.50000  1.0000
