data_image0
_chemical_formula_structural       Ca6Zn8
_chemical_formula_sum              "Ca6 Zn8"
_cell_length_a       8.6226
_cell_length_b       8.62069
_cell_length_c       5.13883
_cell_angle_alpha    90
_cell_angle_beta     90
_cell_angle_gamma    60.0059

_space_group_name_H-M_alt    "P 1"
_space_group_IT_number       1

loop_
  _space_group_symop_operation_xyz
  'x, y, z'

loop_
  _atom_site_type_symbol
  _atom_site_label
  _atom_site_symmetry_multiplicity
  _atom_site_fract_x
  _atom_site_fract_y
  _atom_site_fract_z
  _atom_site_occupancy
  Ca  Ca1       1.0  0.76900  0.40500  0.00000  1.0000
  Ca  Ca2       1.0  0.26200  0.54100  0.00000  1.0000
  Ca  Ca3       1.0  0.39800  0.91100  0.00000  1.0000
  Ca  Ca4       1.0  0.55400  0.32700  0.50000  1.0000
  Ca  Ca5       1.0  0.69100  0.69700  0.50000  1.0000
  Ca  Ca6       1.0  0.18400  0.83400  0.50000  1.0000
  Zn  Zn1       1.0  0.60900  0.11700  0.00000  1.0000
  Zn  Zn2       1.0  0.14300  0.28500  0.00000  1.0000
  Zn  Zn3       1.0  0.84500  0.75200  0.00000  1.0000
  Zn  Zn4       1.0  0.97400  0.98800  0.00000  1.0000
  Zn  Zn5       1.0  0.34300  0.12100  0.50000  1.0000
  Zn  Zn6       1.0  0.97800  0.25000  0.50000  1.0000
  Zn  Zn7       1.0  0.10700  0.48600  0.50000  1.0000
  Zn  Zn8       1.0  0.81000  0.95200  0.50000  1.0000
