data_image0
_chemical_formula_structural       Ag6Zn8
_chemical_formula_sum              "Ag6 Zn8"
_cell_length_a       7.514
_cell_length_b       7.51402
_cell_length_c       4.57547
_cell_angle_alpha    90
_cell_angle_beta     90
_cell_angle_gamma    59.9992

_space_group_name_H-M_alt    "P 1"
_space_group_IT_number       1

loop_
  _space_group_symop_operation_xyz
  'x, y, z'

loop_
  _atom_site_type_symbol
  _atom_site_label
  _atom_site_symmetry_multiplicity
  _atom_site_fract_x
  _atom_site_fract_y
  _atom_site_fract_z
  _atom_site_occupancy
  Ag  Ag1       1.0  0.72900  0.42200  0.00000  1.0000
  Ag  Ag2       1.0  0.27900  0.56400  0.00000  1.0000
  Ag  Ag3       1.0  0.42100  0.87200  0.00000  1.0000
  Ag  Ag4       1.0  0.53200  0.36700  0.50000  1.0000
  Ag  Ag5       1.0  0.67300  0.67400  0.50000  1.0000
  Ag  Ag6       1.0  0.22400  0.81600  0.50000  1.0000
  Zn  Zn1       1.0  0.99200  0.00275  0.00000  1.0000
  Zn  Zn2       1.0  0.57700  0.13500  0.00000  1.0000
  Zn  Zn3       1.0  0.14300  0.28600  0.00000  1.0000
  Zn  Zn4       1.0  0.86000  0.71900  0.00000  1.0000
  Zn  Zn5       1.0  0.37600  0.10300  0.50000  1.0000
  Zn  Zn6       1.0  0.96000  0.23500  0.50000  1.0000
  Zn  Zn7       1.0  0.09250  0.51900  0.50000  1.0000
  Zn  Zn8       1.0  0.80900  0.95200  0.50000  1.0000
