data_image0
_chemical_formula_structural       Lu6Zn8
_chemical_formula_sum              "Lu6 Zn8"
_cell_length_a       8.10698
_cell_length_b       8.10774
_cell_length_c       5.18154
_cell_angle_alpha    90
_cell_angle_beta     90
_cell_angle_gamma    60.0071

_space_group_name_H-M_alt    "P 1"
_space_group_IT_number       1

loop_
  _space_group_symop_operation_xyz
  'x, y, z'

loop_
  _atom_site_type_symbol
  _atom_site_label
  _atom_site_symmetry_multiplicity
  _atom_site_fract_x
  _atom_site_fract_y
  _atom_site_fract_z
  _atom_site_occupancy
  Lu  Lu1       1.0  0.75000  0.42000  0.00000  1.0000
  Lu  Lu2       1.0  0.27700  0.54400  0.00000  1.0000
  Lu  Lu3       1.0  0.40100  0.89300  0.00000  1.0000
  Lu  Lu4       1.0  0.55100  0.34500  0.50000  1.0000
  Lu  Lu5       1.0  0.67500  0.69400  0.50000  1.0000
  Lu  Lu6       1.0  0.20200  0.81800  0.50000  1.0000
  Zn  Zn1       1.0  0.59000  0.13300  0.00000  1.0000
  Zn  Zn2       1.0  0.14300  0.28600  0.00000  1.0000
  Zn  Zn3       1.0  0.84800  0.73300  0.00000  1.0000
  Zn  Zn4       1.0  0.99000  0.99100  0.00000  1.0000
  Zn  Zn5       1.0  0.36200  0.10500  0.50000  1.0000
  Zn  Zn6       1.0  0.96200  0.24700  0.50000  1.0000
  Zn  Zn7       1.0  0.10400  0.50500  0.50000  1.0000
  Zn  Zn8       1.0  0.80900  0.95200  0.50000  1.0000
