data_image0
_chemical_formula_structural       Pb6Zn8
_chemical_formula_sum              "Pb6 Zn8"
_cell_length_a       8.58739
_cell_length_b       8.58168
_cell_length_c       5.09188
_cell_angle_alpha    90
_cell_angle_beta     90
_cell_angle_gamma    59.9641

_space_group_name_H-M_alt    "P 1"
_space_group_IT_number       1

loop_
  _space_group_symop_operation_xyz
  'x, y, z'

loop_
  _atom_site_type_symbol
  _atom_site_label
  _atom_site_symmetry_multiplicity
  _atom_site_fract_x
  _atom_site_fract_y
  _atom_site_fract_z
  _atom_site_occupancy
  Pb  Pb1       1.0  0.75400  0.41000  0.00000  1.0000
  Pb  Pb2       1.0  0.26800  0.55000  0.00000  1.0000
  Pb  Pb3       1.0  0.40700  0.89700  0.00000  1.0000
  Pb  Pb4       1.0  0.54600  0.34100  0.50000  1.0000
  Pb  Pb5       1.0  0.68500  0.68900  0.50000  1.0000
  Pb  Pb6       1.0  0.19800  0.82800  0.50000  1.0000
  Zn  Zn1       1.0  0.96300  0.00377  0.00000  1.0000
  Zn  Zn2       1.0  0.60500  0.10500  0.00000  1.0000
  Zn  Zn3       1.0  0.14300  0.28600  0.00000  1.0000
  Zn  Zn4       1.0  0.86100  0.74700  0.00000  1.0000
  Zn  Zn5       1.0  0.34700  0.13300  0.50000  1.0000
  Zn  Zn6       1.0  0.99000  0.23400  0.50000  1.0000
  Zn  Zn7       1.0  0.09140  0.49100  0.50000  1.0000
  Zn  Zn8       1.0  0.81000  0.95200  0.50000  1.0000
