data_image0
_chemical_formula_structural       Nd6Zn8
_chemical_formula_sum              "Nd6 Zn8"
_cell_length_a       8.97062
_cell_length_b       8.97082
_cell_length_c       4.66613
_cell_angle_alpha    90
_cell_angle_beta     90
_cell_angle_gamma    59.9986

_space_group_name_H-M_alt    "P 1"
_space_group_IT_number       1

loop_
  _space_group_symop_operation_xyz
  'x, y, z'

loop_
  _atom_site_type_symbol
  _atom_site_label
  _atom_site_symmetry_multiplicity
  _atom_site_fract_x
  _atom_site_fract_y
  _atom_site_fract_z
  _atom_site_occupancy
  Nd  Nd1       1.0  0.10800  0.28300  0.00000  1.0000
  Nd  Nd2       1.0  0.32400  0.53600  0.00000  1.0000
  Nd  Nd3       1.0  0.85400  0.75200  0.00000  1.0000
  Nd  Nd4       1.0  0.41600  0.09810  0.50000  1.0000
  Nd  Nd5       1.0  0.67000  0.62900  0.50000  1.0000
  Nd  Nd6       1.0  0.20000  0.84500  0.50000  1.0000
  Zn  Zn1       1.0  0.95900  0.02700  0.00000  1.0000
  Zn  Zn2       1.0  0.59900  0.15700  0.00000  1.0000
  Zn  Zn3       1.0  0.72800  0.38800  0.00000  1.0000
  Zn  Zn4       1.0  0.42900  0.85700  0.00000  1.0000
  Zn  Zn5       1.0  0.92500  0.22400  0.50000  1.0000
  Zn  Zn6       1.0  0.56500  0.35400  0.50000  1.0000
  Zn  Zn7       1.0  0.09530  0.52400  0.50000  1.0000
  Zn  Zn8       1.0  0.79600  0.99300  0.50000  1.0000
