data_image0
_chemical_formula_structural       Os6Zn8
_chemical_formula_sum              "Os6 Zn8"
_cell_length_a       7.1983
_cell_length_b       7.19911
_cell_length_c       4.44829
_cell_angle_alpha    90
_cell_angle_beta     90
_cell_angle_gamma    59.981

_space_group_name_H-M_alt    "P 1"
_space_group_IT_number       1

loop_
  _space_group_symop_operation_xyz
  'x, y, z'

loop_
  _atom_site_type_symbol
  _atom_site_label
  _atom_site_symmetry_multiplicity
  _atom_site_fract_x
  _atom_site_fract_y
  _atom_site_fract_z
  _atom_site_occupancy
  Os  Os1       1.0  0.70800  0.41700  0.00000  1.0000
  Os  Os2       1.0  0.27400  0.58900  0.00000  1.0000
  Os  Os3       1.0  0.44600  0.85100  0.00000  1.0000
  Os  Os4       1.0  0.50600  0.38700  0.50000  1.0000
  Os  Os5       1.0  0.67800  0.64900  0.50000  1.0000
  Os  Os6       1.0  0.24400  0.82100  0.50000  1.0000
  Zn  Zn1       1.0  0.01060  0.00226  0.00000  1.0000
  Zn  Zn2       1.0  0.55800  0.15400  0.00000  1.0000
  Zn  Zn3       1.0  0.14300  0.28600  0.00000  1.0000
  Zn  Zn4       1.0  0.86000  0.70100  0.00000  1.0000
  Zn  Zn5       1.0  0.39400  0.08460  0.50000  1.0000
  Zn  Zn6       1.0  0.94200  0.23600  0.50000  1.0000
  Zn  Zn7       1.0  0.09290  0.53700  0.50000  1.0000
  Zn  Zn8       1.0  0.81000  0.95200  0.50000  1.0000
