data_image0
_chemical_formula_structural       Hf6Zn8
_chemical_formula_sum              "Hf6 Zn8"
_cell_length_a       7.73677
_cell_length_b       7.73807
_cell_length_c       4.95125
_cell_angle_alpha    90
_cell_angle_beta     90
_cell_angle_gamma    59.9977

_space_group_name_H-M_alt    "P 1"
_space_group_IT_number       1

loop_
  _space_group_symop_operation_xyz
  'x, y, z'

loop_
  _atom_site_type_symbol
  _atom_site_label
  _atom_site_symmetry_multiplicity
  _atom_site_fract_x
  _atom_site_fract_y
  _atom_site_fract_z
  _atom_site_occupancy
  Hf  Hf1       1.0  0.73000  0.42500  0.00000  1.0000
  Hf  Hf2       1.0  0.28200  0.55900  0.00000  1.0000
  Hf  Hf3       1.0  0.41600  0.87300  0.00000  1.0000
  Hf  Hf4       1.0  0.53600  0.36500  0.50000  1.0000
  Hf  Hf5       1.0  0.67000  0.67900  0.50000  1.0000
  Hf  Hf6       1.0  0.22200  0.81300  0.50000  1.0000
  Zn  Zn1       1.0  0.58000  0.13700  0.00000  1.0000
  Zn  Zn2       1.0  0.14300  0.28600  0.00000  1.0000
  Zn  Zn3       1.0  0.85400  0.72300  0.00000  1.0000
  Zn  Zn4       1.0  0.99400  0.99700  0.00000  1.0000
  Zn  Zn5       1.0  0.37200  0.10100  0.50000  1.0000
  Zn  Zn6       1.0  0.95900  0.24100  0.50000  1.0000
  Zn  Zn7       1.0  0.09790  0.51500  0.50000  1.0000
  Zn  Zn8       1.0  0.80900  0.95200  0.50000  1.0000
