data_image0
_chemical_formula_structural       Tl6Zr8
_chemical_formula_sum              "Tl6 Zr8"
_cell_length_a       8.39719
_cell_length_b       8.39728
_cell_length_c       5.41773
_cell_angle_alpha    90
_cell_angle_beta     90
_cell_angle_gamma    59.9995

_space_group_name_H-M_alt    "P 1"
_space_group_IT_number       1

loop_
  _space_group_symop_operation_xyz
  'x, y, z'

loop_
  _atom_site_type_symbol
  _atom_site_label
  _atom_site_symmetry_multiplicity
  _atom_site_fract_x
  _atom_site_fract_y
  _atom_site_fract_z
  _atom_site_occupancy
  Tl  Tl1       1.0  0.72300  0.42000  0.00000  1.0000
  Tl  Tl2       1.0  0.27700  0.57100  0.00000  1.0000
  Tl  Tl3       1.0  0.42900  0.86600  0.00000  1.0000
  Tl  Tl4       1.0  0.52400  0.37200  0.50000  1.0000
  Tl  Tl5       1.0  0.67600  0.66700  0.50000  1.0000
  Tl  Tl6       1.0  0.22900  0.81800  0.50000  1.0000
  Zr  Zr1       1.0  0.57300  0.14700  0.00000  1.0000
  Zr  Zr2       1.0  0.14300  0.28600  0.00000  1.0000
  Zr  Zr3       1.0  0.85200  0.71500  0.00000  1.0000
  Zr  Zr4       1.0  0.00409  0.99500  0.00000  1.0000
  Zr  Zr5       1.0  0.38000  0.09110  0.50000  1.0000
  Zr  Zr6       1.0  0.94800  0.24300  0.50000  1.0000
  Zr  Zr7       1.0  0.10000  0.52300  0.50000  1.0000
  Zr  Zr8       1.0  0.81000  0.95200  0.50000  1.0000
