data_image0
_chemical_formula_structural       Cs6Zn8
_chemical_formula_sum              "Cs6 Zn8"
_cell_length_a       11.811
_cell_length_b       11.814
_cell_length_c       4.7391
_cell_angle_alpha    90
_cell_angle_beta     90
_cell_angle_gamma    59.9542

_space_group_name_H-M_alt    "P 1"
_space_group_IT_number       1

loop_
  _space_group_symop_operation_xyz
  'x, y, z'

loop_
  _atom_site_type_symbol
  _atom_site_label
  _atom_site_symmetry_multiplicity
  _atom_site_fract_x
  _atom_site_fract_y
  _atom_site_fract_z
  _atom_site_occupancy
  Cs  Cs1       1.0  0.08580  0.26900  0.00000  1.0000
  Cs  Cs2       1.0  0.35900  0.51400  0.00000  1.0000
  Cs  Cs3       1.0  0.84100  0.78800  0.00000  1.0000
  Cs  Cs4       1.0  0.43800  0.11200  0.50000  1.0000
  Cs  Cs5       1.0  0.68300  0.59300  0.50000  1.0000
  Cs  Cs6       1.0  0.16500  0.86700  0.50000  1.0000
  Zn  Zn1       1.0  0.90600  0.07320  0.00000  1.0000
  Zn  Zn2       1.0  0.64400  0.16400  0.00000  1.0000
  Zn  Zn3       1.0  0.73500  0.33400  0.00000  1.0000
  Zn  Zn4       1.0  0.42900  0.85700  0.00000  1.0000
  Zn  Zn5       1.0  0.78800  0.04650  0.50000  1.0000
  Zn  Zn6       1.0  0.87900  0.21700  0.50000  1.0000
  Zn  Zn7       1.0  0.61800  0.30800  0.50000  1.0000
  Zn  Zn8       1.0  0.09530  0.52400  0.50000  1.0000
