data_image0
_chemical_formula_structural       Sb6Zn8
_chemical_formula_sum              "Sb6 Zn8"
_cell_length_a       8.35475
_cell_length_b       8.35307
_cell_length_c       4.99907
_cell_angle_alpha    90
_cell_angle_beta     90
_cell_angle_gamma    59.9919

_space_group_name_H-M_alt    "P 1"
_space_group_IT_number       1

loop_
  _space_group_symop_operation_xyz
  'x, y, z'

loop_
  _atom_site_type_symbol
  _atom_site_label
  _atom_site_symmetry_multiplicity
  _atom_site_fract_x
  _atom_site_fract_y
  _atom_site_fract_z
  _atom_site_occupancy
  Sb  Sb1       1.0  0.77300  0.39700  0.00000  1.0000
  Sb  Sb2       1.0  0.25400  0.54400  0.00000  1.0000
  Sb  Sb3       1.0  0.40100  0.91600  0.00000  1.0000
  Sb  Sb4       1.0  0.55100  0.32200  0.50000  1.0000
  Sb  Sb5       1.0  0.69800  0.69400  0.50000  1.0000
  Sb  Sb6       1.0  0.18000  0.84100  0.50000  1.0000
  Zn  Zn1       1.0  0.60000  0.11800  0.00000  1.0000
  Zn  Zn2       1.0  0.14300  0.28600  0.00000  1.0000
  Zn  Zn3       1.0  0.85300  0.74300  0.00000  1.0000
  Zn  Zn4       1.0  0.97500  0.99600  0.00000  1.0000
  Zn  Zn5       1.0  0.35200  0.12000  0.50000  1.0000
  Zn  Zn6       1.0  0.97700  0.24200  0.50000  1.0000
  Zn  Zn7       1.0  0.09930  0.49500  0.50000  1.0000
  Zn  Zn8       1.0  0.81000  0.95200  0.50000  1.0000
