data_image0
_chemical_formula_structural       V6Zr8
_chemical_formula_sum              "V6 Zr8"
_cell_length_a       8.01933
_cell_length_b       8.02353
_cell_length_c       4.8417
_cell_angle_alpha    90
_cell_angle_beta     90
_cell_angle_gamma    60.1114

_space_group_name_H-M_alt    "P 1"
_space_group_IT_number       1

loop_
  _space_group_symop_operation_xyz
  'x, y, z'

loop_
  _atom_site_type_symbol
  _atom_site_label
  _atom_site_symmetry_multiplicity
  _atom_site_fract_x
  _atom_site_fract_y
  _atom_site_fract_z
  _atom_site_occupancy
  V   V1        1.0  0.67100  0.46200  0.00000  1.0000
  V   V2        1.0  0.32000  0.58100  0.00000  1.0000
  V   V3        1.0  0.43800  0.81400  0.00000  1.0000
  V   V4        1.0  0.51400  0.42400  0.50000  1.0000
  V   V5        1.0  0.63200  0.65700  0.50000  1.0000
  V   V6        1.0  0.28100  0.77600  0.50000  1.0000
  Zr  Zr1       1.0  0.56700  0.18000  0.00000  1.0000
  Zr  Zr2       1.0  0.14300  0.28600  0.00000  1.0000
  Zr  Zr3       1.0  0.82400  0.71000  0.00000  1.0000
  Zr  Zr4       1.0  0.03770  0.96700  0.00000  1.0000
  Zr  Zr5       1.0  0.38500  0.05780  0.50000  1.0000
  Zr  Zr6       1.0  0.91500  0.27200  0.50000  1.0000
  Zr  Zr7       1.0  0.12900  0.52800  0.50000  1.0000
  Zr  Zr8       1.0  0.80900  0.95200  0.50000  1.0000
