data_image0
_chemical_formula_structural       Al6Zn8
_chemical_formula_sum              "Al6 Zn8"
_cell_length_a       7.35128
_cell_length_b       7.35121
_cell_length_c       4.71997
_cell_angle_alpha    90
_cell_angle_beta     90
_cell_angle_gamma    59.9941

_space_group_name_H-M_alt    "P 1"
_space_group_IT_number       1

loop_
  _space_group_symop_operation_xyz
  'x, y, z'

loop_
  _atom_site_type_symbol
  _atom_site_label
  _atom_site_symmetry_multiplicity
  _atom_site_fract_x
  _atom_site_fract_y
  _atom_site_fract_z
  _atom_site_occupancy
  Al  Al1       1.0  0.13800  0.28500  0.00000  1.0000
  Al  Al2       1.0  0.29100  0.56700  0.00000  1.0000
  Al  Al3       1.0  0.85700  0.71900  0.00000  1.0000
  Al  Al4       1.0  0.38500  0.09560  0.50000  1.0000
  Al  Al5       1.0  0.66700  0.66200  0.50000  1.0000
  Al  Al6       1.0  0.23300  0.81400  0.50000  1.0000
  Zn  Zn1       1.0  0.57100  0.14400  0.00000  1.0000
  Zn  Zn2       1.0  0.71500  0.42800  0.00000  1.0000
  Zn  Zn3       1.0  0.42900  0.85700  0.00000  1.0000
  Zn  Zn4       1.0  1.00000  0.00000  0.00000  1.0000
  Zn  Zn5       1.0  0.95300  0.23700  0.50000  1.0000
  Zn  Zn6       1.0  0.52400  0.38100  0.50000  1.0000
  Zn  Zn7       1.0  0.09520  0.52400  0.50000  1.0000
  Zn  Zn8       1.0  0.80900  0.95300  0.50000  1.0000
