data_image0
_chemical_formula_structural       Yb6Zr8
_chemical_formula_sum              "Yb6 Zr8"
_cell_length_a       9.06909
_cell_length_b       9.06847
_cell_length_c       5.30284
_cell_angle_alpha    90
_cell_angle_beta     90
_cell_angle_gamma    59.9992

_space_group_name_H-M_alt    "P 1"
_space_group_IT_number       1

loop_
  _space_group_symop_operation_xyz
  'x, y, z'

loop_
  _atom_site_type_symbol
  _atom_site_label
  _atom_site_symmetry_multiplicity
  _atom_site_fract_x
  _atom_site_fract_y
  _atom_site_fract_z
  _atom_site_occupancy
  Yb  Yb1       1.0  0.73800  0.42200  0.00000  1.0000
  Yb  Yb2       1.0  0.27900  0.55400  0.00000  1.0000
  Yb  Yb3       1.0  0.41100  0.88100  0.00000  1.0000
  Yb  Yb4       1.0  0.54100  0.35700  0.50000  1.0000
  Yb  Yb5       1.0  0.67300  0.68400  0.50000  1.0000
  Yb  Yb6       1.0  0.21400  0.81600  0.50000  1.0000
  Zr  Zr1       1.0  0.96700  0.01410  0.00000  1.0000
  Zr  Zr2       1.0  0.59100  0.11000  0.00000  1.0000
  Zr  Zr3       1.0  0.14300  0.28600  0.00000  1.0000
  Zr  Zr4       1.0  0.87100  0.73400  0.00000  1.0000
  Zr  Zr5       1.0  0.36200  0.12900  0.50000  1.0000
  Zr  Zr6       1.0  0.98600  0.22400  0.50000  1.0000
  Zr  Zr7       1.0  0.08120  0.50500  0.50000  1.0000
  Zr  Zr8       1.0  0.81000  0.95200  0.50000  1.0000
