data_image0
_chemical_formula_structural       Au6Zn8
_chemical_formula_sum              "Au6 Zn8"
_cell_length_a       7.49591
_cell_length_b       7.49601
_cell_length_c       4.60949
_cell_angle_alpha    90
_cell_angle_beta     90
_cell_angle_gamma    59.9914

_space_group_name_H-M_alt    "P 1"
_space_group_IT_number       1

loop_
  _space_group_symop_operation_xyz
  'x, y, z'

loop_
  _atom_site_type_symbol
  _atom_site_label
  _atom_site_symmetry_multiplicity
  _atom_site_fract_x
  _atom_site_fract_y
  _atom_site_fract_z
  _atom_site_occupancy
  Au  Au1       1.0  0.12500  0.28000  0.00000  1.0000
  Au  Au2       1.0  0.30900  0.55400  0.00000  1.0000
  Au  Au3       1.0  0.85200  0.73700  0.00000  1.0000
  Au  Au4       1.0  0.39900  0.10100  0.50000  1.0000
  Au  Au5       1.0  0.67200  0.64400  0.50000  1.0000
  Au  Au6       1.0  0.21500  0.82700  0.50000  1.0000
  Zn  Zn1       1.0  0.99700  0.00033  0.00000  1.0000
  Zn  Zn2       1.0  0.57200  0.14500  0.00000  1.0000
  Zn  Zn3       1.0  0.71700  0.42600  0.00000  1.0000
  Zn  Zn4       1.0  0.42900  0.85700  0.00000  1.0000
  Zn  Zn5       1.0  0.95200  0.23600  0.50000  1.0000
  Zn  Zn6       1.0  0.52700  0.38100  0.50000  1.0000
  Zn  Zn7       1.0  0.09520  0.52400  0.50000  1.0000
  Zn  Zn8       1.0  0.80700  0.95500  0.50000  1.0000
