data_image0
_chemical_formula_structural       Si6Zn8
_chemical_formula_sum              "Si6 Zn8"
_cell_length_a       7.36381
_cell_length_b       7.36314
_cell_length_c       4.55869
_cell_angle_alpha    90
_cell_angle_beta     90
_cell_angle_gamma    59.992

_space_group_name_H-M_alt    "P 1"
_space_group_IT_number       1

loop_
  _space_group_symop_operation_xyz
  'x, y, z'

loop_
  _atom_site_type_symbol
  _atom_site_label
  _atom_site_symmetry_multiplicity
  _atom_site_fract_x
  _atom_site_fract_y
  _atom_site_fract_z
  _atom_site_occupancy
  Si  Si1       1.0  0.15300  0.28600  0.00000  1.0000
  Si  Si2       1.0  0.27500  0.58200  0.00000  1.0000
  Si  Si3       1.0  0.85800  0.70300  0.00000  1.0000
  Si  Si4       1.0  0.37100  0.09460  0.50000  1.0000
  Si  Si5       1.0  0.66600  0.67800  0.50000  1.0000
  Si  Si6       1.0  0.24900  0.79900  0.50000  1.0000
  Zn  Zn1       1.0  0.00142  0.00979  0.00000  1.0000
  Zn  Zn2       1.0  0.58100  0.13200  0.00000  1.0000
  Zn  Zn3       1.0  0.70300  0.43000  0.00000  1.0000
  Zn  Zn4       1.0  0.42900  0.85700  0.00000  1.0000
  Zn  Zn5       1.0  0.94200  0.24900  0.50000  1.0000
  Zn  Zn6       1.0  0.52200  0.37100  0.50000  1.0000
  Zn  Zn7       1.0  0.09510  0.52400  0.50000  1.0000
  Zn  Zn8       1.0  0.82100  0.95100  0.50000  1.0000
