data_image0
_chemical_formula_structural       Ir6Zn8
_chemical_formula_sum              "Ir6 Zn8"
_cell_length_a       7.1995
_cell_length_b       7.1993
_cell_length_c       4.43278
_cell_angle_alpha    90
_cell_angle_beta     90
_cell_angle_gamma    59.9984

_space_group_name_H-M_alt    "P 1"
_space_group_IT_number       1

loop_
  _space_group_symop_operation_xyz
  'x, y, z'

loop_
  _atom_site_type_symbol
  _atom_site_label
  _atom_site_symmetry_multiplicity
  _atom_site_fract_x
  _atom_site_fract_y
  _atom_site_fract_z
  _atom_site_occupancy
  Ir  Ir1       1.0  0.13800  0.28400  0.00000  1.0000
  Ir  Ir2       1.0  0.29200  0.56700  0.00000  1.0000
  Ir  Ir3       1.0  0.85500  0.72100  0.00000  1.0000
  Ir  Ir4       1.0  0.38600  0.09740  0.50000  1.0000
  Ir  Ir5       1.0  0.66900  0.66000  0.50000  1.0000
  Ir  Ir6       1.0  0.23100  0.81400  0.50000  1.0000
  Zn  Zn1       1.0  0.56300  0.14700  0.00000  1.0000
  Zn  Zn2       1.0  0.71800  0.43300  0.00000  1.0000
  Zn  Zn3       1.0  0.42900  0.85700  0.00000  1.0000
  Zn  Zn4       1.0  0.00463  0.99100  0.00000  1.0000
  Zn  Zn5       1.0  0.96100  0.23400  0.50000  1.0000
  Zn  Zn6       1.0  0.51900  0.39000  0.50000  1.0000
  Zn  Zn7       1.0  0.09530  0.52400  0.50000  1.0000
  Zn  Zn8       1.0  0.80600  0.94800  0.50000  1.0000
