data_image0
_chemical_formula_structural       Tm6Zr8
_chemical_formula_sum              "Tm6 Zr8"
_cell_length_a       8.89091
_cell_length_b       8.8905
_cell_length_c       5.28446
_cell_angle_alpha    90
_cell_angle_beta     90
_cell_angle_gamma    59.9919

_space_group_name_H-M_alt    "P 1"
_space_group_IT_number       1

loop_
  _space_group_symop_operation_xyz
  'x, y, z'

loop_
  _atom_site_type_symbol
  _atom_site_label
  _atom_site_symmetry_multiplicity
  _atom_site_fract_x
  _atom_site_fract_y
  _atom_site_fract_z
  _atom_site_occupancy
  Tm  Tm1       1.0  0.72700  0.42000  0.00000  1.0000
  Tm  Tm2       1.0  0.27700  0.56600  0.00000  1.0000
  Tm  Tm3       1.0  0.42400  0.87000  0.00000  1.0000
  Tm  Tm4       1.0  0.52900  0.36800  0.50000  1.0000
  Tm  Tm5       1.0  0.67500  0.67200  0.50000  1.0000
  Tm  Tm6       1.0  0.22500  0.81800  0.50000  1.0000
  Zr  Zr1       1.0  0.98300  0.00803  0.00000  1.0000
  Zr  Zr2       1.0  0.58000  0.12600  0.00000  1.0000
  Zr  Zr3       1.0  0.14300  0.28600  0.00000  1.0000
  Zr  Zr4       1.0  0.86500  0.72300  0.00000  1.0000
  Zr  Zr5       1.0  0.37200  0.11200  0.50000  1.0000
  Zr  Zr6       1.0  0.96900  0.23000  0.50000  1.0000
  Zr  Zr7       1.0  0.08710  0.51500  0.50000  1.0000
  Zr  Zr8       1.0  0.81000  0.95200  0.50000  1.0000
