data_image0
_chemical_formula_structural       Sn6Zn8
_chemical_formula_sum              "Sn6 Zn8"
_cell_length_a       8.3169
_cell_length_b       8.31664
_cell_length_c       4.93598
_cell_angle_alpha    90
_cell_angle_beta     90
_cell_angle_gamma    59.9921

_space_group_name_H-M_alt    "P 1"
_space_group_IT_number       1

loop_
  _space_group_symop_operation_xyz
  'x, y, z'

loop_
  _atom_site_type_symbol
  _atom_site_label
  _atom_site_symmetry_multiplicity
  _atom_site_fract_x
  _atom_site_fract_y
  _atom_site_fract_z
  _atom_site_occupancy
  Sn  Sn1       1.0  0.75000  0.41200  0.00000  1.0000
  Sn  Sn2       1.0  0.26900  0.55200  0.00000  1.0000
  Sn  Sn3       1.0  0.40900  0.89300  0.00000  1.0000
  Sn  Sn4       1.0  0.54300  0.34500  0.50000  1.0000
  Sn  Sn5       1.0  0.68300  0.68600  0.50000  1.0000
  Sn  Sn6       1.0  0.20200  0.82600  0.50000  1.0000
  Zn  Zn1       1.0  0.96900  0.00499  0.00000  1.0000
  Zn  Zn2       1.0  0.59800  0.11200  0.00000  1.0000
  Zn  Zn3       1.0  0.14300  0.28600  0.00000  1.0000
  Zn  Zn4       1.0  0.86200  0.74000  0.00000  1.0000
  Zn  Zn5       1.0  0.35500  0.12600  0.50000  1.0000
  Zn  Zn6       1.0  0.98300  0.23300  0.50000  1.0000
  Zn  Zn7       1.0  0.09010  0.49800  0.50000  1.0000
  Zn  Zn8       1.0  0.80900  0.95300  0.50000  1.0000
