data_image0
_chemical_formula_structural       Rb6Zn8
_chemical_formula_sum              "Rb6 Zn8"
_cell_length_a       10.323
_cell_length_b       10.3302
_cell_length_c       5.62544
_cell_angle_alpha    90
_cell_angle_beta     90
_cell_angle_gamma    60.1016

_space_group_name_H-M_alt    "P 1"
_space_group_IT_number       1

loop_
  _space_group_symop_operation_xyz
  'x, y, z'

loop_
  _atom_site_type_symbol
  _atom_site_label
  _atom_site_symmetry_multiplicity
  _atom_site_fract_x
  _atom_site_fract_y
  _atom_site_fract_z
  _atom_site_occupancy
  Rb  Rb1       1.0  0.78100  0.37500  0.00000  1.0000
  Rb  Rb2       1.0  0.23200  0.55800  0.00000  1.0000
  Rb  Rb3       1.0  0.41500  0.92400  0.00000  1.0000
  Rb  Rb4       1.0  0.53700  0.31400  0.50000  1.0000
  Rb  Rb5       1.0  0.72000  0.68000  0.50000  1.0000
  Rb  Rb6       1.0  0.17100  0.86300  0.50000  1.0000
  Zn  Zn1       1.0  0.64900  0.07970  0.00000  1.0000
  Zn  Zn2       1.0  0.14300  0.28600  0.00000  1.0000
  Zn  Zn3       1.0  0.84200  0.79300  0.00000  1.0000
  Zn  Zn4       1.0  0.93700  0.98500  0.00000  1.0000
  Zn  Zn5       1.0  0.30300  0.15800  0.50000  1.0000
  Zn  Zn6       1.0  0.01520  0.25300  0.50000  1.0000
  Zn  Zn7       1.0  0.11000  0.44600  0.50000  1.0000
  Zn  Zn8       1.0  0.81000  0.95200  0.50000  1.0000
