data_image0
_chemical_formula_structural       Dy6Zn8
_chemical_formula_sum              "Dy6 Zn8"
_cell_length_a       8.28373
_cell_length_b       8.27875
_cell_length_c       5.20308
_cell_angle_alpha    90
_cell_angle_beta     90
_cell_angle_gamma    59.9829

_space_group_name_H-M_alt    "P 1"
_space_group_IT_number       1

loop_
  _space_group_symop_operation_xyz
  'x, y, z'

loop_
  _atom_site_type_symbol
  _atom_site_label
  _atom_site_symmetry_multiplicity
  _atom_site_fract_x
  _atom_site_fract_y
  _atom_site_fract_z
  _atom_site_occupancy
  Dy  Dy1       1.0  0.75700  0.41700  0.00000  1.0000
  Dy  Dy2       1.0  0.27500  0.54000  0.00000  1.0000
  Dy  Dy3       1.0  0.39700  0.90000  0.00000  1.0000
  Dy  Dy4       1.0  0.55500  0.33800  0.50000  1.0000
  Dy  Dy5       1.0  0.67800  0.69800  0.50000  1.0000
  Dy  Dy6       1.0  0.19600  0.82100  0.50000  1.0000
  Zn  Zn1       1.0  0.59600  0.12700  0.00000  1.0000
  Zn  Zn2       1.0  0.14200  0.28600  0.00000  1.0000
  Zn  Zn3       1.0  0.84800  0.73900  0.00000  1.0000
  Zn  Zn4       1.0  0.98400  0.99100  0.00000  1.0000
  Zn  Zn5       1.0  0.35600  0.11100  0.50000  1.0000
  Zn  Zn6       1.0  0.96800  0.24700  0.50000  1.0000
  Zn  Zn7       1.0  0.10400  0.49900  0.50000  1.0000
  Zn  Zn8       1.0  0.81000  0.95200  0.50000  1.0000
