data_image0
_chemical_formula_structural       O11V4
_chemical_formula_sum              "O11 V4"
_cell_length_a       10.2824
_cell_length_b       5.14564
_cell_length_c       4.59204
_cell_angle_alpha    101.494
_cell_angle_beta     101.299
_cell_angle_gamma    120.56

_space_group_name_H-M_alt    "P 1"
_space_group_IT_number       1

loop_
  _space_group_symop_operation_xyz
  'x, y, z'

loop_
  _atom_site_type_symbol
  _atom_site_label
  _atom_site_symmetry_multiplicity
  _atom_site_fract_x
  _atom_site_fract_y
  _atom_site_fract_z
  _atom_site_occupancy
  O   O1        1.0  0.98700  0.57300  0.22800  1.0000
  O   O2        1.0  0.30600  0.03330  0.23200  1.0000
  O   O3        1.0  0.59500  0.17400  0.23400  1.0000
  O   O4        1.0  0.79000  0.97700  0.24300  1.0000
  O   O5        1.0  0.09090  0.17700  0.27600  1.0000
  O   O6        1.0  0.38900  0.77200  0.71100  1.0000
  O   O7        1.0  0.70000  0.01110  0.72100  1.0000
  O   O8        1.0  0.89900  0.80700  0.74300  1.0000
  O   O9        1.0  0.20800  0.05350  0.78800  1.0000
  O   O10       1.0  0.02430  0.43600  0.81000  1.0000
  O   O11       1.0  0.51400  0.44600  0.85600  1.0000
  V   V1        1.0  0.92700  0.15900  0.05370  1.0000
  V   V2        1.0  0.59800  0.86300  0.95100  1.0000
  V   V3        1.0  0.06690  0.83700  0.96500  1.0000
  V   V4        1.0  0.41800  0.10000  0.97100  1.0000
