data_image0
_chemical_formula_structural       Fe2Li3O6
_chemical_formula_sum              "Fe2 Li3 O6"
_cell_length_a       4.9536
_cell_length_b       4.9536
_cell_length_c       4.95201
_cell_angle_alpha    99.4792
_cell_angle_beta     99.4792
_cell_angle_gamma    120.289

_space_group_name_H-M_alt    "P 1"
_space_group_IT_number       1

loop_
  _space_group_symop_operation_xyz
  'x, y, z'

loop_
  _atom_site_type_symbol
  _atom_site_label
  _atom_site_symmetry_multiplicity
  _atom_site_fract_x
  _atom_site_fract_y
  _atom_site_fract_z
  _atom_site_occupancy
  Fe  Fe1       1.0  0.83300  0.16700  0.00000  1.0000
  Fe  Fe2       1.0  0.16700  0.83300  0.00000  1.0000
  Li  Li1       1.0  0.00000  0.00000  0.50000  1.0000
  Li  Li2       1.0  0.65000  0.35000  0.50000  1.0000
  Li  Li3       1.0  0.35000  0.65000  0.50000  1.0000
  O   O1        1.0  0.95600  0.58100  0.23500  1.0000
  O   O2        1.0  0.58100  0.95600  0.23500  1.0000
  O   O3        1.0  0.20900  0.20900  0.23500  1.0000
  O   O4        1.0  0.79100  0.79100  0.76500  1.0000
  O   O5        1.0  0.41900  0.04440  0.76500  1.0000
  O   O6        1.0  0.04440  0.41900  0.76500  1.0000
