data_image0
_chemical_formula_structural       Ce2SSb2
_chemical_formula_sum              "Ce2 S1 Sb2"
_cell_length_a       4.34261
_cell_length_b       4.53368
_cell_length_c       8.29126
_cell_angle_alpha    92.2142
_cell_angle_beta     104.775
_cell_angle_gamma    90.0383

_space_group_name_H-M_alt    "P 1"
_space_group_IT_number       1

loop_
  _space_group_symop_operation_xyz
  'x, y, z'

loop_
  _atom_site_type_symbol
  _atom_site_label
  _atom_site_symmetry_multiplicity
  _atom_site_fract_x
  _atom_site_fract_y
  _atom_site_fract_z
  _atom_site_occupancy
  Ce  Ce1       1.0  0.24800  0.36500  0.18700  1.0000
  Ce  Ce2       1.0  0.96900  0.92800  0.61800  1.0000
  S   S1        1.0  0.42800  0.42900  0.55700  1.0000
  Sb  Sb1       1.0  0.76500  0.86700  0.22100  1.0000
  Sb  Sb2       1.0  0.60700  0.15000  0.89900  1.0000
