data_image0
_chemical_formula_structural       Fe4O11
_chemical_formula_sum              "Fe4 O11"
_cell_length_a       9.97957
_cell_length_b       4.97081
_cell_length_c       4.73376
_cell_angle_alpha    106.844
_cell_angle_beta     106.226
_cell_angle_gamma    120.753

_space_group_name_H-M_alt    "P 1"
_space_group_IT_number       1

loop_
  _space_group_symop_operation_xyz
  'x, y, z'

loop_
  _atom_site_type_symbol
  _atom_site_label
  _atom_site_symmetry_multiplicity
  _atom_site_fract_x
  _atom_site_fract_y
  _atom_site_fract_z
  _atom_site_occupancy
  Fe  Fe1       1.0  0.09620  0.82100  0.00433  1.0000
  Fe  Fe2       1.0  0.41800  0.14700  0.00480  1.0000
  Fe  Fe3       1.0  0.90400  0.15900  0.96600  1.0000
  Fe  Fe4       1.0  0.56800  0.83300  0.98700  1.0000
  O   O1        1.0  0.80400  0.99000  0.21100  1.0000
  O   O2        1.0  0.63900  0.27600  0.24500  1.0000
  O   O3        1.0  0.01160  0.63300  0.25400  1.0000
  O   O4        1.0  0.32800  0.99100  0.27000  1.0000
  O   O5        1.0  0.51300  0.68300  0.31800  1.0000
  O   O6        1.0  0.64000  0.93700  0.65200  1.0000
  O   O7        1.0  0.99200  0.33900  0.71400  1.0000
  O   O8        1.0  0.34700  0.69500  0.73100  1.0000
  O   O9        1.0  0.49900  0.36800  0.76900  1.0000
  O   O10       1.0  0.90100  0.78700  0.81000  1.0000
  O   O11       1.0  0.20400  0.06930  0.81300  1.0000
