data_image0
_chemical_formula_structural       HMn2O6
_chemical_formula_sum              "H1 Mn2 O6"
_cell_length_a       4.87466
_cell_length_b       4.87466
_cell_length_c       4.52489
_cell_angle_alpha    102.328
_cell_angle_beta     102.328
_cell_angle_gamma    121.586

_space_group_name_H-M_alt    "P 1"
_space_group_IT_number       1

loop_
  _space_group_symop_operation_xyz
  'x, y, z'

loop_
  _atom_site_type_symbol
  _atom_site_label
  _atom_site_symmetry_multiplicity
  _atom_site_fract_x
  _atom_site_fract_y
  _atom_site_fract_z
  _atom_site_occupancy
  H   H1        1.0  0.48200  0.51800  0.50000  1.0000
  Mn  Mn1       1.0  0.81600  0.18400  0.00000  1.0000
  Mn  Mn2       1.0  0.14900  0.85100  0.00000  1.0000
  O   O1        1.0  0.58100  0.97300  0.25100  1.0000
  O   O2        1.0  0.93700  0.61600  0.25100  1.0000
  O   O3        1.0  0.24200  0.27800  0.25100  1.0000
  O   O4        1.0  0.72200  0.75800  0.74900  1.0000
  O   O5        1.0  0.38400  0.06290  0.74900  1.0000
  O   O6        1.0  0.02740  0.41900  0.74900  1.0000
