data_image0
_chemical_formula_structural       F5FeSr
_chemical_formula_sum              "F5 Fe1 Sr1"
_cell_length_a       3.94578
_cell_length_b       4.65728
_cell_length_c       5.76619
_cell_angle_alpha    64.334
_cell_angle_beta     70.4287
_cell_angle_gamma    65.8005

_space_group_name_H-M_alt    "P 1"
_space_group_IT_number       1

loop_
  _space_group_symop_operation_xyz
  'x, y, z'

loop_
  _atom_site_type_symbol
  _atom_site_label
  _atom_site_symmetry_multiplicity
  _atom_site_fract_x
  _atom_site_fract_y
  _atom_site_fract_z
  _atom_site_occupancy
  F   F1        1.0  0.64800  0.62800  0.07550  1.0000
  F   F2        1.0  0.32800  0.12700  0.21800  1.0000
  F   F3        1.0  0.69800  0.07280  0.53800  1.0000
  F   F4        1.0  0.37800  0.57200  0.68000  1.0000
  F   F5        1.0  0.01310  0.10000  0.87800  1.0000
  Fe  Fe1       1.0  0.51300  0.10000  0.87700  1.0000
  Sr  Sr1       1.0  0.01310  0.60000  0.37800  1.0000
