data_image0
_chemical_formula_structural       Hf4O11
_chemical_formula_sum              "Hf4 O11"
_cell_length_a       12.0001
_cell_length_b       6.17563
_cell_length_c       3.40154
_cell_angle_alpha    102.406
_cell_angle_beta     99.0556
_cell_angle_gamma    125.143

_space_group_name_H-M_alt    "P 1"
_space_group_IT_number       1

loop_
  _space_group_symop_operation_xyz
  'x, y, z'

loop_
  _atom_site_type_symbol
  _atom_site_label
  _atom_site_symmetry_multiplicity
  _atom_site_fract_x
  _atom_site_fract_y
  _atom_site_fract_z
  _atom_site_occupancy
  Hf  Hf1       1.0  0.42700  0.22200  0.01120  1.0000
  Hf  Hf2       1.0  0.08350  0.83500  0.05750  1.0000
  Hf  Hf3       1.0  0.56600  0.81100  0.82600  1.0000
  Hf  Hf4       1.0  0.92800  0.11600  0.96300  1.0000
  O   O1        1.0  0.13900  0.22600  0.02670  1.0000
  O   O2        1.0  0.91500  0.82100  0.13800  1.0000
  O   O3        1.0  0.45500  0.61500  0.19700  1.0000
  O   O4        1.0  0.27900  0.95400  0.32500  1.0000
  O   O5        1.0  0.76900  0.93500  0.34400  1.0000
  O   O6        1.0  0.97600  0.51300  0.39200  1.0000
  O   O7        1.0  0.05490  0.42800  0.63300  1.0000
  O   O8        1.0  0.54500  0.44100  0.66400  1.0000
  O   O9        1.0  0.75700  0.12500  0.67300  1.0000
  O   O10       1.0  0.18900  0.11200  0.73600  1.0000
  O   O11       1.0  0.52800  0.07020  0.99400  1.0000
