data_image0
_chemical_formula_structural       H11Mn2O8
_chemical_formula_sum              "H11 Mn2 O8"
_cell_length_a       5.15277
_cell_length_b       5.48606
_cell_length_c       4.5964
_cell_angle_alpha    90
_cell_angle_beta     90
_cell_angle_gamma    90

_space_group_name_H-M_alt    "P 1"
_space_group_IT_number       1

loop_
  _space_group_symop_operation_xyz
  'x, y, z'

loop_
  _atom_site_type_symbol
  _atom_site_label
  _atom_site_symmetry_multiplicity
  _atom_site_fract_x
  _atom_site_fract_y
  _atom_site_fract_z
  _atom_site_occupancy
  H   H1        1.0  0.25000  0.25000  0.03440  1.0000
  H   H2        1.0  0.60300  0.07470  0.30100  1.0000
  H   H3        1.0  0.89700  0.07470  0.30100  1.0000
  H   H4        1.0  0.60300  0.42500  0.30100  1.0000
  H   H5        1.0  0.89700  0.42500  0.30100  1.0000
  H   H6        1.0  0.25000  0.25000  0.57700  1.0000
  H   H7        1.0  0.08020  0.59800  0.75500  1.0000
  H   H8        1.0  0.42000  0.59800  0.75500  1.0000
  H   H9        1.0  0.08020  0.90200  0.75500  1.0000
  H   H10       1.0  0.42000  0.90200  0.75500  1.0000
  H   H11       1.0  0.75000  0.75000  0.89000  1.0000
  Mn  Mn1       1.0  0.25000  0.75000  0.26200  1.0000
  Mn  Mn2       1.0  0.75000  0.25000  0.78100  1.0000
  O   O1        1.0  0.01610  0.25000  0.06480  1.0000
  O   O2        1.0  0.48400  0.25000  0.06480  1.0000
  O   O3        1.0  0.75000  0.00571  0.42700  1.0000
  O   O4        1.0  0.75000  0.49400  0.42700  1.0000
  O   O5        1.0  0.25000  0.02090  0.58500  1.0000
  O   O6        1.0  0.25000  0.47900  0.58500  1.0000
  O   O7        1.0  0.51200  0.75000  0.89300  1.0000
  O   O8        1.0  0.98800  0.75000  0.89300  1.0000
