data_image0
_chemical_formula_structural       F4FeSr
_chemical_formula_sum              "F4 Fe1 Sr1"
_cell_length_a       3.78319
_cell_length_b       3.99597
_cell_length_c       6.03293
_cell_angle_alpha    109.658
_cell_angle_beta     91.5155
_cell_angle_gamma    90.929

_space_group_name_H-M_alt    "P 1"
_space_group_IT_number       1

loop_
  _space_group_symop_operation_xyz
  'x, y, z'

loop_
  _atom_site_type_symbol
  _atom_site_label
  _atom_site_symmetry_multiplicity
  _atom_site_fract_x
  _atom_site_fract_y
  _atom_site_fract_z
  _atom_site_occupancy
  F   F1        1.0  0.19700  0.82500  0.01230  1.0000
  F   F2        1.0  0.18300  0.46500  0.29100  1.0000
  F   F3        1.0  0.16600  0.17200  0.70700  1.0000
  F   F4        1.0  0.68100  0.68000  0.72200  1.0000
  Fe  Fe1       1.0  0.17100  0.63000  0.62400  1.0000
  Sr  Sr1       1.0  0.67300  0.32700  0.01050  1.0000
