data_image0
_chemical_formula_structural       Ir4O11
_chemical_formula_sum              "Ir4 O11"
_cell_length_a       10.1091
_cell_length_b       5.12287
_cell_length_c       4.76431
_cell_angle_alpha    101.708
_cell_angle_beta     101.168
_cell_angle_gamma    116.897

_space_group_name_H-M_alt    "P 1"
_space_group_IT_number       1

loop_
  _space_group_symop_operation_xyz
  'x, y, z'

loop_
  _atom_site_type_symbol
  _atom_site_label
  _atom_site_symmetry_multiplicity
  _atom_site_fract_x
  _atom_site_fract_y
  _atom_site_fract_z
  _atom_site_occupancy
  Ir  Ir1       1.0  0.58900  0.85100  0.01030  1.0000
  Ir  Ir2       1.0  0.41300  0.19500  0.01680  1.0000
  Ir  Ir3       1.0  0.07560  0.80300  0.97600  1.0000
  Ir  Ir4       1.0  0.91900  0.13500  0.98200  1.0000
  O   O1        1.0  0.98400  0.55200  0.21300  1.0000
  O   O2        1.0  0.80300  0.96600  0.23400  1.0000
  O   O3        1.0  0.48100  0.60600  0.24700  1.0000
  O   O4        1.0  0.60100  0.21100  0.24800  1.0000
  O   O5        1.0  0.28200  0.00044  0.25300  1.0000
  O   O6        1.0  0.89200  0.76500  0.71900  1.0000
  O   O7        1.0  0.70400  0.00548  0.75100  1.0000
  O   O8        1.0  0.03520  0.39900  0.76700  1.0000
  O   O9        1.0  0.20600  0.06700  0.77800  1.0000
  O   O10       1.0  0.52200  0.43000  0.78600  1.0000
  O   O11       1.0  0.39700  0.81900  0.78700  1.0000
