data_image0
_chemical_formula_structural       CCa3S
_chemical_formula_sum              "C1 Ca3 S1"
_cell_length_a       4.08455
_cell_length_b       4.4829
_cell_length_c       6.97377
_cell_angle_alpha    87.0202
_cell_angle_beta     89.9583
_cell_angle_gamma    63.0204

_space_group_name_H-M_alt    "P 1"
_space_group_IT_number       1

loop_
  _space_group_symop_operation_xyz
  'x, y, z'

loop_
  _atom_site_type_symbol
  _atom_site_label
  _atom_site_symmetry_multiplicity
  _atom_site_fract_x
  _atom_site_fract_y
  _atom_site_fract_z
  _atom_site_occupancy
  C   C1        1.0  0.47900  0.00059  0.08730  1.0000
  Ca  Ca1       1.0  0.16600  0.62600  0.14600  1.0000
  Ca  Ca2       1.0  0.49300  0.97600  0.44600  1.0000
  Ca  Ca3       1.0  0.85500  0.24700  0.87100  1.0000
  S   S1        1.0  0.18000  0.59900  0.60600  1.0000
