data_image0
_chemical_formula_structural       Ca2MnP2
_chemical_formula_sum              "Ca2 Mn1 P2"
_cell_length_a       4.10614
_cell_length_b       4.10527
_cell_length_c       6.49971
_cell_angle_alpha    90.0011
_cell_angle_beta     90.0028
_cell_angle_gamma    89.9972

_space_group_name_H-M_alt    "P 1"
_space_group_IT_number       1

loop_
  _space_group_symop_operation_xyz
  'x, y, z'

loop_
  _atom_site_type_symbol
  _atom_site_label
  _atom_site_symmetry_multiplicity
  _atom_site_fract_x
  _atom_site_fract_y
  _atom_site_fract_z
  _atom_site_occupancy
  Ca  Ca1       1.0  0.88700  0.65500  0.17500  1.0000
  Ca  Ca2       1.0  0.38700  0.15500  0.81800  1.0000
  Mn  Mn1       1.0  0.88700  0.15500  0.49600  1.0000
  P   P1        1.0  0.38700  0.15500  0.27700  1.0000
  P   P2        1.0  0.88700  0.65500  0.71600  1.0000
