data_image0
_chemical_formula_structural       H3O6Ti2
_chemical_formula_sum              "H3 O6 Ti2"
_cell_length_a       5.19145
_cell_length_b       5.19145
_cell_length_c       4.62035
_cell_angle_alpha    99.2348
_cell_angle_beta     99.2348
_cell_angle_gamma    127.684

_space_group_name_H-M_alt    "P 1"
_space_group_IT_number       1

loop_
  _space_group_symop_operation_xyz
  'x, y, z'

loop_
  _atom_site_type_symbol
  _atom_site_label
  _atom_site_symmetry_multiplicity
  _atom_site_fract_x
  _atom_site_fract_y
  _atom_site_fract_z
  _atom_site_occupancy
  H   H1        1.0  0.00000  0.00000  0.50000  1.0000
  H   H2        1.0  0.56200  0.43800  0.50000  1.0000
  H   H3        1.0  0.43800  0.56200  0.50000  1.0000
  O   O1        1.0  0.91800  0.55600  0.23500  1.0000
  O   O2        1.0  0.55600  0.91800  0.23500  1.0000
  O   O3        1.0  0.22400  0.22400  0.35200  1.0000
  O   O4        1.0  0.77600  0.77600  0.64800  1.0000
  O   O5        1.0  0.44400  0.08200  0.76500  1.0000
  O   O6        1.0  0.08200  0.44400  0.76500  1.0000
  Ti  Ti1       1.0  0.83100  0.16900  0.00000  1.0000
  Ti  Ti2       1.0  0.16900  0.83100  0.00000  1.0000
