data_image0
_chemical_formula_structural       H8O8Ti2
_chemical_formula_sum              "H8 O8 Ti2"
_cell_length_a       4.98234
_cell_length_b       4.98234
_cell_length_c       5.2333
_cell_angle_alpha    89.9634
_cell_angle_beta     90.0366
_cell_angle_gamma    84.403

_space_group_name_H-M_alt    "P 1"
_space_group_IT_number       1

loop_
  _space_group_symop_operation_xyz
  'x, y, z'

loop_
  _atom_site_type_symbol
  _atom_site_label
  _atom_site_symmetry_multiplicity
  _atom_site_fract_x
  _atom_site_fract_y
  _atom_site_fract_z
  _atom_site_occupancy
  H   H1        1.0  0.19000  0.19000  0.00000  1.0000
  H   H2        1.0  0.81000  0.81000  0.00000  1.0000
  H   H3        1.0  0.30300  0.98100  0.25000  1.0000
  H   H4        1.0  0.01880  0.69700  0.25000  1.0000
  H   H5        1.0  0.19000  0.19000  0.50000  1.0000
  H   H6        1.0  0.81000  0.81000  0.50000  1.0000
  H   H7        1.0  0.69700  0.01880  0.75000  1.0000
  H   H8        1.0  0.98100  0.30300  0.75000  1.0000
  O   O1        1.0  0.29900  0.70100  0.02230  1.0000
  O   O2        1.0  0.23800  0.17900  0.25000  1.0000
  O   O3        1.0  0.82100  0.76200  0.25000  1.0000
  O   O4        1.0  0.29900  0.70100  0.47700  1.0000
  O   O5        1.0  0.70100  0.29900  0.52300  1.0000
  O   O6        1.0  0.17900  0.23800  0.75000  1.0000
  O   O7        1.0  0.76200  0.82100  0.75000  1.0000
  O   O8        1.0  0.70100  0.29900  0.97800  1.0000
  Ti  Ti1       1.0  0.54000  0.46000  0.25000  1.0000
  Ti  Ti2       1.0  0.46000  0.54000  0.75000  1.0000
