data_image0
_chemical_formula_structural       H4O8Ti4
_chemical_formula_sum              "H4 O8 Ti4"
_cell_length_a       5.93352
_cell_length_b       5.93352
_cell_length_c       5.93352
_cell_angle_alpha    120
_cell_angle_beta     90
_cell_angle_gamma    120

_space_group_name_H-M_alt    "P 1"
_space_group_IT_number       1

loop_
  _space_group_symop_operation_xyz
  'x, y, z'

loop_
  _atom_site_type_symbol
  _atom_site_label
  _atom_site_symmetry_multiplicity
  _atom_site_fract_x
  _atom_site_fract_y
  _atom_site_fract_z
  _atom_site_occupancy
  H   H1        1.0  0.00000  0.50000  0.00000  1.0000
  H   H2        1.0  0.00000  0.00000  0.50000  1.0000
  H   H3        1.0  0.00000  0.50000  0.50000  1.0000
  H   H4        1.0  0.50000  0.00000  0.50000  1.0000
  O   O1        1.0  0.73600  0.97300  0.20900  1.0000
  O   O2        1.0  0.26400  0.02710  0.23600  1.0000
  O   O3        1.0  0.26400  0.47300  0.23600  1.0000
  O   O4        1.0  0.70900  0.47300  0.23600  1.0000
  O   O5        1.0  0.73600  0.52700  0.76400  1.0000
  O   O6        1.0  0.73600  0.97300  0.76400  1.0000
  O   O7        1.0  0.29100  0.52700  0.76400  1.0000
  O   O8        1.0  0.26400  0.02710  0.79100  1.0000
  Ti  Ti1       1.0  0.00000  0.00000  0.00000  1.0000
  Ti  Ti2       1.0  0.50000  0.00000  0.00000  1.0000
  Ti  Ti3       1.0  0.50000  0.50000  0.00000  1.0000
  Ti  Ti4       1.0  0.50000  0.50000  0.50000  1.0000
