data_image0
_chemical_formula_structural       CCa3Se
_chemical_formula_sum              "C1 Ca3 Se1"
_cell_length_a       4.09642
_cell_length_b       4.56321
_cell_length_c       7.20719
_cell_angle_alpha    92.6579
_cell_angle_beta     89.9814
_cell_angle_gamma    116.628

_space_group_name_H-M_alt    "P 1"
_space_group_IT_number       1

loop_
  _space_group_symop_operation_xyz
  'x, y, z'

loop_
  _atom_site_type_symbol
  _atom_site_label
  _atom_site_symmetry_multiplicity
  _atom_site_fract_x
  _atom_site_fract_y
  _atom_site_fract_z
  _atom_site_occupancy
  C   C1        1.0  0.01280  0.02140  0.17900  1.0000
  Ca  Ca1       1.0  0.32400  0.64300  0.12900  1.0000
  Ca  Ca2       1.0  0.62500  0.24600  0.39400  1.0000
  Ca  Ca3       1.0  0.00400  0.00353  0.83500  1.0000
  Se  Se1       1.0  0.31300  0.62100  0.65300  1.0000
