data_image0
_chemical_formula_structural       O11Rh4
_chemical_formula_sum              "O11 Rh4"
_cell_length_a       10.3372
_cell_length_b       5.27993
_cell_length_c       4.68122
_cell_angle_alpha    101.93
_cell_angle_beta     101.141
_cell_angle_gamma    119.006

_space_group_name_H-M_alt    "P 1"
_space_group_IT_number       1

loop_
  _space_group_symop_operation_xyz
  'x, y, z'

loop_
  _atom_site_type_symbol
  _atom_site_label
  _atom_site_symmetry_multiplicity
  _atom_site_fract_x
  _atom_site_fract_y
  _atom_site_fract_z
  _atom_site_occupancy
  O   O1        1.0  0.99000  0.56600  0.22900  1.0000
  O   O2        1.0  0.78500  0.96400  0.24400  1.0000
  O   O3        1.0  0.28600  0.98900  0.24600  1.0000
  O   O4        1.0  0.48500  0.59500  0.25700  1.0000
  O   O5        1.0  0.59100  0.19900  0.25900  1.0000
  O   O6        1.0  0.02180  0.39000  0.74100  1.0000
  O   O7        1.0  0.21400  0.04100  0.74900  1.0000
  O   O8        1.0  0.39800  0.80500  0.75400  1.0000
  O   O9        1.0  0.69800  0.01850  0.75600  1.0000
  O   O10       1.0  0.51400  0.41700  0.75700  1.0000
  O   O11       1.0  0.93700  0.86800  0.79900  1.0000
  Rh  Rh1       1.0  0.89900  0.15500  0.00041  1.0000
  Rh  Rh2       1.0  0.42400  0.18900  0.00113  1.0000
  Rh  Rh3       1.0  0.56900  0.82400  0.00730  1.0000
  Rh  Rh4       1.0  0.08910  0.78500  0.95900  1.0000
