data_image0
_chemical_formula_structural       H3Mn2O6
_chemical_formula_sum              "H3 Mn2 O6"
_cell_length_a       4.97596
_cell_length_b       4.97596
_cell_length_c       4.24393
_cell_angle_alpha    86.6753
_cell_angle_beta     86.6753
_cell_angle_gamma    123.785

_space_group_name_H-M_alt    "P 1"
_space_group_IT_number       1

loop_
  _space_group_symop_operation_xyz
  'x, y, z'

loop_
  _atom_site_type_symbol
  _atom_site_label
  _atom_site_symmetry_multiplicity
  _atom_site_fract_x
  _atom_site_fract_y
  _atom_site_fract_z
  _atom_site_occupancy
  H   H1        1.0  0.00000  0.00000  0.50000  1.0000
  H   H2        1.0  0.66600  0.33400  0.50000  1.0000
  H   H3        1.0  0.33400  0.66600  0.50000  1.0000
  Mn  Mn1       1.0  0.83900  0.16100  0.00000  1.0000
  Mn  Mn2       1.0  0.16100  0.83900  0.00000  1.0000
  O   O1        1.0  0.12500  0.12500  0.24000  1.0000
  O   O2        1.0  0.82300  0.46000  0.24700  1.0000
  O   O3        1.0  0.46000  0.82300  0.24700  1.0000
  O   O4        1.0  0.54000  0.17700  0.75300  1.0000
  O   O5        1.0  0.17700  0.54000  0.75300  1.0000
  O   O6        1.0  0.87500  0.87500  0.76000  1.0000
