data_image0
_chemical_formula_structural       Cr4O11
_chemical_formula_sum              "Cr4 O11"
_cell_length_a       9.86546
_cell_length_b       4.76913
_cell_length_c       4.73642
_cell_angle_alpha    102.074
_cell_angle_beta     101.155
_cell_angle_gamma    116.351

_space_group_name_H-M_alt    "P 1"
_space_group_IT_number       1

loop_
  _space_group_symop_operation_xyz
  'x, y, z'

loop_
  _atom_site_type_symbol
  _atom_site_label
  _atom_site_symmetry_multiplicity
  _atom_site_fract_x
  _atom_site_fract_y
  _atom_site_fract_z
  _atom_site_occupancy
  Cr  Cr1       1.0  0.63700  0.90100  0.02630  1.0000
  Cr  Cr2       1.0  0.95900  0.20200  0.06670  1.0000
  Cr  Cr3       1.0  0.38400  0.07140  0.92800  1.0000
  Cr  Cr4       1.0  0.08320  0.80000  0.95000  1.0000
  O   O1        1.0  0.28600  0.94100  0.19500  1.0000
  O   O2        1.0  0.97400  0.57700  0.21700  1.0000
  O   O3        1.0  0.57400  0.12400  0.22300  1.0000
  O   O4        1.0  0.81600  0.98800  0.25700  1.0000
  O   O5        1.0  0.12100  0.23100  0.27000  1.0000
  O   O6        1.0  0.36200  0.76700  0.66900  1.0000
  O   O7        1.0  0.68500  0.03320  0.75400  1.0000
  O   O8        1.0  0.02610  0.40500  0.76300  1.0000
  O   O9        1.0  0.19700  0.06760  0.76700  1.0000
  O   O10       1.0  0.90200  0.83500  0.78100  1.0000
  O   O11       1.0  0.51600  0.48500  0.91000  1.0000
