data_image0
_chemical_formula_structural       H3O8Ti4
_chemical_formula_sum              "H3 O8 Ti4"
_cell_length_a       4.9583
_cell_length_b       4.44912
_cell_length_c       5.8348
_cell_angle_alpha    90
_cell_angle_beta     90
_cell_angle_gamma    91.1321

_space_group_name_H-M_alt    "P 1"
_space_group_IT_number       1

loop_
  _space_group_symop_operation_xyz
  'x, y, z'

loop_
  _atom_site_type_symbol
  _atom_site_label
  _atom_site_symmetry_multiplicity
  _atom_site_fract_x
  _atom_site_fract_y
  _atom_site_fract_z
  _atom_site_occupancy
  H   H1        1.0  0.50000  0.00000  0.01600  1.0000
  H   H2        1.0  0.00000  0.50000  0.26200  1.0000
  H   H3        1.0  0.00000  0.50000  0.76900  1.0000
  O   O1        1.0  0.63900  0.77800  0.01600  1.0000
  O   O2        1.0  0.36100  0.22200  0.01600  1.0000
  O   O3        1.0  0.14500  0.72200  0.26100  1.0000
  O   O4        1.0  0.85500  0.27800  0.26100  1.0000
  O   O5        1.0  0.66800  0.75200  0.51600  1.0000
  O   O6        1.0  0.33200  0.24800  0.51600  1.0000
  O   O7        1.0  0.14500  0.72200  0.77000  1.0000
  O   O8        1.0  0.85500  0.27800  0.77000  1.0000
  Ti  Ti1       1.0  0.00000  0.00000  0.01590  1.0000
  Ti  Ti2       1.0  0.50000  0.50000  0.27900  1.0000
  Ti  Ti3       1.0  0.00000  0.00000  0.51600  1.0000
  Ti  Ti4       1.0  0.50000  0.50000  0.75300  1.0000
