data_image0
_chemical_formula_structural       H4Mn2O6
_chemical_formula_sum              "H4 Mn2 O6"
_cell_length_a       4.85295
_cell_length_b       4.85295
_cell_length_c       4.43941
_cell_angle_alpha    83.3174
_cell_angle_beta     83.3174
_cell_angle_gamma    120.234

_space_group_name_H-M_alt    "P 1"
_space_group_IT_number       1

loop_
  _space_group_symop_operation_xyz
  'x, y, z'

loop_
  _atom_site_type_symbol
  _atom_site_label
  _atom_site_symmetry_multiplicity
  _atom_site_fract_x
  _atom_site_fract_y
  _atom_site_fract_z
  _atom_site_occupancy
  H   H1        1.0  0.50000  0.50000  0.00000  1.0000
  H   H2        1.0  0.66500  0.33500  0.50000  1.0000
  H   H3        1.0  0.33500  0.66500  0.50000  1.0000
  H   H4        1.0  0.00000  0.00000  0.50000  1.0000
  Mn  Mn1       1.0  0.83400  0.16600  0.00000  1.0000
  Mn  Mn2       1.0  0.16600  0.83400  0.00000  1.0000
  O   O1        1.0  0.78300  0.44900  0.23100  1.0000
  O   O2        1.0  0.44900  0.78300  0.23100  1.0000
  O   O3        1.0  0.11200  0.11200  0.23200  1.0000
  O   O4        1.0  0.88800  0.88800  0.76800  1.0000
  O   O5        1.0  0.55100  0.21700  0.76900  1.0000
  O   O6        1.0  0.21700  0.55100  0.76900  1.0000
