data_image0
_chemical_formula_structural       CaMnP3
_chemical_formula_sum              "Ca1 Mn1 P3"
_cell_length_a       4.38361
_cell_length_b       4.50448
_cell_length_c       4.50583
_cell_angle_alpha    71.3783
_cell_angle_beta     82.771
_cell_angle_gamma    82.762

_space_group_name_H-M_alt    "P 1"
_space_group_IT_number       1

loop_
  _space_group_symop_operation_xyz
  'x, y, z'

loop_
  _atom_site_type_symbol
  _atom_site_label
  _atom_site_symmetry_multiplicity
  _atom_site_fract_x
  _atom_site_fract_y
  _atom_site_fract_z
  _atom_site_occupancy
  Ca  Ca1       1.0  0.96900  0.96700  0.46100  1.0000
  Mn  Mn1       1.0  0.60300  0.40900  0.90300  1.0000
  P   P1        1.0  0.47600  0.47600  0.39800  1.0000
  P   P2        1.0  0.10800  0.33000  0.82400  1.0000
  P   P3        1.0  0.47600  0.90500  0.96900  1.0000
