data_image0
_chemical_formula_structural       O11Ru4
_chemical_formula_sum              "O11 Ru4"
_cell_length_a       10.5797
_cell_length_b       5.30142
_cell_length_c       4.6847
_cell_angle_alpha    102.025
_cell_angle_beta     100.04
_cell_angle_gamma    120.693

_space_group_name_H-M_alt    "P 1"
_space_group_IT_number       1

loop_
  _space_group_symop_operation_xyz
  'x, y, z'

loop_
  _atom_site_type_symbol
  _atom_site_label
  _atom_site_symmetry_multiplicity
  _atom_site_fract_x
  _atom_site_fract_y
  _atom_site_fract_z
  _atom_site_occupancy
  O   O1        1.0  0.29600  0.97900  0.22200  1.0000
  O   O2        1.0  0.98600  0.60300  0.22400  1.0000
  O   O3        1.0  0.09840  0.20900  0.23600  1.0000
  O   O4        1.0  0.80200  0.00240  0.23900  1.0000
  O   O5        1.0  0.58100  0.15200  0.27400  1.0000
  O   O6        1.0  0.38800  0.73700  0.70300  1.0000
  O   O7        1.0  0.20600  0.01090  0.73900  1.0000
  O   O8        1.0  0.91200  0.83200  0.74600  1.0000
  O   O9        1.0  0.01510  0.42700  0.75300  1.0000
  O   O10       1.0  0.70700  0.03490  0.76300  1.0000
  O   O11       1.0  0.52500  0.46000  0.93400  1.0000
  Ru  Ru1       1.0  0.60200  0.88200  0.02390  1.0000
  Ru  Ru2       1.0  0.39100  0.05850  0.92700  1.0000
  Ru  Ru3       1.0  0.07780  0.84400  0.99000  1.0000
  Ru  Ru4       1.0  0.92900  0.19000  0.99600  1.0000
