data_image0
_chemical_formula_structural       Ba3C3S
_chemical_formula_sum              "Ba3 C3 S1"
_cell_length_a       4.38328
_cell_length_b       4.85133
_cell_length_c       10.3142
_cell_angle_alpha    81.4627
_cell_angle_beta     77.7377
_cell_angle_gamma    63.1496

_space_group_name_H-M_alt    "P 1"
_space_group_IT_number       1

loop_
  _space_group_symop_operation_xyz
  'x, y, z'

loop_
  _atom_site_type_symbol
  _atom_site_label
  _atom_site_symmetry_multiplicity
  _atom_site_fract_x
  _atom_site_fract_y
  _atom_site_fract_z
  _atom_site_occupancy
  Ba  Ba1       1.0  0.11400  0.06780  0.28900  1.0000
  Ba  Ba2       1.0  0.33700  0.26300  0.64800  1.0000
  Ba  Ba3       1.0  0.97100  0.67000  0.97300  1.0000
  C   C1        1.0  0.59500  0.28500  0.10900  1.0000
  C   C2        1.0  0.71600  0.31100  0.84300  1.0000
  C   C3        1.0  0.65600  0.29700  0.97600  1.0000
  S   S1        1.0  0.72500  0.66600  0.46800  1.0000
