data_image0
_chemical_formula_structural       La6Zn8
_chemical_formula_sum              "La6 Zn8"
_cell_length_a       9.2912
_cell_length_b       9.30608
_cell_length_c       4.32171
_cell_angle_alpha    90
_cell_angle_beta     90
_cell_angle_gamma    60.0096

_space_group_name_H-M_alt    "P 1"
_space_group_IT_number       1

loop_
  _space_group_symop_operation_xyz
  'x, y, z'

loop_
  _atom_site_type_symbol
  _atom_site_label
  _atom_site_symmetry_multiplicity
  _atom_site_fract_x
  _atom_site_fract_y
  _atom_site_fract_z
  _atom_site_occupancy
  La  La1       1.0  0.32200  0.46500  0.00000  1.0000
  La  La2       1.0  0.78400  0.46500  0.00000  1.0000
  La  La3       1.0  0.32200  0.92600  0.00000  1.0000
  La  La4       1.0  0.62800  0.31200  0.50000  1.0000
  La  La5       1.0  0.63200  0.77100  0.50000  1.0000
  La  La6       1.0  0.16800  0.77500  0.50000  1.0000
  Zn  Zn1       1.0  0.58900  0.06270  0.00000  1.0000
  Zn  Zn2       1.0  0.91900  0.06290  0.00000  1.0000
  Zn  Zn3       1.0  0.14300  0.28500  0.00000  1.0000
  Zn  Zn4       1.0  0.91900  0.73300  0.00000  1.0000
  Zn  Zn5       1.0  0.36300  0.17400  0.50000  1.0000
  Zn  Zn6       1.0  0.03190  0.17600  0.50000  1.0000
  Zn  Zn7       1.0  0.03400  0.50500  0.50000  1.0000
  Zn  Zn8       1.0  0.80900  0.95300  0.50000  1.0000
