data_image0
_chemical_formula_structural       Rh6Zn8
_chemical_formula_sum              "Rh6 Zn8"
_cell_length_a       7.11508
_cell_length_b       7.11493
_cell_length_c       4.49589
_cell_angle_alpha    90
_cell_angle_beta     90
_cell_angle_gamma    59.9948

_space_group_name_H-M_alt    "P 1"
_space_group_IT_number       1

loop_
  _space_group_symop_operation_xyz
  'x, y, z'

loop_
  _atom_site_type_symbol
  _atom_site_label
  _atom_site_symmetry_multiplicity
  _atom_site_fract_x
  _atom_site_fract_y
  _atom_site_fract_z
  _atom_site_occupancy
  Rh  Rh1       1.0  0.72300  0.41200  0.00000  1.0000
  Rh  Rh2       1.0  0.26900  0.57900  0.00000  1.0000
  Rh  Rh3       1.0  0.43600  0.86600  0.00000  1.0000
  Rh  Rh4       1.0  0.51700  0.37200  0.50000  1.0000
  Rh  Rh5       1.0  0.68300  0.65900  0.50000  1.0000
  Rh  Rh6       1.0  0.22900  0.82600  0.50000  1.0000
  Zn  Zn1       1.0  0.56100  0.15700  0.00000  1.0000
  Zn  Zn2       1.0  0.14300  0.28600  0.00000  1.0000
  Zn  Zn3       1.0  0.85300  0.70400  0.00000  1.0000
  Zn  Zn4       1.0  0.01440  0.99600  0.00000  1.0000
  Zn  Zn5       1.0  0.39200  0.08080  0.50000  1.0000
  Zn  Zn6       1.0  0.93800  0.24200  0.50000  1.0000
  Zn  Zn7       1.0  0.09900  0.53500  0.50000  1.0000
  Zn  Zn8       1.0  0.81000  0.95200  0.50000  1.0000
