data_image0
_chemical_formula_structural       H6Mn4O11
_chemical_formula_sum              "H6 Mn4 O11"
_cell_length_a       10.2365
_cell_length_b       4.86425
_cell_length_c       4.56764
_cell_angle_alpha    103.248
_cell_angle_beta     95.5184
_cell_angle_gamma    120.584

_space_group_name_H-M_alt    "P 1"
_space_group_IT_number       1

loop_
  _space_group_symop_operation_xyz
  'x, y, z'

loop_
  _atom_site_type_symbol
  _atom_site_label
  _atom_site_symmetry_multiplicity
  _atom_site_fract_x
  _atom_site_fract_y
  _atom_site_fract_z
  _atom_site_occupancy
  H   H1        1.0  0.19200  0.47800  0.24100  1.0000
  H   H2        1.0  0.69400  0.52100  0.24900  1.0000
  H   H3        1.0  0.93000  0.67400  0.42100  1.0000
  H   H4        1.0  0.24500  0.04000  0.55900  1.0000
  H   H5        1.0  0.08370  0.37500  0.59200  1.0000
  H   H6        1.0  0.80600  0.55100  0.74700  1.0000
  Mn  Mn1       1.0  0.09550  0.86200  0.00846  1.0000
  Mn  Mn2       1.0  0.41900  0.17700  0.02990  1.0000
  Mn  Mn3       1.0  0.90500  0.16200  0.99200  1.0000
  Mn  Mn4       1.0  0.59800  0.89100  0.99500  1.0000
  O   O1        1.0  0.77900  0.94400  0.22100  1.0000
  O   O2        1.0  0.96600  0.60300  0.23600  1.0000
  O   O3        1.0  0.10600  0.26000  0.25400  1.0000
  O   O4        1.0  0.27400  0.96100  0.26900  1.0000
  O   O5        1.0  0.61700  0.29700  0.26900  1.0000
  O   O6        1.0  0.89700  0.77000  0.74300  1.0000
  O   O7        1.0  0.72600  0.08790  0.75800  1.0000
  O   O8        1.0  0.04140  0.43500  0.76900  1.0000
  O   O9        1.0  0.23400  0.10700  0.79300  1.0000
  O   O10       1.0  0.52400  0.44700  0.80700  1.0000
  O   O11       1.0  0.40300  0.79400  0.82200  1.0000
