data_image0
_chemical_formula_structural       Co6Zn8
_chemical_formula_sum              "Co6 Zn8"
_cell_length_a       6.88812
_cell_length_b       6.88794
_cell_length_c       4.19968
_cell_angle_alpha    90
_cell_angle_beta     90
_cell_angle_gamma    59.9988

_space_group_name_H-M_alt    "P 1"
_space_group_IT_number       1

loop_
  _space_group_symop_operation_xyz
  'x, y, z'

loop_
  _atom_site_type_symbol
  _atom_site_label
  _atom_site_symmetry_multiplicity
  _atom_site_fract_x
  _atom_site_fract_y
  _atom_site_fract_z
  _atom_site_occupancy
  Co  Co1       1.0  0.14700  0.29100  0.00000  1.0000
  Co  Co2       1.0  0.27600  0.57600  0.00000  1.0000
  Co  Co3       1.0  0.86300  0.70400  0.00000  1.0000
  Co  Co4       1.0  0.37700  0.08970  0.50000  1.0000
  Co  Co5       1.0  0.66100  0.67700  0.50000  1.0000
  Co  Co6       1.0  0.24800  0.80500  0.50000  1.0000
  Zn  Zn1       1.0  0.55800  0.14700  0.00000  1.0000
  Zn  Zn2       1.0  0.71900  0.43800  0.00000  1.0000
  Zn  Zn3       1.0  0.42900  0.85700  0.00000  1.0000
  Zn  Zn4       1.0  0.00884  0.98700  0.00000  1.0000
  Zn  Zn5       1.0  0.96600  0.23400  0.50000  1.0000
  Zn  Zn6       1.0  0.51500  0.39400  0.50000  1.0000
  Zn  Zn7       1.0  0.09520  0.52400  0.50000  1.0000
  Zn  Zn8       1.0  0.80500  0.94300  0.50000  1.0000
