data_image0
_chemical_formula_structural       Ac6Zn8
_chemical_formula_sum              "Ac6 Zn8"
_cell_length_a       9.09396
_cell_length_b       9.09513
_cell_length_c       5.69463
_cell_angle_alpha    90
_cell_angle_beta     90
_cell_angle_gamma    59.9966

_space_group_name_H-M_alt    "P 1"
_space_group_IT_number       1

loop_
  _space_group_symop_operation_xyz
  'x, y, z'

loop_
  _atom_site_type_symbol
  _atom_site_label
  _atom_site_symmetry_multiplicity
  _atom_site_fract_x
  _atom_site_fract_y
  _atom_site_fract_z
  _atom_site_occupancy
  Ac  Ac1       1.0  0.77200  0.39400  0.00000  1.0000
  Ac  Ac2       1.0  0.25100  0.54800  0.00000  1.0000
  Ac  Ac3       1.0  0.40500  0.91500  0.00000  1.0000
  Ac  Ac4       1.0  0.54700  0.32300  0.50000  1.0000
  Ac  Ac5       1.0  0.70100  0.69000  0.50000  1.0000
  Ac  Ac6       1.0  0.18000  0.84400  0.50000  1.0000
  Zn  Zn1       1.0  0.62500  0.11500  0.00000  1.0000
  Zn  Zn2       1.0  0.14300  0.28600  0.00000  1.0000
  Zn  Zn3       1.0  0.83200  0.76800  0.00000  1.0000
  Zn  Zn4       1.0  0.97200  0.97400  0.00000  1.0000
  Zn  Zn5       1.0  0.32700  0.12300  0.50000  1.0000
  Zn  Zn6       1.0  0.98000  0.26400  0.50000  1.0000
  Zn  Zn7       1.0  0.12100  0.47000  0.50000  1.0000
  Zn  Zn8       1.0  0.80900  0.95200  0.50000  1.0000
