data_image0
_chemical_formula_structural       Ba3C3Se
_chemical_formula_sum              "Ba3 C3 Se1"
_cell_length_a       4.34894
_cell_length_b       6.99272
_cell_length_c       8.44716
_cell_angle_alpha    69.8802
_cell_angle_beta     89.355
_cell_angle_gamma    80.0462

_space_group_name_H-M_alt    "P 1"
_space_group_IT_number       1

loop_
  _space_group_symop_operation_xyz
  'x, y, z'

loop_
  _atom_site_type_symbol
  _atom_site_label
  _atom_site_symmetry_multiplicity
  _atom_site_fract_x
  _atom_site_fract_y
  _atom_site_fract_z
  _atom_site_occupancy
  Ba  Ba1       1.0  0.69300  0.56300  0.15200  1.0000
  Ba  Ba2       1.0  0.35600  0.02370  0.33400  1.0000
  Ba  Ba3       1.0  0.32000  0.18200  0.82800  1.0000
  C   C1        1.0  0.77900  0.20100  0.07270  1.0000
  C   C2        1.0  0.92600  0.01020  0.08820  1.0000
  C   C3        1.0  0.12600  0.83500  0.10400  1.0000
  Se  Se1       1.0  0.81200  0.22000  0.53000  1.0000
