data_image0
_chemical_formula_structural       Pr6Zn8
_chemical_formula_sum              "Pr6 Zn8"
_cell_length_a       9.12821
_cell_length_b       9.12779
_cell_length_c       4.64549
_cell_angle_alpha    90
_cell_angle_beta     90
_cell_angle_gamma    59.995

_space_group_name_H-M_alt    "P 1"
_space_group_IT_number       1

loop_
  _space_group_symop_operation_xyz
  'x, y, z'

loop_
  _atom_site_type_symbol
  _atom_site_label
  _atom_site_symmetry_multiplicity
  _atom_site_fract_x
  _atom_site_fract_y
  _atom_site_fract_z
  _atom_site_occupancy
  Pr  Pr1       1.0  0.10500  0.28300  0.00000  1.0000
  Pr  Pr2       1.0  0.32500  0.53400  0.00000  1.0000
  Pr  Pr3       1.0  0.85500  0.75400  0.00000  1.0000
  Pr  Pr4       1.0  0.41800  0.09760  0.50000  1.0000
  Pr  Pr5       1.0  0.66900  0.62700  0.50000  1.0000
  Pr  Pr6       1.0  0.19800  0.84700  0.50000  1.0000
  Zn  Zn1       1.0  0.95600  0.03020  0.00000  1.0000
  Zn  Zn2       1.0  0.60200  0.15700  0.00000  1.0000
  Zn  Zn3       1.0  0.72800  0.38400  0.00000  1.0000
  Zn  Zn4       1.0  0.42900  0.85700  0.00000  1.0000
  Zn  Zn5       1.0  0.92200  0.22400  0.50000  1.0000
  Zn  Zn6       1.0  0.56800  0.35100  0.50000  1.0000
  Zn  Zn7       1.0  0.09520  0.52400  0.50000  1.0000
  Zn  Zn8       1.0  0.79500  0.99700  0.50000  1.0000
