data_image0
_chemical_formula_structural       Re6Zn8
_chemical_formula_sum              "Re6 Zn8"
_cell_length_a       7.32065
_cell_length_b       7.32018
_cell_length_c       4.45016
_cell_angle_alpha    90
_cell_angle_beta     90
_cell_angle_gamma    60.0019

_space_group_name_H-M_alt    "P 1"
_space_group_IT_number       1

loop_
  _space_group_symop_operation_xyz
  'x, y, z'

loop_
  _atom_site_type_symbol
  _atom_site_label
  _atom_site_symmetry_multiplicity
  _atom_site_fract_x
  _atom_site_fract_y
  _atom_site_fract_z
  _atom_site_occupancy
  Re  Re1       1.0  0.69400  0.42600  0.00000  1.0000
  Re  Re2       1.0  0.28300  0.59500  0.00000  1.0000
  Re  Re3       1.0  0.45200  0.83700  0.00000  1.0000
  Re  Re4       1.0  0.50100  0.40100  0.50000  1.0000
  Re  Re5       1.0  0.66900  0.64400  0.50000  1.0000
  Re  Re6       1.0  0.25800  0.81200  0.50000  1.0000
  Zn  Zn1       1.0  0.00520  0.01000  0.00000  1.0000
  Zn  Zn2       1.0  0.55600  0.14800  0.00000  1.0000
  Zn  Zn3       1.0  0.14300  0.28600  0.00000  1.0000
  Zn  Zn4       1.0  0.86700  0.69900  0.00000  1.0000
  Zn  Zn5       1.0  0.39600  0.09010  0.50000  1.0000
  Zn  Zn6       1.0  0.94700  0.22800  0.50000  1.0000
  Zn  Zn7       1.0  0.08520  0.53900  0.50000  1.0000
  Zn  Zn8       1.0  0.80900  0.95200  0.50000  1.0000
