data_image0
_chemical_formula_structural       Ir4Li6O11
_chemical_formula_sum              "Ir4 Li6 O11"
_cell_length_a       10.0141
_cell_length_b       4.91604
_cell_length_c       5.05173
_cell_angle_alpha    99.0596
_cell_angle_beta     98.6337
_cell_angle_gamma    117.49

_space_group_name_H-M_alt    "P 1"
_space_group_IT_number       1

loop_
  _space_group_symop_operation_xyz
  'x, y, z'

loop_
  _atom_site_type_symbol
  _atom_site_label
  _atom_site_symmetry_multiplicity
  _atom_site_fract_x
  _atom_site_fract_y
  _atom_site_fract_z
  _atom_site_occupancy
  Ir  Ir1       1.0  0.92300  0.14900  0.00286  1.0000
  Ir  Ir2       1.0  0.56400  0.82300  0.00471  1.0000
  Ir  Ir3       1.0  0.43100  0.17700  0.99700  1.0000
  Ir  Ir4       1.0  0.07800  0.85400  0.00000  1.0000
  Li  Li1       1.0  0.75200  0.49700  0.00081  1.0000
  Li  Li2       1.0  0.83400  0.33300  0.49600  1.0000
  Li  Li3       1.0  0.32000  0.31000  0.50000  1.0000
  Li  Li4       1.0  0.16800  0.66500  0.50200  1.0000
  Li  Li5       1.0  0.68300  0.67700  0.50500  1.0000
  Li  Li6       1.0  0.24200  0.50300  0.99000  1.0000
  O   O1        1.0  0.27900  0.92400  0.21700  1.0000
  O   O2        1.0  0.76900  0.89800  0.21900  1.0000
  O   O3        1.0  0.95500  0.55700  0.22200  1.0000
  O   O4        1.0  0.13100  0.26800  0.25200  1.0000
  O   O5        1.0  0.62200  0.25000  0.25400  1.0000
  O   O6        1.0  0.87400  0.73900  0.74700  1.0000
  O   O7        1.0  0.36700  0.73000  0.75400  1.0000
  O   O8        1.0  0.54700  0.44800  0.76500  1.0000
  O   O9        1.0  0.04600  0.44700  0.78100  1.0000
  O   O10       1.0  0.73000  0.09140  0.78400  1.0000
  O   O11       1.0  0.23000  0.10800  0.78700  1.0000
