data_image0
_chemical_formula_structural       H6O11Ti4
_chemical_formula_sum              "H6 O11 Ti4"
_cell_length_a       9.90239
_cell_length_b       5.22823
_cell_length_c       4.91859
_cell_angle_alpha    100.496
_cell_angle_beta     101.002
_cell_angle_gamma    117.599

_space_group_name_H-M_alt    "P 1"
_space_group_IT_number       1

loop_
  _space_group_symop_operation_xyz
  'x, y, z'

loop_
  _atom_site_type_symbol
  _atom_site_label
  _atom_site_symmetry_multiplicity
  _atom_site_fract_x
  _atom_site_fract_y
  _atom_site_fract_z
  _atom_site_occupancy
  H   H1        1.0  0.89100  0.15900  0.41400  1.0000
  H   H2        1.0  0.68900  0.41900  0.41800  1.0000
  H   H3        1.0  0.20600  0.02100  0.51900  1.0000
  H   H4        1.0  0.89800  0.83500  0.52600  1.0000
  H   H5        1.0  0.48000  0.43600  0.59300  1.0000
  H   H6        1.0  0.61000  0.10600  0.60600  1.0000
  O   O1        1.0  0.94800  0.56700  0.15300  1.0000
  O   O2        1.0  0.81700  0.98600  0.22300  1.0000
  O   O3        1.0  0.24400  0.01440  0.22500  1.0000
  O   O4        1.0  0.48400  0.58300  0.28500  1.0000
  O   O5        1.0  0.59700  0.21200  0.31700  1.0000
  O   O6        1.0  0.00825  0.37400  0.71000  1.0000
  O   O7        1.0  0.88000  0.80100  0.71100  1.0000
  O   O8        1.0  0.19600  0.04550  0.72200  1.0000
  O   O9        1.0  0.66200  0.04940  0.76500  1.0000
  O   O10       1.0  0.51600  0.43800  0.79600  1.0000
  O   O11       1.0  0.38200  0.80900  0.85300  1.0000
  Ti  Ti1       1.0  0.39600  0.18000  0.03090  1.0000
  Ti  Ti2       1.0  0.55700  0.81900  0.05400  1.0000
  Ti  Ti3       1.0  0.05890  0.75600  0.90300  1.0000
  Ti  Ti4       1.0  0.87200  0.17800  0.93300  1.0000
