data_image0
_chemical_formula_structural       H8O11Ti4
_chemical_formula_sum              "H8 O11 Ti4"
_cell_length_a       10.4269
_cell_length_b       5.07099
_cell_length_c       4.79323
_cell_angle_alpha    103.557
_cell_angle_beta     94.7065
_cell_angle_gamma    122.092

_space_group_name_H-M_alt    "P 1"
_space_group_IT_number       1

loop_
  _space_group_symop_operation_xyz
  'x, y, z'

loop_
  _atom_site_type_symbol
  _atom_site_label
  _atom_site_symmetry_multiplicity
  _atom_site_fract_x
  _atom_site_fract_y
  _atom_site_fract_z
  _atom_site_occupancy
  H   H1        1.0  0.74300  0.66400  0.21700  1.0000
  H   H2        1.0  0.22200  0.46100  0.34300  1.0000
  H   H3        1.0  0.93700  0.66900  0.45700  1.0000
  H   H4        1.0  0.75300  0.00461  0.50400  1.0000
  H   H5        1.0  0.54300  0.28600  0.54400  1.0000
  H   H6        1.0  0.23900  0.08460  0.58600  1.0000
  H   H7        1.0  0.13600  0.37600  0.73000  1.0000
  H   H8        1.0  0.81300  0.54000  0.75100  1.0000
  O   O1        1.0  0.59200  0.17100  0.20200  1.0000
  O   O2        1.0  0.76000  0.87800  0.22800  1.0000
  O   O3        1.0  0.29300  0.97300  0.24300  1.0000
  O   O4        1.0  0.11800  0.25000  0.26000  1.0000
  O   O5        1.0  0.96000  0.59300  0.26400  1.0000
  O   O6        1.0  0.39600  0.73100  0.70100  1.0000
  O   O7        1.0  0.74900  0.09460  0.73000  1.0000
  O   O8        1.0  0.54500  0.39700  0.74800  1.0000
  O   O9        1.0  0.90300  0.76100  0.76400  1.0000
  O   O10       1.0  0.05800  0.42000  0.77600  1.0000
  O   O11       1.0  0.24100  0.12500  0.80000  1.0000
  Ti  Ti1       1.0  0.92800  0.18100  0.02950  1.0000
  Ti  Ti2       1.0  0.10100  0.84000  0.03090  1.0000
  Ti  Ti3       1.0  0.59300  0.84400  0.91000  1.0000
  Ti  Ti4       1.0  0.41100  0.07810  0.95200  1.0000
