data_image0
_chemical_formula_structural       Zn6Zr8
_chemical_formula_sum              "Zn6 Zr8"
_cell_length_a       8.28877
_cell_length_b       8.28872
_cell_length_c       4.58735
_cell_angle_alpha    90
_cell_angle_beta     90
_cell_angle_gamma    59.9994

_space_group_name_H-M_alt    "P 1"
_space_group_IT_number       1

loop_
  _space_group_symop_operation_xyz
  'x, y, z'

loop_
  _atom_site_type_symbol
  _atom_site_label
  _atom_site_symmetry_multiplicity
  _atom_site_fract_x
  _atom_site_fract_y
  _atom_site_fract_z
  _atom_site_occupancy
  Zn  Zn1       1.0  0.15200  0.26500  0.00000  1.0000
  Zn  Zn2       1.0  0.29700  0.58100  0.00000  1.0000
  Zn  Zn3       1.0  0.83600  0.72600  0.00000  1.0000
  Zn  Zn4       1.0  0.37200  0.11600  0.50000  1.0000
  Zn  Zn5       1.0  0.68700  0.65500  0.50000  1.0000
  Zn  Zn6       1.0  0.22700  0.80000  0.50000  1.0000
  Zr  Zr1       1.0  0.52900  0.18600  0.00000  1.0000
  Zr  Zr2       1.0  0.75700  0.42800  0.00000  1.0000
  Zr  Zr3       1.0  0.42900  0.85700  0.00000  1.0000
  Zr  Zr4       1.0  0.99900  0.95800  0.00000  1.0000
  Zr  Zr5       1.0  0.99500  0.19500  0.50000  1.0000
  Zr  Zr6       1.0  0.52400  0.42300  0.50000  1.0000
  Zr  Zr7       1.0  0.09520  0.52400  0.50000  1.0000
  Zr  Zr8       1.0  0.76600  0.95300  0.50000  1.0000
