data_image0
_chemical_formula_structural       Pt6Zn8
_chemical_formula_sum              "Pt6 Zn8"
_cell_length_a       7.29871
_cell_length_b       7.29851
_cell_length_c       4.4773
_cell_angle_alpha    90
_cell_angle_beta     90
_cell_angle_gamma    60.0005

_space_group_name_H-M_alt    "P 1"
_space_group_IT_number       1

loop_
  _space_group_symop_operation_xyz
  'x, y, z'

loop_
  _atom_site_type_symbol
  _atom_site_label
  _atom_site_symmetry_multiplicity
  _atom_site_fract_x
  _atom_site_fract_y
  _atom_site_fract_z
  _atom_site_occupancy
  Pt  Pt1       1.0  0.12500  0.28300  0.00000  1.0000
  Pt  Pt2       1.0  0.30600  0.55300  0.00000  1.0000
  Pt  Pt3       1.0  0.85500  0.73500  0.00000  1.0000
  Pt  Pt4       1.0  0.39900  0.09780  0.50000  1.0000
  Pt  Pt5       1.0  0.66900  0.64600  0.50000  1.0000
  Pt  Pt6       1.0  0.21700  0.82800  0.50000  1.0000
  Zn  Zn1       1.0  0.56200  0.14300  0.00000  1.0000
  Zn  Zn2       1.0  0.71500  0.43800  0.00000  1.0000
  Zn  Zn3       1.0  0.42900  0.85700  0.00000  1.0000
  Zn  Zn4       1.0  0.00936  0.99000  0.00000  1.0000
  Zn  Zn5       1.0  0.96200  0.23800  0.50000  1.0000
  Zn  Zn6       1.0  0.51400  0.39100  0.50000  1.0000
  Zn  Zn7       1.0  0.09520  0.52400  0.50000  1.0000
  Zn  Zn8       1.0  0.80900  0.94300  0.50000  1.0000
