data_image0
_chemical_formula_structural       H8Mn4O11
_chemical_formula_sum              "H8 Mn4 O11"
_cell_length_a       10.3911
_cell_length_b       4.89606
_cell_length_c       4.67217
_cell_angle_alpha    105.17
_cell_angle_beta     95.4957
_cell_angle_gamma    119.878

_space_group_name_H-M_alt    "P 1"
_space_group_IT_number       1

loop_
  _space_group_symop_operation_xyz
  'x, y, z'

loop_
  _atom_site_type_symbol
  _atom_site_label
  _atom_site_symmetry_multiplicity
  _atom_site_fract_x
  _atom_site_fract_y
  _atom_site_fract_z
  _atom_site_occupancy
  H   H1        1.0  0.19700  0.54400  0.28200  1.0000
  H   H2        1.0  0.94700  0.72600  0.45300  1.0000
  H   H3        1.0  0.57100  0.22100  0.46800  1.0000
  H   H4        1.0  0.76500  0.07530  0.53400  1.0000
  H   H5        1.0  0.09120  0.41000  0.63600  1.0000
  H   H6        1.0  0.32800  0.47700  0.70400  1.0000
  H   H7        1.0  0.83600  0.61300  0.77600  1.0000
  H   H8        1.0  0.64900  0.44000  0.94400  1.0000
  Mn  Mn1       1.0  0.92100  0.22300  0.02450  1.0000
  Mn  Mn2       1.0  0.11000  0.92200  0.04700  1.0000
  Mn  Mn3       1.0  0.59700  0.85100  0.97000  1.0000
  Mn  Mn4       1.0  0.39700  0.11400  0.99900  1.0000
  O   O1        1.0  0.78600  0.98500  0.22200  1.0000
  O   O2        1.0  0.96400  0.65200  0.24400  1.0000
  O   O3        1.0  0.58200  0.19800  0.25500  1.0000
  O   O4        1.0  0.27800  0.95900  0.26200  1.0000
  O   O5        1.0  0.11300  0.32000  0.28700  1.0000
  O   O6        1.0  0.40500  0.70600  0.70900  1.0000
  O   O7        1.0  0.74700  0.14000  0.75100  1.0000
  O   O8        1.0  0.91600  0.83300  0.77000  1.0000
  O   O9        1.0  0.04190  0.47500  0.79200  1.0000
  O   O10       1.0  0.55600  0.39900  0.81300  1.0000
  O   O11       1.0  0.23500  0.14000  0.83000  1.0000
