data_image0
_chemical_formula_structural       Li6O11Rh4
_chemical_formula_sum              "Li6 O11 Rh4"
_cell_length_a       10.3645
_cell_length_b       5.0785
_cell_length_c       5.01504
_cell_angle_alpha    99.1512
_cell_angle_beta     100.539
_cell_angle_gamma    120.832

_space_group_name_H-M_alt    "P 1"
_space_group_IT_number       1

loop_
  _space_group_symop_operation_xyz
  'x, y, z'

loop_
  _atom_site_type_symbol
  _atom_site_label
  _atom_site_symmetry_multiplicity
  _atom_site_fract_x
  _atom_site_fract_y
  _atom_site_fract_z
  _atom_site_occupancy
  Li  Li1       1.0  0.82800  0.34800  0.49200  1.0000
  Li  Li2       1.0  0.99800  0.00107  0.49900  1.0000
  Li  Li3       1.0  0.68800  0.64800  0.49900  1.0000
  Li  Li4       1.0  0.17300  0.65000  0.50400  1.0000
  Li  Li5       1.0  0.30900  0.32400  0.52300  1.0000
  Li  Li6       1.0  0.50800  0.04710  0.52700  1.0000
  O   O1        1.0  0.97100  0.57900  0.23800  1.0000
  O   O2        1.0  0.78600  0.92900  0.24100  1.0000
  O   O3        1.0  0.29600  0.97400  0.24200  1.0000
  O   O4        1.0  0.60600  0.20300  0.24400  1.0000
  O   O5        1.0  0.11100  0.22900  0.24600  1.0000
  O   O6        1.0  0.70500  0.03230  0.74400  1.0000
  O   O7        1.0  0.52800  0.42100  0.74600  1.0000
  O   O8        1.0  0.39200  0.78000  0.74700  1.0000
  O   O9        1.0  0.89000  0.77200  0.75500  1.0000
  O   O10       1.0  0.02810  0.42000  0.76100  1.0000
  O   O11       1.0  0.21100  0.06780  0.76300  1.0000
  Rh  Rh1       1.0  0.08400  0.83800  0.00185  1.0000
  Rh  Rh2       1.0  0.41900  0.17200  0.99200  1.0000
  Rh  Rh3       1.0  0.58200  0.82300  0.99400  1.0000
  Rh  Rh4       1.0  0.91400  0.16000  0.99900  1.0000
