data_image0
_chemical_formula_structural       B6Zn8
_chemical_formula_sum              "B6 Zn8"
_cell_length_a       6.67885
_cell_length_b       6.67857
_cell_length_c       4.40494
_cell_angle_alpha    90
_cell_angle_beta     90
_cell_angle_gamma    60.0205

_space_group_name_H-M_alt    "P 1"
_space_group_IT_number       1

loop_
  _space_group_symop_operation_xyz
  'x, y, z'

loop_
  _atom_site_type_symbol
  _atom_site_label
  _atom_site_symmetry_multiplicity
  _atom_site_fract_x
  _atom_site_fract_y
  _atom_site_fract_z
  _atom_site_occupancy
  B   B1        1.0  0.11800  0.36800  0.00000  1.0000
  B   B2        1.0  0.22900  0.54600  0.00000  1.0000
  B   B3        1.0  0.93900  0.65800  0.00000  1.0000
  B   B4        1.0  0.40600  0.01330  0.50000  1.0000
  B   B5        1.0  0.58500  0.72300  0.50000  1.0000
  B   B6        1.0  0.29500  0.83500  0.50000  1.0000
  Zn  Zn1       1.0  0.51100  0.20200  0.00000  1.0000
  Zn  Zn2       1.0  0.77300  0.43000  0.00000  1.0000
  Zn  Zn3       1.0  0.42800  0.85700  0.00000  1.0000
  Zn  Zn4       1.0  0.00146  0.93900  0.00000  1.0000
  Zn  Zn5       1.0  0.01310  0.17900  0.50000  1.0000
  Zn  Zn6       1.0  0.52200  0.44100  0.50000  1.0000
  Zn  Zn7       1.0  0.09520  0.52400  0.50000  1.0000
  Zn  Zn8       1.0  0.75100  0.95100  0.50000  1.0000
