data_image0
_chemical_formula_structural       C3Ca3Se
_chemical_formula_sum              "C3 Ca3 Se1"
_cell_length_a       4.08243
_cell_length_b       6.33051
_cell_length_c       6.3756
_cell_angle_alpha    70.4518
_cell_angle_beta     71.6895
_cell_angle_gamma    89.966

_space_group_name_H-M_alt    "P 1"
_space_group_IT_number       1

loop_
  _space_group_symop_operation_xyz
  'x, y, z'

loop_
  _atom_site_type_symbol
  _atom_site_label
  _atom_site_symmetry_multiplicity
  _atom_site_fract_x
  _atom_site_fract_y
  _atom_site_fract_z
  _atom_site_occupancy
  C   C1        1.0  0.34900  0.53900  0.53200  1.0000
  C   C2        1.0  0.25900  0.62200  0.70400  1.0000
  C   C3        1.0  0.18300  0.74600  0.84400  1.0000
  Ca  Ca1       1.0  0.55300  0.58700  0.11000  1.0000
  Ca  Ca2       1.0  0.87200  0.80800  0.47800  1.0000
  Ca  Ca3       1.0  0.19800  0.14700  0.81500  1.0000
  Se  Se1       1.0  0.53000  0.10800  0.15800  1.0000
