data_image0
_chemical_formula_structural       H2O8Zn4
_chemical_formula_sum              "H2 O8 Zn4"
_cell_length_a       5.98237
_cell_length_b       7.26173
_cell_length_c       6.19209
_cell_angle_alpha    87.2189
_cell_angle_beta     128.576
_cell_angle_gamma    122.386

_space_group_name_H-M_alt    "P 1"
_space_group_IT_number       1

loop_
  _space_group_symop_operation_xyz
  'x, y, z'

loop_
  _atom_site_type_symbol
  _atom_site_label
  _atom_site_symmetry_multiplicity
  _atom_site_fract_x
  _atom_site_fract_y
  _atom_site_fract_z
  _atom_site_occupancy
  H   H1        1.0  0.43300  0.32200  0.01210  1.0000
  H   H2        1.0  0.83700  0.48900  0.51000  1.0000
  O   O1        1.0  0.27000  0.23000  0.15900  1.0000
  O   O2        1.0  0.74600  0.03700  0.25000  1.0000
  O   O3        1.0  0.21900  0.60100  0.25200  1.0000
  O   O4        1.0  0.96300  0.49700  0.26300  1.0000
  O   O5        1.0  0.50100  0.05550  0.62100  1.0000
  O   O6        1.0  0.06190  0.58100  0.73000  1.0000
  O   O7        1.0  0.55000  0.41800  0.93600  1.0000
  O   O8        1.0  0.99600  0.95900  0.96900  1.0000
  Zn  Zn1       1.0  0.38900  0.93200  0.25900  1.0000
  Zn  Zn2       1.0  0.23700  0.16600  0.52400  1.0000
  Zn  Zn3       1.0  0.52700  0.86000  0.85700  1.0000
  Zn  Zn4       1.0  0.02100  0.35500  0.90700  1.0000
