data_image0
_chemical_formula_structural       As6Zn8
_chemical_formula_sum              "As6 Zn8"
_cell_length_a       7.74975
_cell_length_b       7.74965
_cell_length_c       4.88437
_cell_angle_alpha    90
_cell_angle_beta     90
_cell_angle_gamma    59.9958

_space_group_name_H-M_alt    "P 1"
_space_group_IT_number       1

loop_
  _space_group_symop_operation_xyz
  'x, y, z'

loop_
  _atom_site_type_symbol
  _atom_site_label
  _atom_site_symmetry_multiplicity
  _atom_site_fract_x
  _atom_site_fract_y
  _atom_site_fract_z
  _atom_site_occupancy
  As  As1       1.0  0.78000  0.38300  0.00000  1.0000
  As  As2       1.0  0.24000  0.55200  0.00000  1.0000
  As  As3       1.0  0.40900  0.92200  0.00000  1.0000
  As  As4       1.0  0.54300  0.31600  0.50000  1.0000
  As  As5       1.0  0.71200  0.68600  0.50000  1.0000
  As  As6       1.0  0.17300  0.85500  0.50000  1.0000
  Zn  Zn1       1.0  0.58900  0.15800  0.00000  1.0000
  Zn  Zn2       1.0  0.14300  0.28600  0.00000  1.0000
  Zn  Zn3       1.0  0.82500  0.73200  0.00000  1.0000
  Zn  Zn4       1.0  0.01490  0.96800  0.00000  1.0000
  Zn  Zn5       1.0  0.36400  0.08030  0.50000  1.0000
  Zn  Zn6       1.0  0.93700  0.27000  0.50000  1.0000
  Zn  Zn7       1.0  0.12700  0.50600  0.50000  1.0000
  Zn  Zn8       1.0  0.81000  0.95200  0.50000  1.0000
