data_image0
_chemical_formula_structural       O11Os4
_chemical_formula_sum              "O11 Os4"
_cell_length_a       10.1326
_cell_length_b       5.07345
_cell_length_c       4.79974
_cell_angle_alpha    102.684
_cell_angle_beta     100.279
_cell_angle_gamma    117.956

_space_group_name_H-M_alt    "P 1"
_space_group_IT_number       1

loop_
  _space_group_symop_operation_xyz
  'x, y, z'

loop_
  _atom_site_type_symbol
  _atom_site_label
  _atom_site_symmetry_multiplicity
  _atom_site_fract_x
  _atom_site_fract_y
  _atom_site_fract_z
  _atom_site_occupancy
  O   O1        1.0  0.28000  0.91600  0.19000  1.0000
  O   O2        1.0  0.80500  0.98300  0.22400  1.0000
  O   O3        1.0  0.98700  0.59700  0.22800  1.0000
  O   O4        1.0  0.12100  0.23600  0.29100  1.0000
  O   O5        1.0  0.59100  0.18500  0.29200  1.0000
  O   O6        1.0  0.39600  0.75800  0.68100  1.0000
  O   O7        1.0  0.88300  0.77200  0.69400  1.0000
  O   O8        1.0  0.01680  0.41100  0.75700  1.0000
  O   O9        1.0  0.20500  0.04220  0.76900  1.0000
  O   O10       1.0  0.72100  0.07990  0.78800  1.0000
  O   O11       1.0  0.52100  0.46700  0.92700  1.0000
  Os  Os1       1.0  0.94700  0.17600  0.00778  1.0000
  Os  Os2       1.0  0.60500  0.90100  0.01510  1.0000
  Os  Os3       1.0  0.39300  0.06620  0.94600  1.0000
  Os  Os4       1.0  0.05700  0.83200  0.97700  1.0000
