data_image0
_chemical_formula_structural       Sr6Zn8
_chemical_formula_sum              "Sr6 Zn8"
_cell_length_a       9.21165
_cell_length_b       9.21338
_cell_length_c       5.46821
_cell_angle_alpha    90
_cell_angle_beta     90
_cell_angle_gamma    60.0313

_space_group_name_H-M_alt    "P 1"
_space_group_IT_number       1

loop_
  _space_group_symop_operation_xyz
  'x, y, z'

loop_
  _atom_site_type_symbol
  _atom_site_label
  _atom_site_symmetry_multiplicity
  _atom_site_fract_x
  _atom_site_fract_y
  _atom_site_fract_z
  _atom_site_occupancy
  Sr  Sr1       1.0  0.77900  0.38200  0.00000  1.0000
  Sr  Sr2       1.0  0.23900  0.55300  0.00000  1.0000
  Sr  Sr3       1.0  0.41000  0.92200  0.00000  1.0000
  Sr  Sr4       1.0  0.54200  0.31600  0.50000  1.0000
  Sr  Sr5       1.0  0.71300  0.68500  0.50000  1.0000
  Sr  Sr6       1.0  0.17300  0.85600  0.50000  1.0000
  Zn  Zn1       1.0  0.63200  0.11000  0.00000  1.0000
  Zn  Zn2       1.0  0.14300  0.28600  0.00000  1.0000
  Zn  Zn3       1.0  0.83000  0.77500  0.00000  1.0000
  Zn  Zn4       1.0  0.96700  0.97300  0.00000  1.0000
  Zn  Zn5       1.0  0.32100  0.12800  0.50000  1.0000
  Zn  Zn6       1.0  0.98500  0.26600  0.50000  1.0000
  Zn  Zn7       1.0  0.12300  0.46300  0.50000  1.0000
  Zn  Zn8       1.0  0.80900  0.95300  0.50000  1.0000
