data_image0
_chemical_formula_structural       Li6O11Ru4
_chemical_formula_sum              "Li6 O11 Ru4"
_cell_length_a       9.81985
_cell_length_b       4.91184
_cell_length_c       5.01238
_cell_angle_alpha    98.2789
_cell_angle_beta     98.1594
_cell_angle_gamma    117.266

_space_group_name_H-M_alt    "P 1"
_space_group_IT_number       1

loop_
  _space_group_symop_operation_xyz
  'x, y, z'

loop_
  _atom_site_type_symbol
  _atom_site_label
  _atom_site_symmetry_multiplicity
  _atom_site_fract_x
  _atom_site_fract_y
  _atom_site_fract_z
  _atom_site_occupancy
  Li  Li1       1.0  0.66700  0.67200  0.49700  1.0000
  Li  Li2       1.0  0.83200  0.32500  0.49900  1.0000
  Li  Li3       1.0  0.35200  0.34400  0.51200  1.0000
  Li  Li4       1.0  0.16700  0.69600  0.51800  1.0000
  Li  Li5       1.0  0.25200  0.50400  0.98400  1.0000
  Li  Li6       1.0  0.74900  0.49800  0.99700  1.0000
  O   O1        1.0  0.77800  0.91600  0.21500  1.0000
  O   O2        1.0  0.45000  0.55100  0.21700  1.0000
  O   O3        1.0  0.96500  0.54100  0.22200  1.0000
  O   O4        1.0  0.26900  0.92000  0.22400  1.0000
  O   O5        1.0  0.62400  0.24900  0.25700  1.0000
  O   O6        1.0  0.37200  0.75000  0.73800  1.0000
  O   O7        1.0  0.87400  0.74000  0.74000  1.0000
  O   O8        1.0  0.04100  0.41400  0.76900  1.0000
  O   O9        1.0  0.71300  0.08250  0.77000  1.0000
  O   O10       1.0  0.54700  0.44900  0.78300  1.0000
  O   O11       1.0  0.22000  0.08910  0.78900  1.0000
  Ru  Ru1       1.0  0.42600  0.15000  0.00328  1.0000
  Ru  Ru2       1.0  0.07070  0.86100  0.01300  1.0000
  Ru  Ru3       1.0  0.93300  0.14000  0.99300  1.0000
  Ru  Ru4       1.0  0.57300  0.85900  0.99600  1.0000
