data_image0
_chemical_formula_structural       Ru6Zn8
_chemical_formula_sum              "Ru6 Zn8"
_cell_length_a       7.14624
_cell_length_b       7.14584
_cell_length_c       4.45259
_cell_angle_alpha    90
_cell_angle_beta     90
_cell_angle_gamma    60.0107

_space_group_name_H-M_alt    "P 1"
_space_group_IT_number       1

loop_
  _space_group_symop_operation_xyz
  'x, y, z'

loop_
  _atom_site_type_symbol
  _atom_site_label
  _atom_site_symmetry_multiplicity
  _atom_site_fract_x
  _atom_site_fract_y
  _atom_site_fract_z
  _atom_site_occupancy
  Ru  Ru1       1.0  0.71100  0.42000  0.00000  1.0000
  Ru  Ru2       1.0  0.27800  0.58300  0.00000  1.0000
  Ru  Ru3       1.0  0.44100  0.85300  0.00000  1.0000
  Ru  Ru4       1.0  0.51200  0.38500  0.50000  1.0000
  Ru  Ru5       1.0  0.67500  0.65500  0.50000  1.0000
  Ru  Ru6       1.0  0.24200  0.81800  0.50000  1.0000
  Zn  Zn1       1.0  0.56100  0.15400  0.00000  1.0000
  Zn  Zn2       1.0  0.14300  0.28600  0.00000  1.0000
  Zn  Zn3       1.0  0.85600  0.70300  0.00000  1.0000
  Zn  Zn4       1.0  0.01150  0.99900  0.00000  1.0000
  Zn  Zn5       1.0  0.39200  0.08380  0.50000  1.0000
  Zn  Zn6       1.0  0.94100  0.23900  0.50000  1.0000
  Zn  Zn7       1.0  0.09600  0.53500  0.50000  1.0000
  Zn  Zn8       1.0  0.81000  0.95200  0.50000  1.0000
