data_image0
_chemical_formula_structural       Tc6Zn8
_chemical_formula_sum              "Tc6 Zn8"
_cell_length_a       7.26832
_cell_length_b       7.26869
_cell_length_c       4.36379
_cell_angle_alpha    90
_cell_angle_beta     90
_cell_angle_gamma    59.9977

_space_group_name_H-M_alt    "P 1"
_space_group_IT_number       1

loop_
  _space_group_symop_operation_xyz
  'x, y, z'

loop_
  _atom_site_type_symbol
  _atom_site_label
  _atom_site_symmetry_multiplicity
  _atom_site_fract_x
  _atom_site_fract_y
  _atom_site_fract_z
  _atom_site_occupancy
  Tc  Tc1       1.0  0.16000  0.28200  0.00000  1.0000
  Tc  Tc2       1.0  0.27200  0.58800  0.00000  1.0000
  Tc  Tc3       1.0  0.85400  0.70100  0.00000  1.0000
  Tc  Tc4       1.0  0.36400  0.09840  0.50000  1.0000
  Tc  Tc5       1.0  0.67000  0.68000  0.50000  1.0000
  Tc  Tc6       1.0  0.25200  0.79300  0.50000  1.0000
  Zn  Zn1       1.0  0.57100  0.14800  0.00000  1.0000
  Zn  Zn2       1.0  0.71900  0.42400  0.00000  1.0000
  Zn  Zn3       1.0  0.42900  0.85700  0.00000  1.0000
  Zn  Zn4       1.0  0.99500  0.99900  0.00000  1.0000
  Zn  Zn5       1.0  0.95300  0.23300  0.50000  1.0000
  Zn  Zn6       1.0  0.52800  0.38200  0.50000  1.0000
  Zn  Zn7       1.0  0.09520  0.52400  0.50000  1.0000
  Zn  Zn8       1.0  0.80400  0.95700  0.50000  1.0000
