data_image0
_chemical_formula_structural       Sm6Zn8
_chemical_formula_sum              "Sm6 Zn8"
_cell_length_a       8.52305
_cell_length_b       8.524
_cell_length_c       5.14602
_cell_angle_alpha    90
_cell_angle_beta     90
_cell_angle_gamma    59.9974

_space_group_name_H-M_alt    "P 1"
_space_group_IT_number       1

loop_
  _space_group_symop_operation_xyz
  'x, y, z'

loop_
  _atom_site_type_symbol
  _atom_site_label
  _atom_site_symmetry_multiplicity
  _atom_site_fract_x
  _atom_site_fract_y
  _atom_site_fract_z
  _atom_site_occupancy
  Sm  Sm1       1.0  0.76500  0.41600  0.00000  1.0000
  Sm  Sm2       1.0  0.27300  0.53400  0.00000  1.0000
  Sm  Sm3       1.0  0.39100  0.90800  0.00000  1.0000
  Sm  Sm4       1.0  0.56100  0.33000  0.50000  1.0000
  Sm  Sm5       1.0  0.68000  0.70400  0.50000  1.0000
  Sm  Sm6       1.0  0.18700  0.82300  0.50000  1.0000
  Zn  Zn1       1.0  0.59900  0.11600  0.00000  1.0000
  Zn  Zn2       1.0  0.14300  0.28500  0.00000  1.0000
  Zn  Zn3       1.0  0.85600  0.74200  0.00000  1.0000
  Zn  Zn4       1.0  0.97300  0.99900  0.00000  1.0000
  Zn  Zn5       1.0  0.35300  0.12200  0.50000  1.0000
  Zn  Zn6       1.0  0.97900  0.23900  0.50000  1.0000
  Zn  Zn7       1.0  0.09630  0.49600  0.50000  1.0000
  Zn  Zn8       1.0  0.81000  0.95200  0.50000  1.0000
