data_image0
_chemical_formula_structural       Li6O11Ti4
_chemical_formula_sum              "Li6 O11 Ti4"
_cell_length_a       10.0016
_cell_length_b       5.0651
_cell_length_c       5.07786
_cell_angle_alpha    99.948
_cell_angle_beta     100.188
_cell_angle_gamma    118.118

_space_group_name_H-M_alt    "P 1"
_space_group_IT_number       1

loop_
  _space_group_symop_operation_xyz
  'x, y, z'

loop_
  _atom_site_type_symbol
  _atom_site_label
  _atom_site_symmetry_multiplicity
  _atom_site_fract_x
  _atom_site_fract_y
  _atom_site_fract_z
  _atom_site_occupancy
  Li  Li1       1.0  0.82500  0.33900  0.47800  1.0000
  Li  Li2       1.0  0.19600  0.72700  0.49200  1.0000
  Li  Li3       1.0  0.66200  0.63000  0.50900  1.0000
  Li  Li4       1.0  0.99500  0.98100  0.51600  1.0000
  Li  Li5       1.0  0.50400  0.01690  0.51600  1.0000
  Li  Li6       1.0  0.34900  0.37600  0.52000  1.0000
  O   O1        1.0  0.98700  0.56400  0.22600  1.0000
  O   O2        1.0  0.79600  0.95200  0.23300  1.0000
  O   O3        1.0  0.28400  0.97800  0.24400  1.0000
  O   O4        1.0  0.47000  0.58700  0.24600  1.0000
  O   O5        1.0  0.60200  0.21100  0.24700  1.0000
  O   O6        1.0  0.02920  0.38800  0.73900  1.0000
  O   O7        1.0  0.70000  0.04790  0.75000  1.0000
  O   O8        1.0  0.20700  0.05490  0.76100  1.0000
  O   O9        1.0  0.39200  0.79300  0.76200  1.0000
  O   O10       1.0  0.52900  0.42800  0.77900  1.0000
  O   O11       1.0  0.90600  0.80000  0.79200  1.0000
  Ti  Ti1       1.0  0.41500  0.18000  0.00164  1.0000
  Ti  Ti2       1.0  0.57200  0.82400  0.01760  1.0000
  Ti  Ti3       1.0  0.08480  0.76700  0.95700  1.0000
  Ti  Ti4       1.0  0.88500  0.14200  0.97200  1.0000
