data_image0
_chemical_formula_structural       Sc6Zn8
_chemical_formula_sum              "Sc6 Zn8"
_cell_length_a       8.15411
_cell_length_b       8.15376
_cell_length_c       4.50126
_cell_angle_alpha    90
_cell_angle_beta     90
_cell_angle_gamma    60.0011

_space_group_name_H-M_alt    "P 1"
_space_group_IT_number       1

loop_
  _space_group_symop_operation_xyz
  'x, y, z'

loop_
  _atom_site_type_symbol
  _atom_site_label
  _atom_site_symmetry_multiplicity
  _atom_site_fract_x
  _atom_site_fract_y
  _atom_site_fract_z
  _atom_site_occupancy
  Sc  Sc1       1.0  0.11100  0.29200  0.00000  1.0000
  Sc  Sc2       1.0  0.31200  0.53900  0.00000  1.0000
  Sc  Sc3       1.0  0.86300  0.74100  0.00000  1.0000
  Sc  Sc4       1.0  0.41300  0.08930  0.50000  1.0000
  Sc  Sc5       1.0  0.66100  0.64000  0.50000  1.0000
  Sc  Sc6       1.0  0.21200  0.84200  0.50000  1.0000
  Zn  Zn1       1.0  0.98400  0.01030  0.00000  1.0000
  Zn  Zn2       1.0  0.58200  0.14900  0.00000  1.0000
  Zn  Zn3       1.0  0.72000  0.41200  0.00000  1.0000
  Zn  Zn4       1.0  0.42900  0.85700  0.00000  1.0000
  Zn  Zn5       1.0  0.94200  0.23200  0.50000  1.0000
  Zn  Zn6       1.0  0.54000  0.37100  0.50000  1.0000
  Zn  Zn7       1.0  0.09530  0.52400  0.50000  1.0000
  Zn  Zn8       1.0  0.80400  0.96900  0.50000  1.0000
