data_image0
_chemical_formula_structural       Li6O11Sn4
_chemical_formula_sum              "Li6 O11 Sn4"
_cell_length_a       10.4583
_cell_length_b       5.28294
_cell_length_c       5.32643
_cell_angle_alpha    101.23
_cell_angle_beta     101.157
_cell_angle_gamma    115.7

_space_group_name_H-M_alt    "P 1"
_space_group_IT_number       1

loop_
  _space_group_symop_operation_xyz
  'x, y, z'

loop_
  _atom_site_type_symbol
  _atom_site_label
  _atom_site_symmetry_multiplicity
  _atom_site_fract_x
  _atom_site_fract_y
  _atom_site_fract_z
  _atom_site_occupancy
  Li  Li1       1.0  0.98600  0.97800  0.47600  1.0000
  Li  Li2       1.0  0.85100  0.39000  0.48000  1.0000
  Li  Li3       1.0  0.52000  0.03860  0.49300  1.0000
  Li  Li4       1.0  0.69400  0.69900  0.49700  1.0000
  Li  Li5       1.0  0.13800  0.58800  0.49900  1.0000
  Li  Li6       1.0  0.28500  0.23000  0.51600  1.0000
  O   O1        1.0  0.60000  0.21900  0.22000  1.0000
  O   O2        1.0  0.97800  0.58200  0.23800  1.0000
  O   O3        1.0  0.30300  0.95800  0.24900  1.0000
  O   O4        1.0  0.10900  0.20100  0.25200  1.0000
  O   O5        1.0  0.80800  0.97500  0.25300  1.0000
  O   O6        1.0  0.49100  0.64900  0.26800  1.0000
  O   O7        1.0  0.89800  0.78900  0.74000  1.0000
  O   O8        1.0  0.21200  0.99500  0.75000  1.0000
  O   O9        1.0  0.02480  0.40300  0.75000  1.0000
  O   O10       1.0  0.69800  0.03730  0.75700  1.0000
  O   O11       1.0  0.49200  0.42200  0.76000  1.0000
  Sn  Sn1       1.0  0.08620  0.81400  0.00091  1.0000
  Sn  Sn2       1.0  0.60400  0.84800  0.01880  1.0000
  Sn  Sn3       1.0  0.41200  0.23100  0.04750  1.0000
  Sn  Sn4       1.0  0.91900  0.17000  0.98900  1.0000
