data_image0
_chemical_formula_structural       C2K4S
_chemical_formula_sum              "C2 K4 S1"
_cell_length_a       4.80422
_cell_length_b       5.22644
_cell_length_c       9.7767
_cell_angle_alpha    82.4088
_cell_angle_beta     75.9687
_cell_angle_gamma    62.7214

_space_group_name_H-M_alt    "P 1"
_space_group_IT_number       1

loop_
  _space_group_symop_operation_xyz
  'x, y, z'

loop_
  _atom_site_type_symbol
  _atom_site_label
  _atom_site_symmetry_multiplicity
  _atom_site_fract_x
  _atom_site_fract_y
  _atom_site_fract_z
  _atom_site_occupancy
  C   C1        1.0  0.64800  0.77800  0.33800  1.0000
  C   C2        1.0  0.68200  0.60500  0.44300  1.0000
  K   K1        1.0  0.78600  0.83200  0.01590  1.0000
  K   K2        1.0  0.37700  0.40000  0.25700  1.0000
  K   K3        1.0  0.95600  0.98300  0.52000  1.0000
  K   K4        1.0  0.55200  0.54700  0.76600  1.0000
  S   S1        1.0  0.16800  0.19000  0.89300  1.0000
