data_image0
_chemical_formula_structural       Pm6Zn8
_chemical_formula_sum              "Pm6 Zn8"
_cell_length_a       8.58325
_cell_length_b       8.58598
_cell_length_c       5.16757
_cell_angle_alpha    90
_cell_angle_beta     90
_cell_angle_gamma    60.0113

_space_group_name_H-M_alt    "P 1"
_space_group_IT_number       1

loop_
  _space_group_symop_operation_xyz
  'x, y, z'

loop_
  _atom_site_type_symbol
  _atom_site_label
  _atom_site_symmetry_multiplicity
  _atom_site_fract_x
  _atom_site_fract_y
  _atom_site_fract_z
  _atom_site_occupancy
  Pm  Pm1       1.0  0.76700  0.41400  0.00000  1.0000
  Pm  Pm2       1.0  0.27100  0.53400  0.00000  1.0000
  Pm  Pm3       1.0  0.39100  0.90900  0.00000  1.0000
  Pm  Pm4       1.0  0.56100  0.32900  0.50000  1.0000
  Pm  Pm5       1.0  0.68100  0.70400  0.50000  1.0000
  Pm  Pm6       1.0  0.18600  0.82400  0.50000  1.0000
  Zn  Zn1       1.0  0.60100  0.11500  0.00000  1.0000
  Zn  Zn2       1.0  0.14300  0.28500  0.00000  1.0000
  Zn  Zn3       1.0  0.85600  0.74400  0.00000  1.0000
  Zn  Zn4       1.0  0.97100  0.99900  0.00000  1.0000
  Zn  Zn5       1.0  0.35200  0.12400  0.50000  1.0000
  Zn  Zn6       1.0  0.98100  0.23900  0.50000  1.0000
  Zn  Zn7       1.0  0.09630  0.49400  0.50000  1.0000
  Zn  Zn8       1.0  0.80900  0.95200  0.50000  1.0000
