data_image0
_chemical_formula_structural       Np6Zn8
_chemical_formula_sum              "Np6 Zn8"
_cell_length_a       8.53671
_cell_length_b       8.53401
_cell_length_c       4.10398
_cell_angle_alpha    90
_cell_angle_beta     90
_cell_angle_gamma    60.0221

_space_group_name_H-M_alt    "P 1"
_space_group_IT_number       1

loop_
  _space_group_symop_operation_xyz
  'x, y, z'

loop_
  _atom_site_type_symbol
  _atom_site_label
  _atom_site_symmetry_multiplicity
  _atom_site_fract_x
  _atom_site_fract_y
  _atom_site_fract_z
  _atom_site_occupancy
  Np  Np1       1.0  0.16600  0.25100  0.00000  1.0000
  Np  Np2       1.0  0.29800  0.59400  0.00000  1.0000
  Np  Np3       1.0  0.82100  0.72700  0.00000  1.0000
  Np  Np4       1.0  0.35900  0.13100  0.50000  1.0000
  Np  Np5       1.0  0.70100  0.65400  0.50000  1.0000
  Np  Np6       1.0  0.22600  0.78600  0.50000  1.0000
  Zn  Zn1       1.0  0.95700  0.00477  0.00000  1.0000
  Zn  Zn2       1.0  0.57700  0.18100  0.00000  1.0000
  Zn  Zn3       1.0  0.75300  0.38500  0.00000  1.0000
  Zn  Zn4       1.0  0.42800  0.85800  0.00000  1.0000
  Zn  Zn5       1.0  0.94800  0.20000  0.50000  1.0000
  Zn  Zn6       1.0  0.56700  0.37600  0.50000  1.0000
  Zn  Zn7       1.0  0.09460  0.52400  0.50000  1.0000
  Zn  Zn8       1.0  0.77200  0.99500  0.50000  1.0000
