data_image0
_chemical_formula_structural       Pa6Zn8
_chemical_formula_sum              "Pa6 Zn8"
_cell_length_a       8.83619
_cell_length_b       8.83434
_cell_length_c       3.9838
_cell_angle_alpha    90
_cell_angle_beta     90
_cell_angle_gamma    60.0193

_space_group_name_H-M_alt    "P 1"
_space_group_IT_number       1

loop_
  _space_group_symop_operation_xyz
  'x, y, z'

loop_
  _atom_site_type_symbol
  _atom_site_label
  _atom_site_symmetry_multiplicity
  _atom_site_fract_x
  _atom_site_fract_y
  _atom_site_fract_z
  _atom_site_occupancy
  Pa  Pa1       1.0  0.33600  0.47900  0.00000  1.0000
  Pa  Pa2       1.0  0.75700  0.47900  0.00000  1.0000
  Pa  Pa3       1.0  0.33600  0.89900  0.00000  1.0000
  Pa  Pa4       1.0  0.61600  0.34000  0.50000  1.0000
  Pa  Pa5       1.0  0.19600  0.75900  0.50000  1.0000
  Pa  Pa6       1.0  0.61700  0.75900  0.50000  1.0000
  Zn  Zn1       1.0  0.92200  0.06460  0.00000  1.0000
  Zn  Zn2       1.0  0.58500  0.06500  0.00000  1.0000
  Zn  Zn3       1.0  0.14300  0.28500  0.00000  1.0000
  Zn  Zn4       1.0  0.92100  0.72900  0.00000  1.0000
  Zn  Zn5       1.0  0.36700  0.17300  0.50000  1.0000
  Zn  Zn6       1.0  0.03040  0.17400  0.50000  1.0000
  Zn  Zn7       1.0  0.03100  0.50900  0.50000  1.0000
  Zn  Zn8       1.0  0.80900  0.95300  0.50000  1.0000
