data_image0
_chemical_formula_structural       Yb6Zn8
_chemical_formula_sum              "Yb6 Zn8"
_cell_length_a       8.46878
_cell_length_b       8.46771
_cell_length_c       5.0725
_cell_angle_alpha    90
_cell_angle_beta     90
_cell_angle_gamma    59.9938

_space_group_name_H-M_alt    "P 1"
_space_group_IT_number       1

loop_
  _space_group_symop_operation_xyz
  'x, y, z'

loop_
  _atom_site_type_symbol
  _atom_site_label
  _atom_site_symmetry_multiplicity
  _atom_site_fract_x
  _atom_site_fract_y
  _atom_site_fract_z
  _atom_site_occupancy
  Yb  Yb1       1.0  0.76600  0.40300  0.00000  1.0000
  Yb  Yb2       1.0  0.26000  0.54500  0.00000  1.0000
  Yb  Yb3       1.0  0.40300  0.90900  0.00000  1.0000
  Yb  Yb4       1.0  0.55000  0.32900  0.50000  1.0000
  Yb  Yb5       1.0  0.69200  0.69300  0.50000  1.0000
  Yb  Yb6       1.0  0.18700  0.83500  0.50000  1.0000
  Zn  Zn1       1.0  0.60500  0.12200  0.00000  1.0000
  Zn  Zn2       1.0  0.14300  0.28600  0.00000  1.0000
  Zn  Zn3       1.0  0.84400  0.74800  0.00000  1.0000
  Zn  Zn4       1.0  0.97900  0.98700  0.00000  1.0000
  Zn  Zn5       1.0  0.34700  0.11600  0.50000  1.0000
  Zn  Zn6       1.0  0.97300  0.25100  0.50000  1.0000
  Zn  Zn7       1.0  0.10800  0.49000  0.50000  1.0000
  Zn  Zn8       1.0  0.81000  0.95200  0.50000  1.0000
