data_image0
_chemical_formula_structural       Te6Zn8
_chemical_formula_sum              "Te6 Zn8"
_cell_length_a       9.4408
_cell_length_b       9.43951
_cell_length_c       4.76725
_cell_angle_alpha    90
_cell_angle_beta     90
_cell_angle_gamma    60.0015

_space_group_name_H-M_alt    "P 1"
_space_group_IT_number       1

loop_
  _space_group_symop_operation_xyz
  'x, y, z'

loop_
  _atom_site_type_symbol
  _atom_site_label
  _atom_site_symmetry_multiplicity
  _atom_site_fract_x
  _atom_site_fract_y
  _atom_site_fract_z
  _atom_site_occupancy
  Te  Te1       1.0  0.83600  0.33200  0.00000  1.0000
  Te  Te2       1.0  0.18900  0.54600  0.00000  1.0000
  Te  Te3       1.0  0.40300  0.97900  0.00000  1.0000
  Te  Te4       1.0  0.54900  0.25900  0.50000  1.0000
  Te  Te5       1.0  0.76300  0.69200  0.50000  1.0000
  Te  Te6       1.0  0.11600  0.90600  0.50000  1.0000
  Zn  Zn1       1.0  0.93800  0.00834  0.00000  1.0000
  Zn  Zn2       1.0  0.62500  0.08120  0.00000  1.0000
  Zn  Zn3       1.0  0.14300  0.28600  0.00000  1.0000
  Zn  Zn4       1.0  0.86600  0.76700  0.00000  1.0000
  Zn  Zn5       1.0  0.32800  0.15700  0.50000  1.0000
  Zn  Zn6       1.0  0.01410  0.23000  0.50000  1.0000
  Zn  Zn7       1.0  0.08680  0.47100  0.50000  1.0000
  Zn  Zn8       1.0  0.80900  0.95200  0.50000  1.0000
