data_image0
_chemical_formula_structural       Tb6Zn8
_chemical_formula_sum              "Tb6 Zn8"
_cell_length_a       8.32748
_cell_length_b       8.32526
_cell_length_c       5.13977
_cell_angle_alpha    90
_cell_angle_beta     90
_cell_angle_gamma    59.9891

_space_group_name_H-M_alt    "P 1"
_space_group_IT_number       1

loop_
  _space_group_symop_operation_xyz
  'x, y, z'

loop_
  _atom_site_type_symbol
  _atom_site_label
  _atom_site_symmetry_multiplicity
  _atom_site_fract_x
  _atom_site_fract_y
  _atom_site_fract_z
  _atom_site_occupancy
  Tb  Tb1       1.0  0.75900  0.41800  0.00000  1.0000
  Tb  Tb2       1.0  0.27500  0.53700  0.00000  1.0000
  Tb  Tb3       1.0  0.39400  0.90200  0.00000  1.0000
  Tb  Tb4       1.0  0.55900  0.33600  0.50000  1.0000
  Tb  Tb5       1.0  0.67700  0.70100  0.50000  1.0000
  Tb  Tb6       1.0  0.19300  0.82000  0.50000  1.0000
  Zn  Zn1       1.0  0.59600  0.12300  0.00000  1.0000
  Zn  Zn2       1.0  0.14300  0.28600  0.00000  1.0000
  Zn  Zn3       1.0  0.85300  0.73900  0.00000  1.0000
  Zn  Zn4       1.0  0.98000  0.99500  0.00000  1.0000
  Zn  Zn5       1.0  0.35600  0.11500  0.50000  1.0000
  Zn  Zn6       1.0  0.97200  0.24300  0.50000  1.0000
  Zn  Zn7       1.0  0.10000  0.49900  0.50000  1.0000
  Zn  Zn8       1.0  0.81000  0.95200  0.50000  1.0000
