data_image0
_chemical_formula_structural       Zn8Zr6
_chemical_formula_sum              "Zn8 Zr6"
_cell_length_a       7.78317
_cell_length_b       7.78002
_cell_length_c       5.02044
_cell_angle_alpha    90
_cell_angle_beta     90
_cell_angle_gamma    59.9855

_space_group_name_H-M_alt    "P 1"
_space_group_IT_number       1

loop_
  _space_group_symop_operation_xyz
  'x, y, z'

loop_
  _atom_site_type_symbol
  _atom_site_label
  _atom_site_symmetry_multiplicity
  _atom_site_fract_x
  _atom_site_fract_y
  _atom_site_fract_z
  _atom_site_occupancy
  Zn  Zn1       1.0  0.58500  0.13400  0.00000  1.0000
  Zn  Zn2       1.0  0.14300  0.28600  0.00000  1.0000
  Zn  Zn3       1.0  0.85300  0.72700  0.00000  1.0000
  Zn  Zn4       1.0  0.99100  0.99600  0.00000  1.0000
  Zn  Zn5       1.0  0.36800  0.10400  0.50000  1.0000
  Zn  Zn6       1.0  0.96100  0.24200  0.50000  1.0000
  Zn  Zn7       1.0  0.09940  0.51100  0.50000  1.0000
  Zn  Zn8       1.0  0.81000  0.95200  0.50000  1.0000
  Zr  Zr1       1.0  0.73300  0.42300  0.00000  1.0000
  Zr  Zr2       1.0  0.28000  0.55800  0.00000  1.0000
  Zr  Zr3       1.0  0.41500  0.87600  0.00000  1.0000
  Zr  Zr4       1.0  0.53700  0.36200  0.50000  1.0000
  Zr  Zr5       1.0  0.67200  0.68000  0.50000  1.0000
  Zr  Zr6       1.0  0.21900  0.81500  0.50000  1.0000
