data_image0
_chemical_formula_structural       Tl6Zn8
_chemical_formula_sum              "Tl6 Zn8"
_cell_length_a       9.06964
_cell_length_b       9.06938
_cell_length_c       4.40812
_cell_angle_alpha    90
_cell_angle_beta     90
_cell_angle_gamma    60.0012

_space_group_name_H-M_alt    "P 1"
_space_group_IT_number       1

loop_
  _space_group_symop_operation_xyz
  'x, y, z'

loop_
  _atom_site_type_symbol
  _atom_site_label
  _atom_site_symmetry_multiplicity
  _atom_site_fract_x
  _atom_site_fract_y
  _atom_site_fract_z
  _atom_site_occupancy
  Tl  Tl1       1.0  0.10500  0.29000  0.00000  1.0000
  Tl  Tl2       1.0  0.32000  0.53300  0.00000  1.0000
  Tl  Tl3       1.0  0.86100  0.74900  0.00000  1.0000
  Tl  Tl4       1.0  0.41900  0.09120  0.50000  1.0000
  Tl  Tl5       1.0  0.66300  0.63200  0.50000  1.0000
  Tl  Tl6       1.0  0.20400  0.84800  0.50000  1.0000
  Zn  Zn1       1.0  0.95800  0.04010  0.00000  1.0000
  Zn  Zn2       1.0  0.61200  0.14500  0.00000  1.0000
  Zn  Zn3       1.0  0.71600  0.38700  0.00000  1.0000
  Zn  Zn4       1.0  0.42900  0.85700  0.00000  1.0000
  Zn  Zn5       1.0  0.91200  0.23600  0.50000  1.0000
  Zn  Zn6       1.0  0.56600  0.34100  0.50000  1.0000
  Zn  Zn7       1.0  0.09520  0.52400  0.50000  1.0000
  Zn  Zn8       1.0  0.80800  0.99500  0.50000  1.0000
