data_image0
_chemical_formula_structural       LiPSb2
_chemical_formula_sum              "Li1 P1 Sb2"
_cell_length_a       4.45636
_cell_length_b       5.72608
_cell_length_c       5.7282
_cell_angle_alpha    81.1479
_cell_angle_beta     67.0463
_cell_angle_gamma    67.1977

_space_group_name_H-M_alt    "P 1"
_space_group_IT_number       1

loop_
  _space_group_symop_operation_xyz
  'x, y, z'

loop_
  _atom_site_type_symbol
  _atom_site_label
  _atom_site_symmetry_multiplicity
  _atom_site_fract_x
  _atom_site_fract_y
  _atom_site_fract_z
  _atom_site_occupancy
  Li  Li1       1.0  0.24700  0.16100  0.23200  1.0000
  P   P1        1.0  0.65300  0.34500  0.23500  1.0000
  Sb  Sb1       1.0  0.31700  0.70100  0.55400  1.0000
  Sb  Sb2       1.0  0.63700  0.70100  0.91400  1.0000
