data_image0
_chemical_formula_structural       Ti6Zn8
_chemical_formula_sum              "Ti6 Zn8"
_cell_length_a       7.52959
_cell_length_b       7.52962
_cell_length_c       4.40421
_cell_angle_alpha    90
_cell_angle_beta     90
_cell_angle_gamma    59.9916

_space_group_name_H-M_alt    "P 1"
_space_group_IT_number       1

loop_
  _space_group_symop_operation_xyz
  'x, y, z'

loop_
  _atom_site_type_symbol
  _atom_site_label
  _atom_site_symmetry_multiplicity
  _atom_site_fract_x
  _atom_site_fract_y
  _atom_site_fract_z
  _atom_site_occupancy
  Ti  Ti1       1.0  0.12100  0.29800  0.00000  1.0000
  Ti  Ti2       1.0  0.29500  0.55000  0.00000  1.0000
  Ti  Ti3       1.0  0.86900  0.72400  0.00000  1.0000
  Ti  Ti4       1.0  0.40300  0.08330  0.50000  1.0000
  Ti  Ti5       1.0  0.65500  0.65700  0.50000  1.0000
  Ti  Ti6       1.0  0.22800  0.83100  0.50000  1.0000
  Zn  Zn1       1.0  0.99900  0.00271  0.00000  1.0000
  Zn  Zn2       1.0  0.57400  0.14100  0.00000  1.0000
  Zn  Zn3       1.0  0.71300  0.42800  0.00000  1.0000
  Zn  Zn4       1.0  0.42900  0.85700  0.00000  1.0000
  Zn  Zn5       1.0  0.95000  0.24000  0.50000  1.0000
  Zn  Zn6       1.0  0.52500  0.37800  0.50000  1.0000
  Zn  Zn7       1.0  0.09520  0.52400  0.50000  1.0000
  Zn  Zn8       1.0  0.81100  0.95300  0.50000  1.0000
