data_image0
_chemical_formula_structural       Y6Zn8
_chemical_formula_sum              "Y6 Zn8"
_cell_length_a       8.79168
_cell_length_b       8.79154
_cell_length_c       4.58712
_cell_angle_alpha    90
_cell_angle_beta     90
_cell_angle_gamma    59.9987

_space_group_name_H-M_alt    "P 1"
_space_group_IT_number       1

loop_
  _space_group_symop_operation_xyz
  'x, y, z'

loop_
  _atom_site_type_symbol
  _atom_site_label
  _atom_site_symmetry_multiplicity
  _atom_site_fract_x
  _atom_site_fract_y
  _atom_site_fract_z
  _atom_site_occupancy
  Y   Y1        1.0  0.10000  0.29100  0.00000  1.0000
  Y   Y2        1.0  0.32300  0.52900  0.00000  1.0000
  Y   Y3        1.0  0.86300  0.75100  0.00000  1.0000
  Y   Y4        1.0  0.42300  0.08980  0.50000  1.0000
  Y   Y5        1.0  0.66100  0.63000  0.50000  1.0000
  Y   Y6        1.0  0.20100  0.85200  0.50000  1.0000
  Zn  Zn1       1.0  0.96400  0.02580  0.00000  1.0000
  Zn  Zn2       1.0  0.59700  0.15300  0.00000  1.0000
  Zn  Zn3       1.0  0.72400  0.39300  0.00000  1.0000
  Zn  Zn4       1.0  0.42900  0.85700  0.00000  1.0000
  Zn  Zn5       1.0  0.92700  0.22800  0.50000  1.0000
  Zn  Zn6       1.0  0.55900  0.35500  0.50000  1.0000
  Zn  Zn7       1.0  0.09520  0.52400  0.50000  1.0000
  Zn  Zn8       1.0  0.80000  0.98800  0.50000  1.0000
