data_image0
_chemical_formula_structural       Ta6Zn8
_chemical_formula_sum              "Ta6 Zn8"
_cell_length_a       7.48408
_cell_length_b       7.48471
_cell_length_c       4.61137
_cell_angle_alpha    90
_cell_angle_beta     90
_cell_angle_gamma    60.0011

_space_group_name_H-M_alt    "P 1"
_space_group_IT_number       1

loop_
  _space_group_symop_operation_xyz
  'x, y, z'

loop_
  _atom_site_type_symbol
  _atom_site_label
  _atom_site_symmetry_multiplicity
  _atom_site_fract_x
  _atom_site_fract_y
  _atom_site_fract_z
  _atom_site_occupancy
  Ta  Ta1       1.0  0.13100  0.28900  0.00000  1.0000
  Ta  Ta2       1.0  0.29500  0.55900  0.00000  1.0000
  Ta  Ta3       1.0  0.86000  0.72400  0.00000  1.0000
  Ta  Ta4       1.0  0.39300  0.09240  0.50000  1.0000
  Ta  Ta5       1.0  0.66400  0.65700  0.50000  1.0000
  Ta  Ta6       1.0  0.22900  0.82200  0.50000  1.0000
  Zn  Zn1       1.0  0.99500  0.00443  0.00000  1.0000
  Zn  Zn2       1.0  0.57600  0.14300  0.00000  1.0000
  Zn  Zn3       1.0  0.71400  0.42400  0.00000  1.0000
  Zn  Zn4       1.0  0.42900  0.85700  0.00000  1.0000
  Zn  Zn5       1.0  0.94800  0.23800  0.50000  1.0000
  Zn  Zn6       1.0  0.52800  0.37700  0.50000  1.0000
  Zn  Zn7       1.0  0.09520  0.52400  0.50000  1.0000
  Zn  Zn8       1.0  0.80900  0.95700  0.50000  1.0000
