data_image0
_chemical_formula_structural       Tm6Zn8
_chemical_formula_sum              "Tm6 Zn8"
_cell_length_a       8.16958
_cell_length_b       8.16808
_cell_length_c       5.09658
_cell_angle_alpha    90
_cell_angle_beta     90
_cell_angle_gamma    59.9913

_space_group_name_H-M_alt    "P 1"
_space_group_IT_number       1

loop_
  _space_group_symop_operation_xyz
  'x, y, z'

loop_
  _atom_site_type_symbol
  _atom_site_label
  _atom_site_symmetry_multiplicity
  _atom_site_fract_x
  _atom_site_fract_y
  _atom_site_fract_z
  _atom_site_occupancy
  Tm  Tm1       1.0  0.75300  0.42100  0.00000  1.0000
  Tm  Tm2       1.0  0.27900  0.53900  0.00000  1.0000
  Tm  Tm3       1.0  0.39600  0.89600  0.00000  1.0000
  Tm  Tm4       1.0  0.55600  0.34200  0.50000  1.0000
  Tm  Tm5       1.0  0.67400  0.69900  0.50000  1.0000
  Tm  Tm6       1.0  0.19900  0.81700  0.50000  1.0000
  Zn  Zn1       1.0  0.59200  0.12700  0.00000  1.0000
  Zn  Zn2       1.0  0.14300  0.28600  0.00000  1.0000
  Zn  Zn3       1.0  0.85200  0.73500  0.00000  1.0000
  Zn  Zn4       1.0  0.98400  0.99500  0.00000  1.0000
  Zn  Zn5       1.0  0.36000  0.11100  0.50000  1.0000
  Zn  Zn6       1.0  0.96800  0.24300  0.50000  1.0000
  Zn  Zn7       1.0  0.10000  0.50300  0.50000  1.0000
  Zn  Zn8       1.0  0.81000  0.95200  0.50000  1.0000
