data_image0
_chemical_formula_structural       B3LiSe5
_chemical_formula_sum              "B3 Li1 Se5"
_cell_length_a       6.17029
_cell_length_b       6.2795
_cell_length_c       6.72914
_cell_angle_alpha    97.8175
_cell_angle_beta     117.058
_cell_angle_gamma    104.106

_space_group_name_H-M_alt    "P 1"
_space_group_IT_number       1

loop_
  _space_group_symop_operation_xyz
  'x, y, z'

loop_
  _atom_site_type_symbol
  _atom_site_label
  _atom_site_symmetry_multiplicity
  _atom_site_fract_x
  _atom_site_fract_y
  _atom_site_fract_z
  _atom_site_occupancy
  B   B1        1.0  0.66500  0.30100  0.57300  1.0000
  B   B2        1.0  0.49800  0.39100  0.68600  1.0000
  B   B3        1.0  0.57000  0.94000  0.75800  1.0000
  Li  Li1       1.0  0.99800  0.92300  0.45300  1.0000
  Se  Se1       1.0  0.13700  0.33500  0.40100  1.0000
  Se  Se2       1.0  0.59200  0.96600  0.47500  1.0000
  Se  Se3       1.0  0.95100  0.52300  0.58500  1.0000
  Se  Se4       1.0  0.46900  0.16800  0.88700  1.0000
  Se  Se5       1.0  0.65400  0.71400  0.92400  1.0000
