data_image0
_chemical_formula_structural       B3KSe5
_chemical_formula_sum              "B3 K1 Se5"
_cell_length_a       5.25161
_cell_length_b       5.81899
_cell_length_c       8.11297
_cell_angle_alpha    99.4452
_cell_angle_beta     90.4121
_cell_angle_gamma    102.14

_space_group_name_H-M_alt    "P 1"
_space_group_IT_number       1

loop_
  _space_group_symop_operation_xyz
  'x, y, z'

loop_
  _atom_site_type_symbol
  _atom_site_label
  _atom_site_symmetry_multiplicity
  _atom_site_fract_x
  _atom_site_fract_y
  _atom_site_fract_z
  _atom_site_occupancy
  B   B1        1.0  0.05810  0.97300  0.43300  1.0000
  B   B2        1.0  0.02110  0.12800  0.62000  1.0000
  B   B3        1.0  0.01840  0.67400  0.82500  1.0000
  K   K1        1.0  0.49300  0.21800  0.09370  1.0000
  Se  Se1       1.0  0.07270  0.59500  0.04410  1.0000
  Se  Se2       1.0  0.79100  0.83000  0.25600  1.0000
  Se  Se3       1.0  0.43000  0.02850  0.46200  1.0000
  Se  Se4       1.0  0.04160  0.47200  0.61000  1.0000
  Se  Se5       1.0  0.96600  0.00664  0.83400  1.0000
