data_image0
_chemical_formula_structural       Pu6Zn8
_chemical_formula_sum              "Pu6 Zn8"
_cell_length_a       8.26326
_cell_length_b       8.27344
_cell_length_c       4.80031
_cell_angle_alpha    90
_cell_angle_beta     90
_cell_angle_gamma    59.9927

_space_group_name_H-M_alt    "P 1"
_space_group_IT_number       1

loop_
  _space_group_symop_operation_xyz
  'x, y, z'

loop_
  _atom_site_type_symbol
  _atom_site_label
  _atom_site_symmetry_multiplicity
  _atom_site_fract_x
  _atom_site_fract_y
  _atom_site_fract_z
  _atom_site_occupancy
  Pu  Pu1       1.0  0.14700  0.27300  0.00000  1.0000
  Pu  Pu2       1.0  0.29500  0.57500  0.00000  1.0000
  Pu  Pu3       1.0  0.84300  0.72500  0.00000  1.0000
  Pu  Pu4       1.0  0.37700  0.10800  0.50000  1.0000
  Pu  Pu5       1.0  0.67900  0.65700  0.50000  1.0000
  Pu  Pu6       1.0  0.22900  0.80500  0.50000  1.0000
  Zn  Zn1       1.0  0.97500  0.01470  0.00000  1.0000
  Zn  Zn2       1.0  0.58700  0.15400  0.00000  1.0000
  Zn  Zn3       1.0  0.72500  0.40300  0.00000  1.0000
  Zn  Zn4       1.0  0.42700  0.85800  0.00000  1.0000
  Zn  Zn5       1.0  0.93800  0.22700  0.50000  1.0000
  Zn  Zn6       1.0  0.55000  0.36600  0.50000  1.0000
  Zn  Zn7       1.0  0.09460  0.52400  0.50000  1.0000
  Zn  Zn8       1.0  0.79900  0.97800  0.50000  1.0000
