data_image0
_chemical_formula_structural       Al2CSe
_chemical_formula_sum              "Al2 C1 Se1"
_cell_length_a       3.25375
_cell_length_b       3.45865
_cell_length_c       6.03974
_cell_angle_alpha    87.7702
_cell_angle_beta     90.0039
_cell_angle_gamma    61.9156

_space_group_name_H-M_alt    "P 1"
_space_group_IT_number       1

loop_
  _space_group_symop_operation_xyz
  'x, y, z'

loop_
  _atom_site_type_symbol
  _atom_site_label
  _atom_site_symmetry_multiplicity
  _atom_site_fract_x
  _atom_site_fract_y
  _atom_site_fract_z
  _atom_site_occupancy
  Al  Al1       1.0  0.61200  0.71000  0.04980  1.0000
  Al  Al2       1.0  0.33200  0.27100  0.70700  1.0000
  C   C1        1.0  0.01770  0.90000  0.82600  1.0000
  Se  Se1       1.0  0.30500  0.32500  0.29600  1.0000
