data_image0
_chemical_formula_structural       O11Pb4
_chemical_formula_sum              "O11 Pb4"
_cell_length_a       12.4816
_cell_length_b       6.49965
_cell_length_c       3.96067
_cell_angle_alpha    108.926
_cell_angle_beta     102.155
_cell_angle_gamma    123.895

_space_group_name_H-M_alt    "P 1"
_space_group_IT_number       1

loop_
  _space_group_symop_operation_xyz
  'x, y, z'

loop_
  _atom_site_type_symbol
  _atom_site_label
  _atom_site_symmetry_multiplicity
  _atom_site_fract_x
  _atom_site_fract_y
  _atom_site_fract_z
  _atom_site_occupancy
  O   O1        1.0  0.59700  0.26100  0.20900  1.0000
  O   O2        1.0  0.97300  0.52400  0.21500  1.0000
  O   O3        1.0  0.82100  0.04110  0.31300  1.0000
  O   O4        1.0  0.26400  0.53200  0.33700  1.0000
  O   O5        1.0  0.30000  0.91400  0.34100  1.0000
  O   O6        1.0  0.09500  0.37100  0.59300  1.0000
  O   O7        1.0  0.64900  0.89000  0.62300  1.0000
  O   O8        1.0  0.25800  0.53400  0.64900  1.0000
  O   O9        1.0  0.88100  0.69700  0.73900  1.0000
  O   O10       1.0  0.46800  0.48100  0.76500  1.0000
  O   O11       1.0  0.21800  0.13900  0.91300  1.0000
  Pb  Pb1       1.0  0.42300  0.24600  0.08810  1.0000
  Pb  Pb2       1.0  0.61000  0.94800  0.13100  1.0000
  Pb  Pb3       1.0  0.90100  0.08200  0.89000  1.0000
  Pb  Pb4       1.0  0.08230  0.75600  0.94400  1.0000
