data_image0
_chemical_formula_structural       Al2CS
_chemical_formula_sum              "Al2 C1 S1"
_cell_length_a       3.43968
_cell_length_b       3.44323
_cell_length_c       7.16316
_cell_angle_alpha    79.1752
_cell_angle_beta     76.725
_cell_angle_gamma    60.0466

_space_group_name_H-M_alt    "P 1"
_space_group_IT_number       1

loop_
  _space_group_symop_operation_xyz
  'x, y, z'

loop_
  _atom_site_type_symbol
  _atom_site_label
  _atom_site_symmetry_multiplicity
  _atom_site_fract_x
  _atom_site_fract_y
  _atom_site_fract_z
  _atom_site_occupancy
  Al  Al1       1.0  0.73400  0.08690  0.21300  1.0000
  Al  Al2       1.0  0.52100  0.81600  0.89900  1.0000
  C   C1        1.0  0.41400  0.76000  0.17900  1.0000
  S   S1        1.0  0.91600  0.18300  0.73300  1.0000
