data_image0
_chemical_formula_structural       C3SeSr4
_chemical_formula_sum              "C3 Se1 Sr4"
_cell_length_a       4.18869
_cell_length_b       7.64756
_cell_length_c       7.71399
_cell_angle_alpha    106.872
_cell_angle_beta     98.4006
_cell_angle_gamma    99.8266

_space_group_name_H-M_alt    "P 1"
_space_group_IT_number       1

loop_
  _space_group_symop_operation_xyz
  'x, y, z'

loop_
  _atom_site_type_symbol
  _atom_site_label
  _atom_site_symmetry_multiplicity
  _atom_site_fract_x
  _atom_site_fract_y
  _atom_site_fract_z
  _atom_site_occupancy
  C   C1        1.0  0.70300  0.03610  0.50100  1.0000
  C   C2        1.0  0.61300  0.08700  0.66500  1.0000
  C   C3        1.0  0.57400  0.14100  0.84100  1.0000
  Se  Se1       1.0  0.48200  0.73700  0.01700  1.0000
  Sr  Sr1       1.0  0.65500  0.19900  0.20500  1.0000
  Sr  Sr2       1.0  0.09390  0.81400  0.33000  1.0000
  Sr  Sr3       1.0  0.18000  0.34500  0.74200  1.0000
  Sr  Sr4       1.0  0.95800  0.87500  0.79700  1.0000
