data_image0
_chemical_formula_structural       C2Ca5S
_chemical_formula_sum              "C2 Ca5 S1"
_cell_length_a       3.71467
_cell_length_b       6.78533
_cell_length_c       9.23646
_cell_angle_alpha    73.6287
_cell_angle_beta     80.3012
_cell_angle_gamma    74.3431

_space_group_name_H-M_alt    "P 1"
_space_group_IT_number       1

loop_
  _space_group_symop_operation_xyz
  'x, y, z'

loop_
  _atom_site_type_symbol
  _atom_site_label
  _atom_site_symmetry_multiplicity
  _atom_site_fract_x
  _atom_site_fract_y
  _atom_site_fract_z
  _atom_site_occupancy
  C   C1        1.0  0.92700  0.33400  0.45100  1.0000
  C   C2        1.0  0.84900  0.38000  0.58400  1.0000
  Ca  Ca1       1.0  0.90000  0.82200  0.05330  1.0000
  Ca  Ca2       1.0  0.53200  0.25900  0.25800  1.0000
  Ca  Ca3       1.0  0.26400  0.65300  0.46700  1.0000
  Ca  Ca4       1.0  0.47100  0.08270  0.64600  1.0000
  Ca  Ca5       1.0  0.71000  0.44700  0.83900  1.0000
  S   S1        1.0  0.08350  0.76700  0.75700  1.0000
