data_image0
_chemical_formula_structural       Ba5C2S
_chemical_formula_sum              "Ba5 C2 S1"
_cell_length_a       6.19759
_cell_length_b       7.9456
_cell_length_c       8.18949
_cell_angle_alpha    80.8106
_cell_angle_beta     67.6722
_cell_angle_gamma    67.0246

_space_group_name_H-M_alt    "P 1"
_space_group_IT_number       1

loop_
  _space_group_symop_operation_xyz
  'x, y, z'

loop_
  _atom_site_type_symbol
  _atom_site_label
  _atom_site_symmetry_multiplicity
  _atom_site_fract_x
  _atom_site_fract_y
  _atom_site_fract_z
  _atom_site_occupancy
  Ba  Ba1       1.0  0.02130  0.31900  0.25100  1.0000
  Ba  Ba2       1.0  0.63900  0.88800  0.44400  1.0000
  Ba  Ba3       1.0  0.24100  0.47900  0.65100  1.0000
  Ba  Ba4       1.0  0.82200  0.12500  0.84400  1.0000
  Ba  Ba5       1.0  0.43700  0.74300  0.99700  1.0000
  C   C1        1.0  0.38500  0.07420  0.76500  1.0000
  C   C2        1.0  0.27200  0.15600  0.91500  1.0000
  S   S1        1.0  0.73100  0.50800  0.64300  1.0000
