data_image0
_chemical_formula_structural       AuO4P
_chemical_formula_sum              "Au1 O4 P1"
_cell_length_a       4.00393
_cell_length_b       4.74187
_cell_length_c       5.26551
_cell_angle_alpha    114.682
_cell_angle_beta     97.4152
_cell_angle_gamma    108.164

_space_group_name_H-M_alt    "P 1"
_space_group_IT_number       1

loop_
  _space_group_symop_operation_xyz
  'x, y, z'

loop_
  _atom_site_type_symbol
  _atom_site_label
  _atom_site_symmetry_multiplicity
  _atom_site_fract_x
  _atom_site_fract_y
  _atom_site_fract_z
  _atom_site_occupancy
  Au  Au1       1.0  0.12600  0.61000  0.94400  1.0000
  O   O1        1.0  0.01990  0.03100  0.15100  1.0000
  O   O2        1.0  0.50300  0.76400  0.32700  1.0000
  O   O3        1.0  0.80500  0.41700  0.52900  1.0000
  O   O4        1.0  0.14700  0.15500  0.69500  1.0000
  P   P1        1.0  0.86200  0.07530  0.41200  1.0000
