data_image0
_chemical_formula_structural       Cs4SeSi2
_chemical_formula_sum              "Cs4 Se1 Si2"
_cell_length_a       5.86682
_cell_length_b       6.52871
_cell_length_c       10.607
_cell_angle_alpha    76.3166
_cell_angle_beta     75.8891
_cell_angle_gamma    64.7256

_space_group_name_H-M_alt    "P 1"
_space_group_IT_number       1

loop_
  _space_group_symop_operation_xyz
  'x, y, z'

loop_
  _atom_site_type_symbol
  _atom_site_label
  _atom_site_symmetry_multiplicity
  _atom_site_fract_x
  _atom_site_fract_y
  _atom_site_fract_z
  _atom_site_occupancy
  Cs  Cs1       1.0  0.45500  0.99300  0.28900  1.0000
  Cs  Cs2       1.0  0.05380  0.54700  0.53000  1.0000
  Cs  Cs3       1.0  0.66600  0.14900  0.73600  1.0000
  Cs  Cs4       1.0  0.25000  0.69700  0.98300  1.0000
  Se  Se1       1.0  0.35900  0.84500  0.63600  1.0000
  Si  Si1       1.0  0.90600  0.29900  0.04380  1.0000
  Si  Si2       1.0  0.79400  0.38900  0.23700  1.0000
