data_image0
_chemical_formula_structural       C2Ca5Se
_chemical_formula_sum              "C2 Ca5 Se1"
_cell_length_a       4.18546
_cell_length_b       4.18616
_cell_length_c       13.7915
_cell_angle_alpha    97.8953
_cell_angle_beta     97.9663
_cell_angle_gamma    94.8767

_space_group_name_H-M_alt    "P 1"
_space_group_IT_number       1

loop_
  _space_group_symop_operation_xyz
  'x, y, z'

loop_
  _atom_site_type_symbol
  _atom_site_label
  _atom_site_symmetry_multiplicity
  _atom_site_fract_x
  _atom_site_fract_y
  _atom_site_fract_z
  _atom_site_occupancy
  C   C1        1.0  0.48500  0.04240  0.57200  1.0000
  C   C2        1.0  0.27800  0.25000  0.57200  1.0000
  Ca  Ca1       1.0  0.66800  0.42300  0.14000  1.0000
  Ca  Ca2       1.0  0.28700  0.05070  0.38000  1.0000
  Ca  Ca3       1.0  0.88200  0.64600  0.57300  1.0000
  Ca  Ca4       1.0  0.47700  0.23700  0.76300  1.0000
  Ca  Ca5       1.0  0.07200  0.82900  0.95100  1.0000
  Se  Se1       1.0  0.77300  0.53700  0.35200  1.0000
