data_image0
_chemical_formula_structural       AlHg5O4
_chemical_formula_sum              "Al1 Hg5 O4"
_cell_length_a       3.20546
_cell_length_b       5.90006
_cell_length_c       9.60172
_cell_angle_alpha    85.18
_cell_angle_beta     90.6169
_cell_angle_gamma    75.9539

_space_group_name_H-M_alt    "P 1"
_space_group_IT_number       1

loop_
  _space_group_symop_operation_xyz
  'x, y, z'

loop_
  _atom_site_type_symbol
  _atom_site_label
  _atom_site_symmetry_multiplicity
  _atom_site_fract_x
  _atom_site_fract_y
  _atom_site_fract_z
  _atom_site_occupancy
  Al  Al1       1.0  0.77700  0.74300  0.20100  1.0000
  Hg  Hg1       1.0  0.02590  0.23100  0.00832  1.0000
  Hg  Hg2       1.0  0.56900  0.21300  0.37400  1.0000
  Hg  Hg3       1.0  0.27900  0.78300  0.55100  1.0000
  Hg  Hg4       1.0  0.09930  0.24000  0.72900  1.0000
  Hg  Hg5       1.0  0.25600  0.76300  0.85900  1.0000
  O   O1        1.0  0.82200  0.63200  0.03370  1.0000
  O   O2        1.0  0.62800  0.06360  0.18000  1.0000
  O   O3        1.0  0.31500  0.66300  0.27900  1.0000
  O   O4        1.0  0.52300  0.36200  0.56500  1.0000
