data_image0
_chemical_formula_structural       Li8O24Ti10
_chemical_formula_sum              "Li8 O24 Ti10"
_cell_length_a       5.89769
_cell_length_b       17.6833
_cell_length_c       15.5719
_cell_angle_alpha    19.1013
_cell_angle_beta     55.7854
_cell_angle_gamma    60.3816

_space_group_name_H-M_alt    "P 1"
_space_group_IT_number       1

loop_
  _space_group_symop_operation_xyz
  'x, y, z'

loop_
  _atom_site_type_symbol
  _atom_site_label
  _atom_site_symmetry_multiplicity
  _atom_site_fract_x
  _atom_site_fract_y
  _atom_site_fract_z
  _atom_site_occupancy
  Li  Li1       1.0  0.62600  0.45800  0.12500  1.0000
  Li  Li2       1.0  0.24700  0.58100  0.25200  1.0000
  Li  Li3       1.0  0.23900  0.91300  0.25500  1.0000
  Li  Li4       1.0  0.24600  0.24000  0.25900  1.0000
  Li  Li5       1.0  0.62400  0.45900  0.62400  1.0000
  Li  Li6       1.0  0.00465  0.67700  0.99000  1.0000
  Li  Li7       1.0  0.01120  0.00557  0.99400  1.0000
  Li  Li8       1.0  0.00250  0.33600  0.99700  1.0000
  O   O1        1.0  0.84500  0.54100  0.37400  1.0000
  O   O2        1.0  0.37800  0.69700  0.37500  1.0000
  O   O3        1.0  0.38800  0.87300  0.38300  1.0000
  O   O4        1.0  0.83100  0.87200  0.38800  1.0000
  O   O5        1.0  0.38600  0.53500  0.38900  1.0000
  O   O6        1.0  0.38900  0.01770  0.38900  1.0000
  O   O7        1.0  0.37700  0.19000  0.40200  1.0000
  O   O8        1.0  0.87400  0.68900  0.40300  1.0000
  O   O9        1.0  0.86700  0.35200  0.40400  1.0000
  O   O10       1.0  0.83900  0.18900  0.40600  1.0000
  O   O11       1.0  0.86600  0.01580  0.40900  1.0000
  O   O12       1.0  0.37000  0.34300  0.40900  1.0000
  O   O13       1.0  0.88000  0.57500  0.83900  1.0000
  O   O14       1.0  0.38300  0.90100  0.84100  1.0000
  O   O15       1.0  0.41100  0.72700  0.84500  1.0000
  O   O16       1.0  0.38300  0.56600  0.84500  1.0000
  O   O17       1.0  0.37500  0.22900  0.84500  1.0000
  O   O18       1.0  0.87400  0.72600  0.84800  1.0000
  O   O19       1.0  0.86000  0.90000  0.85900  1.0000
  O   O20       1.0  0.86400  0.38300  0.86000  1.0000
  O   O21       1.0  0.41900  0.04660  0.86000  1.0000
  O   O22       1.0  0.86200  0.04520  0.86600  1.0000
  O   O23       1.0  0.87100  0.22200  0.87300  1.0000
  O   O24       1.0  0.40500  0.37700  0.87500  1.0000
  Ti  Ti1       1.0  0.62000  0.13000  0.11500  1.0000
  Ti  Ti2       1.0  0.63100  0.78700  0.13300  1.0000
  Ti  Ti3       1.0  0.13800  0.14000  0.60000  1.0000
  Ti  Ti4       1.0  0.62900  0.14000  0.60500  1.0000
  Ti  Ti5       1.0  0.62900  0.63100  0.61000  1.0000
  Ti  Ti6       1.0  0.12500  0.46000  0.62300  1.0000
  Ti  Ti7       1.0  0.62500  0.95700  0.62600  1.0000
  Ti  Ti8       1.0  0.62100  0.28600  0.64000  1.0000
  Ti  Ti9       1.0  0.62100  0.77800  0.64300  1.0000
  Ti  Ti10      1.0  0.11200  0.77800  0.64800  1.0000
