data_image0
_chemical_formula_structural       Ca2CoF6
_chemical_formula_sum              "Ca2 Co1 F6"
_cell_length_a       3.72727
_cell_length_b       5.20956
_cell_length_c       6.28988
_cell_angle_alpha    66.8954
_cell_angle_beta     71.9647
_cell_angle_gamma    87.5462

_space_group_name_H-M_alt    "P 1"
_space_group_IT_number       1

loop_
  _space_group_symop_operation_xyz
  'x, y, z'

loop_
  _atom_site_type_symbol
  _atom_site_label
  _atom_site_symmetry_multiplicity
  _atom_site_fract_x
  _atom_site_fract_y
  _atom_site_fract_z
  _atom_site_occupancy
  Ca  Ca1       1.0  0.89000  0.57500  0.11300  1.0000
  Ca  Ca2       1.0  0.21900  0.90600  0.45400  1.0000
  Co  Co1       1.0  0.55400  0.24100  0.78300  1.0000
  F   F1        1.0  0.38500  0.83500  0.10100  1.0000
  F   F2        1.0  0.40500  0.31800  0.10400  1.0000
  F   F3        1.0  0.70400  0.16300  0.46200  1.0000
  F   F4        1.0  0.72400  0.64600  0.46500  1.0000
  F   F5        1.0  0.07080  0.47600  0.77800  1.0000
  F   F6        1.0  0.03790  0.00540  0.78800  1.0000
