data_image0
_chemical_formula_structural       F6FeSr2
_chemical_formula_sum              "F6 Fe1 Sr2"
_cell_length_a       5.24387
_cell_length_b       5.24506
_cell_length_c       5.25106
_cell_angle_alpha    69.1491
_cell_angle_beta     69.0495
_cell_angle_gamma    69.0142

_space_group_name_H-M_alt    "P 1"
_space_group_IT_number       1

loop_
  _space_group_symop_operation_xyz
  'x, y, z'

loop_
  _atom_site_type_symbol
  _atom_site_label
  _atom_site_symmetry_multiplicity
  _atom_site_fract_x
  _atom_site_fract_y
  _atom_site_fract_z
  _atom_site_occupancy
  F   F1        1.0  0.02410  0.62000  0.20900  1.0000
  F   F2        1.0  0.93300  0.11200  0.30900  1.0000
  F   F3        1.0  0.44000  0.01230  0.40100  1.0000
  F   F4        1.0  0.12500  0.52900  0.70100  1.0000
  F   F5        1.0  0.63200  0.42900  0.79300  1.0000
  F   F6        1.0  0.54000  0.92200  0.89300  1.0000
  Fe  Fe1       1.0  0.78200  0.77100  0.55100  1.0000
  Sr  Sr1       1.0  0.51800  0.50700  0.28600  1.0000
  Sr  Sr2       1.0  0.04600  0.03410  0.81500  1.0000
