data_image0
_chemical_formula_structural       K6SSi3
_chemical_formula_sum              "K6 S1 Si3"
_cell_length_a       4.42998
_cell_length_b       9.4649
_cell_length_c       9.78072
_cell_angle_alpha    73.0049
_cell_angle_beta     80.8912
_cell_angle_gamma    89.3714

_space_group_name_H-M_alt    "P 1"
_space_group_IT_number       1

loop_
  _space_group_symop_operation_xyz
  'x, y, z'

loop_
  _atom_site_type_symbol
  _atom_site_label
  _atom_site_symmetry_multiplicity
  _atom_site_fract_x
  _atom_site_fract_y
  _atom_site_fract_z
  _atom_site_occupancy
  K   K1        1.0  0.06960  0.91500  0.12500  1.0000
  K   K2        1.0  0.60900  0.50700  0.12600  1.0000
  K   K3        1.0  0.96800  0.18500  0.31700  1.0000
  K   K4        1.0  0.35900  0.73500  0.55900  1.0000
  K   K5        1.0  0.69300  0.08940  0.75200  1.0000
  K   K6        1.0  0.15700  0.35300  0.87200  1.0000
  S   S1        1.0  0.58000  0.16300  0.07550  1.0000
  Si  Si1       1.0  0.06730  0.56200  0.35600  1.0000
  Si  Si2       1.0  0.29500  0.36000  0.50800  1.0000
  Si  Si3       1.0  0.77000  0.44700  0.57900  1.0000
