data_image0
_chemical_formula_structural       Li8Mn10O24
_chemical_formula_sum              "Li8 Mn10 O24"
_cell_length_a       5.76731
_cell_length_b       17.29
_cell_length_c       15.2573
_cell_angle_alpha    19.1234
_cell_angle_beta     55.4137
_cell_angle_gamma    59.9853

_space_group_name_H-M_alt    "P 1"
_space_group_IT_number       1

loop_
  _space_group_symop_operation_xyz
  'x, y, z'

loop_
  _atom_site_type_symbol
  _atom_site_label
  _atom_site_symmetry_multiplicity
  _atom_site_fract_x
  _atom_site_fract_y
  _atom_site_fract_z
  _atom_site_occupancy
  Li  Li1       1.0  0.99700  0.99900  0.00614  1.0000
  Li  Li2       1.0  0.62400  0.45900  0.12400  1.0000
  Li  Li3       1.0  0.25200  0.91900  0.24300  1.0000
  Li  Li4       1.0  0.24100  0.57700  0.25600  1.0000
  Li  Li5       1.0  0.24100  0.24200  0.26300  1.0000
  Li  Li6       1.0  0.62400  0.45800  0.62500  1.0000
  Li  Li7       1.0  0.00776  0.67600  0.98500  1.0000
  Li  Li8       1.0  0.00735  0.34100  0.99200  1.0000
  Mn  Mn1       1.0  0.62700  0.12800  0.11900  1.0000
  Mn  Mn2       1.0  0.62100  0.78900  0.13000  1.0000
  Mn  Mn3       1.0  0.13100  0.12900  0.61800  1.0000
  Mn  Mn4       1.0  0.62500  0.12900  0.61900  1.0000
  Mn  Mn5       1.0  0.62400  0.95900  0.62400  1.0000
  Mn  Mn6       1.0  0.62700  0.62300  0.62400  1.0000
  Mn  Mn7       1.0  0.12400  0.45900  0.62500  1.0000
  Mn  Mn8       1.0  0.62100  0.29400  0.62500  1.0000
  Mn  Mn9       1.0  0.62300  0.78900  0.63000  1.0000
  Mn  Mn10      1.0  0.11800  0.78900  0.63000  1.0000
  O   O1        1.0  0.83900  0.54400  0.37100  1.0000
  O   O2        1.0  0.37800  0.69600  0.37500  1.0000
  O   O3        1.0  0.39300  0.87200  0.38400  1.0000
  O   O4        1.0  0.38400  0.53800  0.38700  1.0000
  O   O5        1.0  0.39000  0.02090  0.38700  1.0000
  O   O6        1.0  0.83600  0.87100  0.38800  1.0000
  O   O7        1.0  0.83600  0.18900  0.40700  1.0000
  O   O8        1.0  0.86400  0.01670  0.40800  1.0000
  O   O9        1.0  0.37300  0.18800  0.40900  1.0000
  O   O10       1.0  0.86500  0.34600  0.41000  1.0000
  O   O11       1.0  0.86900  0.68400  0.41300  1.0000
  O   O12       1.0  0.37100  0.33800  0.41400  1.0000
  O   O13       1.0  0.87700  0.58000  0.83500  1.0000
  O   O14       1.0  0.37900  0.23400  0.83700  1.0000
  O   O15       1.0  0.38400  0.57200  0.83900  1.0000
  O   O16       1.0  0.87500  0.73100  0.84000  1.0000
  O   O17       1.0  0.38500  0.90200  0.84100  1.0000
  O   O18       1.0  0.41200  0.73000  0.84100  1.0000
  O   O19       1.0  0.41300  0.04630  0.86100  1.0000
  O   O20       1.0  0.85900  0.89700  0.86200  1.0000
  O   O21       1.0  0.86500  0.37900  0.86300  1.0000
  O   O22       1.0  0.85600  0.04580  0.86500  1.0000
  O   O23       1.0  0.87000  0.22100  0.87500  1.0000
  O   O24       1.0  0.40900  0.37400  0.87900  1.0000
