data_image0
_chemical_formula_structural       Li7O24Ti11
_chemical_formula_sum              "Li7 O24 Ti11"
_cell_length_a       5.92118
_cell_length_b       10.2439
_cell_length_c       8.37221
_cell_angle_alpha    114.256
_cell_angle_beta     89.9878
_cell_angle_gamma    73.1993

_space_group_name_H-M_alt    "P 1"
_space_group_IT_number       1

loop_
  _space_group_symop_operation_xyz
  'x, y, z'

loop_
  _atom_site_type_symbol
  _atom_site_label
  _atom_site_symmetry_multiplicity
  _atom_site_fract_x
  _atom_site_fract_y
  _atom_site_fract_z
  _atom_site_occupancy
  Li  Li1       1.0  0.49800  0.00269  0.25400  1.0000
  Li  Li2       1.0  0.66900  0.66400  0.33200  1.0000
  Li  Li3       1.0  0.16600  0.67000  0.58500  1.0000
  Li  Li4       1.0  0.33300  0.33100  0.66400  1.0000
  Li  Li5       1.0  0.83300  0.33400  0.92200  1.0000
  Li  Li6       1.0  0.41900  0.16600  0.96000  1.0000
  Li  Li7       1.0  0.00000  0.00017  0.99700  1.0000
  O   O1        1.0  0.59000  0.82000  0.02400  1.0000
  O   O2        1.0  0.09040  0.81800  0.04490  1.0000
  O   O3        1.0  0.09480  0.34300  0.06190  1.0000
  O   O4        1.0  0.56300  0.34300  0.06330  1.0000
  O   O5        1.0  0.94100  0.66700  0.19700  1.0000
  O   O6        1.0  0.39200  0.66700  0.19700  1.0000
  O   O7        1.0  0.40500  0.18700  0.22000  1.0000
  O   O8        1.0  0.90800  0.18100  0.22600  1.0000
  O   O9        1.0  0.25600  0.48600  0.35800  1.0000
  O   O10       1.0  0.75700  0.48400  0.38200  1.0000
  O   O11       1.0  0.77400  0.00000  0.38600  1.0000
  O   O12       1.0  0.22500  0.00000  0.38700  1.0000
  O   O13       1.0  0.05880  0.33300  0.53000  1.0000
  O   O14       1.0  0.60700  0.33300  0.53100  1.0000
  O   O15       1.0  0.07480  0.85000  0.53600  1.0000
  O   O16       1.0  0.57600  0.84800  0.56000  1.0000
  O   O17       1.0  0.92300  0.15200  0.69200  1.0000
  O   O18       1.0  0.42600  0.14600  0.69800  1.0000
  O   O19       1.0  0.89300  0.66600  0.72000  1.0000
  O   O20       1.0  0.44200  0.66600  0.72000  1.0000
  O   O21       1.0  0.73900  0.99100  0.85500  1.0000
  O   O22       1.0  0.27100  0.99100  0.85500  1.0000
  O   O23       1.0  0.74200  0.51500  0.87200  1.0000
  O   O24       1.0  0.24300  0.51300  0.89300  1.0000
  Ti  Ti1       1.0  0.25600  0.49100  0.11900  1.0000
  Ti  Ti2       1.0  0.08820  0.32900  0.28300  1.0000
  Ti  Ti3       1.0  0.57900  0.32900  0.28600  1.0000
  Ti  Ti4       1.0  0.08280  0.83400  0.29300  1.0000
  Ti  Ti5       1.0  0.91700  0.16600  0.45800  1.0000
  Ti  Ti6       1.0  0.75100  0.49900  0.62500  1.0000
  Ti  Ti7       1.0  0.74200  0.00497  0.63300  1.0000
  Ti  Ti8       1.0  0.25200  0.00429  0.63400  1.0000
  Ti  Ti9       1.0  0.58000  0.84200  0.79800  1.0000
  Ti  Ti10      1.0  0.41600  0.66700  0.95800  1.0000
  Ti  Ti11      1.0  0.91700  0.66600  0.95900  1.0000
