data_image0
_chemical_formula_structural       Cl6Fe2Sn
_chemical_formula_sum              "Cl6 Fe2 Sn1"
_cell_length_a       6.06916
_cell_length_b       6.06902
_cell_length_c       7.20963
_cell_angle_alpha    100.592
_cell_angle_beta     100.607
_cell_angle_gamma    113.762

_space_group_name_H-M_alt    "P 1"
_space_group_IT_number       1

loop_
  _space_group_symop_operation_xyz
  'x, y, z'

loop_
  _atom_site_type_symbol
  _atom_site_label
  _atom_site_symmetry_multiplicity
  _atom_site_fract_x
  _atom_site_fract_y
  _atom_site_fract_z
  _atom_site_occupancy
  Cl  Cl1       1.0  0.73500  0.43200  0.27200  1.0000
  Cl  Cl2       1.0  0.09490  0.07190  0.27200  1.0000
  Cl  Cl3       1.0  0.60100  0.93900  0.45400  1.0000
  Cl  Cl4       1.0  0.48900  0.45100  0.72300  1.0000
  Cl  Cl5       1.0  0.11400  0.82600  0.72300  1.0000
  Cl  Cl6       1.0  0.97800  0.31500  0.89400  1.0000
  Fe  Fe1       1.0  0.81200  0.39900  0.59800  1.0000
  Fe  Fe2       1.0  0.06180  0.15000  0.59800  1.0000
  Sn  Sn1       1.0  0.64800  0.98600  0.07740  1.0000
