data_image0
_chemical_formula_structural       Al4C4S
_chemical_formula_sum              "Al4 C4 S1"
_cell_length_a       3.43712
_cell_length_b       6.47981
_cell_length_c       6.52578
_cell_angle_alpha    68.1816
_cell_angle_beta     74.739
_cell_angle_gamma    89.9172

_space_group_name_H-M_alt    "P 1"
_space_group_IT_number       1

loop_
  _space_group_symop_operation_xyz
  'x, y, z'

loop_
  _atom_site_type_symbol
  _atom_site_label
  _atom_site_symmetry_multiplicity
  _atom_site_fract_x
  _atom_site_fract_y
  _atom_site_fract_z
  _atom_site_occupancy
  Al  Al1       1.0  0.51600  0.96700  0.15500  1.0000
  Al  Al2       1.0  0.98700  0.34000  0.20900  1.0000
  Al  Al3       1.0  0.28100  0.05350  0.62300  1.0000
  Al  Al4       1.0  0.72100  0.39000  0.74100  1.0000
  C   C1        1.0  0.55400  0.28700  0.07640  1.0000
  C   C2        1.0  0.34100  0.79400  0.50300  1.0000
  C   C3        1.0  0.81500  0.20800  0.55400  1.0000
  C   C4        1.0  0.27700  0.58900  0.62800  1.0000
  S   S1        1.0  0.07350  0.79900  0.04020  1.0000
