data_image0
_chemical_formula_structural       K6SeSi3
_chemical_formula_sum              "K6 Se1 Si3"
_cell_length_a       6.00925
_cell_length_b       7.89036
_cell_length_c       8.72441
_cell_angle_alpha    106.214
_cell_angle_beta     97.4128
_cell_angle_gamma    96.2482

_space_group_name_H-M_alt    "P 1"
_space_group_IT_number       1

loop_
  _space_group_symop_operation_xyz
  'x, y, z'

loop_
  _atom_site_type_symbol
  _atom_site_label
  _atom_site_symmetry_multiplicity
  _atom_site_fract_x
  _atom_site_fract_y
  _atom_site_fract_z
  _atom_site_occupancy
  K   K1        1.0  0.55800  0.51900  0.24000  1.0000
  K   K2        1.0  0.42400  0.04390  0.27000  1.0000
  K   K3        1.0  0.96400  0.04050  0.55800  1.0000
  K   K4        1.0  0.20700  0.61600  0.59400  1.0000
  K   K5        1.0  0.82600  0.81400  0.92500  1.0000
  K   K6        1.0  0.00541  0.35800  0.96400  1.0000
  Se  Se1       1.0  0.05610  0.72100  0.25400  1.0000
  Si  Si1       1.0  0.66800  0.40300  0.60100  1.0000
  Si  Si2       1.0  0.50400  0.24500  0.74100  1.0000
  Si  Si3       1.0  0.39500  0.07560  0.89100  1.0000
