data_image0
_chemical_formula_structural       Na6SSi3
_chemical_formula_sum              "Na6 S1 Si3"
_cell_length_a       5.61598
_cell_length_b       6.66217
_cell_length_c       7.74586
_cell_angle_alpha    107.007
_cell_angle_beta     100.679
_cell_angle_gamma    95.3939

_space_group_name_H-M_alt    "P 1"
_space_group_IT_number       1

loop_
  _space_group_symop_operation_xyz
  'x, y, z'

loop_
  _atom_site_type_symbol
  _atom_site_label
  _atom_site_symmetry_multiplicity
  _atom_site_fract_x
  _atom_site_fract_y
  _atom_site_fract_z
  _atom_site_occupancy
  Na  Na1       1.0  0.47600  0.69600  0.01150  1.0000
  Na  Na2       1.0  0.23100  0.27500  0.08860  1.0000
  Na  Na3       1.0  0.79100  0.29300  0.35300  1.0000
  Na  Na4       1.0  0.06120  0.87800  0.35900  1.0000
  Na  Na5       1.0  0.63600  0.10400  0.74000  1.0000
  Na  Na6       1.0  0.91400  0.69500  0.74700  1.0000
  S   S1        1.0  0.84600  0.99200  0.04980  1.0000
  Si  Si1       1.0  0.52400  0.67100  0.39800  1.0000
  Si  Si2       1.0  0.35000  0.48800  0.55100  1.0000
  Si  Si3       1.0  0.17200  0.30800  0.70300  1.0000
