data_image0
_chemical_formula_structural       Hg4P3Ta
_chemical_formula_sum              "Hg4 P3 Ta1"
_cell_length_a       3.31564
_cell_length_b       3.63205
_cell_length_c       16.7362
_cell_angle_alpha    86.7473
_cell_angle_beta     84.1157
_cell_angle_gamma    62.8422

_space_group_name_H-M_alt    "P 1"
_space_group_IT_number       1

loop_
  _space_group_symop_operation_xyz
  'x, y, z'

loop_
  _atom_site_type_symbol
  _atom_site_label
  _atom_site_symmetry_multiplicity
  _atom_site_fract_x
  _atom_site_fract_y
  _atom_site_fract_z
  _atom_site_occupancy
  Hg  Hg1       1.0  0.96100  0.58900  0.36900  1.0000
  Hg  Hg2       1.0  0.18300  0.00718  0.50900  1.0000
  Hg  Hg3       1.0  0.41100  0.50300  0.65800  1.0000
  Hg  Hg4       1.0  0.55500  0.97200  0.81000  1.0000
  P   P1        1.0  0.07940  0.70500  0.03000  1.0000
  P   P2        1.0  0.00734  0.65800  0.21400  1.0000
  P   P3        1.0  0.73700  0.46800  0.95500  1.0000
  Ta  Ta1       1.0  0.73000  0.30500  0.12600  1.0000
