data_image0
_chemical_formula_structural       Al4C4Se
_chemical_formula_sum              "Al4 C4 Se1"
_cell_length_a       3.43657
_cell_length_b       6.24113
_cell_length_c       7.33549
_cell_angle_alpha    114.351
_cell_angle_beta     89.9829
_cell_angle_gamma    90.0215

_space_group_name_H-M_alt    "P 1"
_space_group_IT_number       1

loop_
  _space_group_symop_operation_xyz
  'x, y, z'

loop_
  _atom_site_type_symbol
  _atom_site_label
  _atom_site_symmetry_multiplicity
  _atom_site_fract_x
  _atom_site_fract_y
  _atom_site_fract_z
  _atom_site_occupancy
  Al  Al1       1.0  0.62800  0.05870  0.09380  1.0000
  Al  Al2       1.0  0.62800  0.59600  0.42000  1.0000
  Al  Al3       1.0  0.12800  0.27700  0.50800  1.0000
  Al  Al4       1.0  0.12800  0.35200  0.88100  1.0000
  C   C1        1.0  0.62800  0.26400  0.37300  1.0000
  C   C2        1.0  0.12800  0.74100  0.56000  1.0000
  C   C3        1.0  0.12800  0.88900  0.74500  1.0000
  C   C4        1.0  0.12800  0.05400  0.93700  1.0000
  Se  Se1       1.0  0.62800  0.63300  0.09230  1.0000
