data_image0
_chemical_formula_structural       Rb6SSi3
_chemical_formula_sum              "Rb6 S1 Si3"
_cell_length_a       4.66921
_cell_length_b       8.92393
_cell_length_c       11.4559
_cell_angle_alpha    92.3375
_cell_angle_beta     93.8879
_cell_angle_gamma    100.462

_space_group_name_H-M_alt    "P 1"
_space_group_IT_number       1

loop_
  _space_group_symop_operation_xyz
  'x, y, z'

loop_
  _atom_site_type_symbol
  _atom_site_label
  _atom_site_symmetry_multiplicity
  _atom_site_fract_x
  _atom_site_fract_y
  _atom_site_fract_z
  _atom_site_occupancy
  Rb  Rb1       1.0  0.13000  0.18900  0.12000  1.0000
  Rb  Rb2       1.0  0.66600  0.69000  0.32700  1.0000
  Rb  Rb3       1.0  0.55600  0.08970  0.40000  1.0000
  Rb  Rb4       1.0  0.19100  0.44400  0.66600  1.0000
  Rb  Rb5       1.0  0.56500  0.03950  0.83900  1.0000
  Rb  Rb6       1.0  0.95800  0.72400  0.99800  1.0000
  S   S1        1.0  0.54900  0.93800  0.12100  1.0000
  Si  Si1       1.0  0.23000  0.79200  0.55400  1.0000
  Si  Si2       1.0  0.04740  0.00635  0.61700  1.0000
  Si  Si3       1.0  0.76300  0.77100  0.65400  1.0000
