data_image0
_chemical_formula_structural       Cd4N3O
_chemical_formula_sum              "Cd4 N3 O1"
_cell_length_a       3.64078
_cell_length_b       6.431
_cell_length_c       7.97067
_cell_angle_alpha    70.0668
_cell_angle_beta     87.4897
_cell_angle_gamma    89.1257

_space_group_name_H-M_alt    "P 1"
_space_group_IT_number       1

loop_
  _space_group_symop_operation_xyz
  'x, y, z'

loop_
  _atom_site_type_symbol
  _atom_site_label
  _atom_site_symmetry_multiplicity
  _atom_site_fract_x
  _atom_site_fract_y
  _atom_site_fract_z
  _atom_site_occupancy
  Cd  Cd1       1.0  0.05730  0.25100  0.17800  1.0000
  Cd  Cd2       1.0  0.53800  0.28100  0.52700  1.0000
  Cd  Cd3       1.0  0.07190  0.79000  0.54500  1.0000
  Cd  Cd4       1.0  0.58600  0.41800  0.89700  1.0000
  N   N1        1.0  0.36900  0.85600  0.10000  1.0000
  N   N2        1.0  0.04970  0.14300  0.46400  1.0000
  N   N3        1.0  0.38200  0.80500  0.97800  1.0000
  O   O1        1.0  0.56800  0.57900  0.60900  1.0000
