data_image0
_chemical_formula_structural       C4SSr5
_chemical_formula_sum              "C4 S1 Sr5"
_cell_length_a       6.62611
_cell_length_b       7.31082
_cell_length_c       7.33005
_cell_angle_alpha    79.4411
_cell_angle_beta     63.2382
_cell_angle_gamma    63.0593

_space_group_name_H-M_alt    "P 1"
_space_group_IT_number       1

loop_
  _space_group_symop_operation_xyz
  'x, y, z'

loop_
  _atom_site_type_symbol
  _atom_site_label
  _atom_site_symmetry_multiplicity
  _atom_site_fract_x
  _atom_site_fract_y
  _atom_site_fract_z
  _atom_site_occupancy
  C   C1        1.0  0.93200  0.88100  0.28100  1.0000
  C   C2        1.0  0.73900  0.88100  0.28200  1.0000
  C   C3        1.0  0.33100  0.67500  0.69000  1.0000
  C   C4        1.0  0.13800  0.67500  0.69000  1.0000
  S   S1        1.0  0.43500  0.07890  0.88700  1.0000
  Sr  Sr1       1.0  0.13600  0.48700  0.07550  1.0000
  Sr  Sr2       1.0  0.33400  0.87200  0.29400  1.0000
  Sr  Sr3       1.0  0.53300  0.27600  0.49100  1.0000
  Sr  Sr4       1.0  0.74300  0.68400  0.66400  1.0000
  Sr  Sr5       1.0  0.93700  0.05810  0.90100  1.0000
