data_image0
_chemical_formula_structural       C5Mn4Se
_chemical_formula_sum              "C5 Mn4 Se1"
_cell_length_a       2.743
_cell_length_b       3.59652
_cell_length_c       11.5144
_cell_angle_alpha    81.4009
_cell_angle_beta     89.9885
_cell_angle_gamma    67.5987

_space_group_name_H-M_alt    "P 1"
_space_group_IT_number       1

loop_
  _space_group_symop_operation_xyz
  'x, y, z'

loop_
  _atom_site_type_symbol
  _atom_site_label
  _atom_site_symmetry_multiplicity
  _atom_site_fract_x
  _atom_site_fract_y
  _atom_site_fract_z
  _atom_site_occupancy
  C   C1        1.0  0.97200  0.19200  0.23000  1.0000
  C   C2        1.0  0.31700  0.50300  0.42000  1.0000
  C   C3        1.0  0.18700  0.76300  0.50700  1.0000
  C   C4        1.0  0.23200  0.67200  0.63100  1.0000
  C   C5        1.0  0.40700  0.32100  0.71400  1.0000
  Mn  Mn1       1.0  0.51600  0.10500  0.10600  1.0000
  Mn  Mn2       1.0  0.27000  0.59700  0.24900  1.0000
  Mn  Mn3       1.0  0.59300  0.95000  0.38800  1.0000
  Mn  Mn4       1.0  0.69400  0.74800  0.75200  1.0000
  Se  Se1       1.0  0.76800  0.60100  0.96800  1.0000
