data_image0
_chemical_formula_structural       Ba5C4Se
_chemical_formula_sum              "Ba5 C4 Se1"
_cell_length_a       4.39979
_cell_length_b       8.19496
_cell_length_c       9.52665
_cell_angle_alpha    82.7358
_cell_angle_beta     87.6192
_cell_angle_gamma    86.5014

_space_group_name_H-M_alt    "P 1"
_space_group_IT_number       1

loop_
  _space_group_symop_operation_xyz
  'x, y, z'

loop_
  _atom_site_type_symbol
  _atom_site_label
  _atom_site_symmetry_multiplicity
  _atom_site_fract_x
  _atom_site_fract_y
  _atom_site_fract_z
  _atom_site_occupancy
  Ba  Ba1       1.0  0.81800  0.19900  0.10500  1.0000
  Ba  Ba2       1.0  0.88000  0.61800  0.29200  1.0000
  Ba  Ba3       1.0  0.84500  0.99900  0.53400  1.0000
  Ba  Ba4       1.0  0.24200  0.37200  0.73300  1.0000
  Ba  Ba5       1.0  0.43200  0.82000  0.92400  1.0000
  C   C1        1.0  0.26700  0.45000  0.02410  1.0000
  C   C2        1.0  0.40800  0.50100  0.12300  1.0000
  C   C3        1.0  0.73100  0.14800  0.80300  1.0000
  C   C4        1.0  0.94500  0.03760  0.84200  1.0000
  Se  Se1       1.0  0.35200  0.92800  0.26700  1.0000
