data_image0
_chemical_formula_structural       AlO6Tl3
_chemical_formula_sum              "Al1 O6 Tl3"
_cell_length_a       3.40738
_cell_length_b       6.14944
_cell_length_c       6.16679
_cell_angle_alpha    86.7224
_cell_angle_beta     89.9972
_cell_angle_gamma    89.9973

_space_group_name_H-M_alt    "P 1"
_space_group_IT_number       1

loop_
  _space_group_symop_operation_xyz
  'x, y, z'

loop_
  _atom_site_type_symbol
  _atom_site_label
  _atom_site_symmetry_multiplicity
  _atom_site_fract_x
  _atom_site_fract_y
  _atom_site_fract_z
  _atom_site_occupancy
  Al  Al1       1.0  0.23500  0.51100  0.30500  1.0000
  O   O1        1.0  0.23500  0.49600  0.01610  1.0000
  O   O2        1.0  0.73500  0.08910  0.05570  1.0000
  O   O3        1.0  0.23500  0.80000  0.32100  1.0000
  O   O4        1.0  0.73500  0.42800  0.38700  1.0000
  O   O5        1.0  0.23500  0.17400  0.64300  1.0000
  O   O6        1.0  0.73500  0.76100  0.72700  1.0000
  Tl  Tl1       1.0  0.73500  0.01180  0.42600  1.0000
  Tl  Tl2       1.0  0.73500  0.39100  0.80500  1.0000
  Tl  Tl3       1.0  0.23500  0.88700  0.92900  1.0000
