data_image0
_chemical_formula_structural       C4Ca5S
_chemical_formula_sum              "C4 Ca5 S1"
_cell_length_a       5.39042
_cell_length_b       6.86352
_cell_length_c       7.26231
_cell_angle_alpha    78.1037
_cell_angle_beta     68.2148
_cell_angle_gamma    66.8709

_space_group_name_H-M_alt    "P 1"
_space_group_IT_number       1

loop_
  _space_group_symop_operation_xyz
  'x, y, z'

loop_
  _atom_site_type_symbol
  _atom_site_label
  _atom_site_symmetry_multiplicity
  _atom_site_fract_x
  _atom_site_fract_y
  _atom_site_fract_z
  _atom_site_occupancy
  C   C1        1.0  0.87600  0.96600  0.12000  1.0000
  C   C2        1.0  0.74800  0.05690  0.28600  1.0000
  C   C3        1.0  0.48200  0.58400  0.29100  1.0000
  C   C4        1.0  0.35900  0.65600  0.46500  1.0000
  Ca  Ca1       1.0  0.31200  0.00419  0.21100  1.0000
  Ca  Ca2       1.0  0.93600  0.61900  0.34800  1.0000
  Ca  Ca3       1.0  0.49800  0.25200  0.59100  1.0000
  Ca  Ca4       1.0  0.11900  0.80700  0.79200  1.0000
  Ca  Ca5       1.0  0.73300  0.37800  0.99500  1.0000
  S   S1        1.0  0.22900  0.39800  0.98300  1.0000
