data_image0
_chemical_formula_structural       Cs6SeSi3
_chemical_formula_sum              "Cs6 Se1 Si3"
_cell_length_a       6.91146
_cell_length_b       7.06517
_cell_length_c       10.693
_cell_angle_alpha    102.906
_cell_angle_beta     96.4693
_cell_angle_gamma    114.105

_space_group_name_H-M_alt    "P 1"
_space_group_IT_number       1

loop_
  _space_group_symop_operation_xyz
  'x, y, z'

loop_
  _atom_site_type_symbol
  _atom_site_label
  _atom_site_symmetry_multiplicity
  _atom_site_fract_x
  _atom_site_fract_y
  _atom_site_fract_z
  _atom_site_occupancy
  Cs  Cs1       1.0  0.07440  0.04060  0.11000  1.0000
  Cs  Cs2       1.0  0.44200  0.79800  0.26300  1.0000
  Cs  Cs3       1.0  0.84300  0.45700  0.33000  1.0000
  Cs  Cs4       1.0  0.68000  0.06100  0.66200  1.0000
  Cs  Cs5       1.0  0.07670  0.72000  0.72700  1.0000
  Cs  Cs6       1.0  0.44100  0.47100  0.88200  1.0000
  Se  Se1       1.0  0.92100  0.41800  0.99800  1.0000
  Si  Si1       1.0  0.14000  0.09160  0.48400  1.0000
  Si  Si2       1.0  0.37400  0.42500  0.50600  1.0000
  Si  Si3       1.0  0.58700  0.08870  0.99400  1.0000
