data_image0
_chemical_formula_structural       C4Ca5Se
_chemical_formula_sum              "C4 Ca5 Se1"
_cell_length_a       3.79238
_cell_length_b       6.99288
_cell_length_c       8.93419
_cell_angle_alpha    77.5562
_cell_angle_beta     77.9135
_cell_angle_gamma    78.141

_space_group_name_H-M_alt    "P 1"
_space_group_IT_number       1

loop_
  _space_group_symop_operation_xyz
  'x, y, z'

loop_
  _atom_site_type_symbol
  _atom_site_label
  _atom_site_symmetry_multiplicity
  _atom_site_fract_x
  _atom_site_fract_y
  _atom_site_fract_z
  _atom_site_occupancy
  C   C1        1.0  0.10900  0.19700  0.50100  1.0000
  C   C2        1.0  0.34800  0.05340  0.55100  1.0000
  C   C3        1.0  0.43700  0.52100  0.70100  1.0000
  C   C4        1.0  0.36200  0.57500  0.83600  1.0000
  Ca  Ca1       1.0  0.72700  0.64800  0.02920  1.0000
  Ca  Ca2       1.0  0.40800  0.07870  0.23200  1.0000
  Ca  Ca3       1.0  0.57300  0.43700  0.43700  1.0000
  Ca  Ca4       1.0  0.88200  0.81000  0.61900  1.0000
  Ca  Ca5       1.0  0.01120  0.24800  0.79800  1.0000
  Se  Se1       1.0  0.03570  0.74300  0.28000  1.0000
