data_image0
_chemical_formula_structural       C4SeSr5
_chemical_formula_sum              "C4 Se1 Sr5"
_cell_length_a       4.19217
_cell_length_b       7.74346
_cell_length_c       9.7369
_cell_angle_alpha    73.4813
_cell_angle_beta     77.6107
_cell_angle_gamma    74.7804

_space_group_name_H-M_alt    "P 1"
_space_group_IT_number       1

loop_
  _space_group_symop_operation_xyz
  'x, y, z'

loop_
  _atom_site_type_symbol
  _atom_site_label
  _atom_site_symmetry_multiplicity
  _atom_site_fract_x
  _atom_site_fract_y
  _atom_site_fract_z
  _atom_site_occupancy
  C   C1        1.0  0.65800  0.89200  0.45000  1.0000
  C   C2        1.0  0.55900  0.99200  0.54200  1.0000
  C   C3        1.0  0.96200  0.85000  0.86400  1.0000
  C   C4        1.0  0.04480  0.67700  0.91600  1.0000
  Se  Se1       1.0  0.21400  0.12600  0.11100  1.0000
  Sr  Sr1       1.0  0.61600  0.43900  0.00185  1.0000
  Sr  Sr2       1.0  0.82700  0.81700  0.18700  1.0000
  Sr  Sr3       1.0  0.01450  0.22300  0.40900  1.0000
  Sr  Sr4       1.0  0.18100  0.68300  0.60800  1.0000
  Sr  Sr5       1.0  0.38500  0.08290  0.79500  1.0000
