data_image0
_chemical_formula_structural       Mg4Ni2
_chemical_formula_sum              "Mg4 Ni2"
_cell_length_a       2.9931
_cell_length_b       2.99309
_cell_length_c       13.2613
_cell_angle_alpha    90
_cell_angle_beta     90
_cell_angle_gamma    120

_space_group_name_H-M_alt    "P 1"
_space_group_IT_number       1

loop_
  _space_group_symop_operation_xyz
  'x, y, z'

loop_
  _atom_site_type_symbol
  _atom_site_label
  _atom_site_symmetry_multiplicity
  _atom_site_fract_x
  _atom_site_fract_y
  _atom_site_fract_z
  _atom_site_occupancy
  Mg  Mg1       1.0  0.00000  0.00000  0.01950  1.0000
  Mg  Mg2       1.0  0.00000  0.00000  0.31400  1.0000
  Mg  Mg3       1.0  0.66700  0.33300  0.52000  1.0000
  Mg  Mg4       1.0  0.66700  0.33300  0.81400  1.0000
  Ni  Ni1       1.0  0.66700  0.33300  0.16700  1.0000
  Ni  Ni2       1.0  0.00000  0.00000  0.66700  1.0000
