data_image0
_chemical_formula_structural       AlMn3Se6
_chemical_formula_sum              "Al1 Mn3 Se6"
_cell_length_a       3.6743
_cell_length_b       6.47235
_cell_length_c       9.26005
_cell_angle_alpha    97.4899
_cell_angle_beta     101.44
_cell_angle_gamma    90.0027

_space_group_name_H-M_alt    "P 1"
_space_group_IT_number       1

loop_
  _space_group_symop_operation_xyz
  'x, y, z'

loop_
  _atom_site_type_symbol
  _atom_site_label
  _atom_site_symmetry_multiplicity
  _atom_site_fract_x
  _atom_site_fract_y
  _atom_site_fract_z
  _atom_site_occupancy
  Al  Al1       1.0  0.65200  0.24600  0.24100  1.0000
  Mn  Mn1       1.0  0.28800  0.46000  0.51400  1.0000
  Mn  Mn2       1.0  0.44700  0.52900  0.83100  1.0000
  Mn  Mn3       1.0  0.95000  0.98200  0.83800  1.0000
  Se  Se1       1.0  0.20700  0.08820  0.35200  1.0000
  Se  Se2       1.0  0.71100  0.59700  0.35900  1.0000
  Se  Se3       1.0  0.36800  0.81100  0.67400  1.0000
  Se  Se4       1.0  0.87100  0.31800  0.67900  1.0000
  Se  Se5       1.0  0.51600  0.20900  0.97000  1.0000
  Se  Se6       1.0  0.02770  0.69300  0.99300  1.0000
