data_image0
_chemical_formula_structural       AlO6P3
_chemical_formula_sum              "Al1 O6 P3"
_cell_length_a       5.32436
_cell_length_b       5.80615
_cell_length_c       6.14333
_cell_angle_alpha    70.1728
_cell_angle_beta     59.9761
_cell_angle_gamma    75.5073

_space_group_name_H-M_alt    "P 1"
_space_group_IT_number       1

loop_
  _space_group_symop_operation_xyz
  'x, y, z'

loop_
  _atom_site_type_symbol
  _atom_site_label
  _atom_site_symmetry_multiplicity
  _atom_site_fract_x
  _atom_site_fract_y
  _atom_site_fract_z
  _atom_site_occupancy
  Al  Al1       1.0  0.75900  0.16200  0.72700  1.0000
  O   O1        1.0  0.73800  0.98300  0.04140  1.0000
  O   O2        1.0  0.44000  0.61500  0.28200  1.0000
  O   O3        1.0  0.11800  0.26300  0.47400  1.0000
  O   O4        1.0  0.85100  0.87700  0.61500  1.0000
  O   O5        1.0  0.45800  0.24700  0.65200  1.0000
  O   O6        1.0  0.65500  0.44800  0.84200  1.0000
  P   P1        1.0  0.78700  0.70000  0.15700  1.0000
  P   P2        1.0  0.26800  0.41300  0.53000  1.0000
  P   P3        1.0  0.87600  0.61400  0.78200  1.0000
