data_image0
_chemical_formula_structural       Te12Zr24
_chemical_formula_sum              "Te12 Zr24"
_cell_length_a       20.0665
_cell_length_b       3.85161
_cell_length_c       10.7511
_cell_angle_alpha    90
_cell_angle_beta     90
_cell_angle_gamma    90

_space_group_name_H-M_alt    "P 1"
_space_group_IT_number       1

loop_
  _space_group_symop_operation_xyz
  'x, y, z'

loop_
  _atom_site_type_symbol
  _atom_site_label
  _atom_site_symmetry_multiplicity
  _atom_site_fract_x
  _atom_site_fract_y
  _atom_site_fract_z
  _atom_site_occupancy
  Te  Te1       1.0  0.26000  0.25000  0.03800  1.0000
  Te  Te2       1.0  0.92700  0.75000  0.16200  1.0000
  Te  Te3       1.0  0.13100  0.75000  0.21900  1.0000
  Te  Te4       1.0  0.63100  0.75000  0.28100  1.0000
  Te  Te5       1.0  0.42700  0.75000  0.33800  1.0000
  Te  Te6       1.0  0.76000  0.25000  0.46200  1.0000
  Te  Te7       1.0  0.24000  0.75000  0.53800  1.0000
  Te  Te8       1.0  0.57300  0.25000  0.66200  1.0000
  Te  Te9       1.0  0.36900  0.25000  0.71900  1.0000
  Te  Te10      1.0  0.86900  0.25000  0.78100  1.0000
  Te  Te11      1.0  0.07290  0.25000  0.83800  1.0000
  Te  Te12      1.0  0.74000  0.75000  0.96200  1.0000
  Zr  Zr1       1.0  0.84100  0.25000  0.04210  1.0000
  Zr  Zr2       1.0  0.64600  0.25000  0.07810  1.0000
  Zr  Zr3       1.0  0.51500  0.75000  0.10900  1.0000
  Zr  Zr4       1.0  0.03300  0.25000  0.11200  1.0000
  Zr  Zr5       1.0  0.39600  0.25000  0.14600  1.0000
  Zr  Zr6       1.0  0.77600  0.75000  0.24800  1.0000
  Zr  Zr7       1.0  0.27600  0.75000  0.25200  1.0000
  Zr  Zr8       1.0  0.89600  0.25000  0.35400  1.0000
  Zr  Zr9       1.0  0.53300  0.25000  0.38800  1.0000
  Zr  Zr10      1.0  0.01540  0.75000  0.39100  1.0000
  Zr  Zr11      1.0  0.14600  0.25000  0.42200  1.0000
  Zr  Zr12      1.0  0.34100  0.25000  0.45800  1.0000
  Zr  Zr13      1.0  0.65900  0.75000  0.54200  1.0000
  Zr  Zr14      1.0  0.85400  0.75000  0.57800  1.0000
  Zr  Zr15      1.0  0.98500  0.25000  0.60900  1.0000
  Zr  Zr16      1.0  0.46700  0.75000  0.61200  1.0000
  Zr  Zr17      1.0  0.10400  0.75000  0.64600  1.0000
  Zr  Zr18      1.0  0.72400  0.25000  0.74800  1.0000
  Zr  Zr19      1.0  0.22400  0.25000  0.75200  1.0000
  Zr  Zr20      1.0  0.60400  0.75000  0.85400  1.0000
  Zr  Zr21      1.0  0.96700  0.75000  0.88800  1.0000
  Zr  Zr22      1.0  0.48500  0.25000  0.89100  1.0000
  Zr  Zr23      1.0  0.35400  0.75000  0.92200  1.0000
  Zr  Zr24      1.0  0.15900  0.75000  0.95800  1.0000
