data_image0
_chemical_formula_structural       Mn10Na8O24
_chemical_formula_sum              "Mn10 Na8 O24"
_cell_length_a       6.02674
_cell_length_b       18.2679
_cell_length_c       16.3409
_cell_angle_alpha    19.0211
_cell_angle_beta     54.217
_cell_angle_gamma    58.4249

_space_group_name_H-M_alt    "P 1"
_space_group_IT_number       1

loop_
  _space_group_symop_operation_xyz
  'x, y, z'

loop_
  _atom_site_type_symbol
  _atom_site_label
  _atom_site_symmetry_multiplicity
  _atom_site_fract_x
  _atom_site_fract_y
  _atom_site_fract_z
  _atom_site_occupancy
  Mn  Mn1       1.0  0.65000  0.14300  0.10900  1.0000
  Mn  Mn2       1.0  0.59900  0.77500  0.14000  1.0000
  Mn  Mn3       1.0  0.64700  0.82200  0.59200  1.0000
  Mn  Mn4       1.0  0.14100  0.82200  0.59400  1.0000
  Mn  Mn5       1.0  0.65200  0.64000  0.61200  1.0000
  Mn  Mn6       1.0  0.62400  0.95900  0.62400  1.0000
  Mn  Mn7       1.0  0.12400  0.45900  0.62500  1.0000
  Mn  Mn8       1.0  0.59700  0.27800  0.63700  1.0000
  Mn  Mn9       1.0  0.10700  0.09590  0.65600  1.0000
  Mn  Mn10      1.0  0.60200  0.09550  0.65700  1.0000
  Na  Na1       1.0  0.96100  0.99700  0.00854  1.0000
  Na  Na2       1.0  0.00720  0.64100  0.02070  1.0000
  Na  Na3       1.0  0.62400  0.45900  0.12500  1.0000
  Na  Na4       1.0  0.24100  0.27700  0.22800  1.0000
  Na  Na5       1.0  0.28700  0.92100  0.24000  1.0000
  Na  Na6       1.0  0.23200  0.56600  0.26700  1.0000
  Na  Na7       1.0  0.62400  0.45900  0.62500  1.0000
  Na  Na8       1.0  0.01680  0.35100  0.98200  1.0000
  O   O1        1.0  0.37900  0.69600  0.36100  1.0000
  O   O2        1.0  0.41600  0.03860  0.36500  1.0000
  O   O3        1.0  0.42500  0.89100  0.37100  1.0000
  O   O4        1.0  0.84300  0.89000  0.37400  1.0000
  O   O5        1.0  0.80600  0.52900  0.37500  1.0000
  O   O6        1.0  0.86700  0.02870  0.40400  1.0000
  O   O7        1.0  0.35600  0.51800  0.41500  1.0000
  O   O8        1.0  0.87000  0.68000  0.43000  1.0000
  O   O9        1.0  0.35100  0.16100  0.44900  1.0000
  O   O10       1.0  0.80800  0.16100  0.44900  1.0000
  O   O11       1.0  0.83500  0.30100  0.46100  1.0000
  O   O12       1.0  0.33500  0.28100  0.48200  1.0000
  O   O13       1.0  0.91400  0.63700  0.76700  1.0000
  O   O14       1.0  0.41400  0.61700  0.78800  1.0000
  O   O15       1.0  0.44000  0.75700  0.80000  1.0000
  O   O16       1.0  0.89700  0.75700  0.80000  1.0000
  O   O17       1.0  0.37800  0.23800  0.81900  1.0000
  O   O18       1.0  0.89200  0.40000  0.83400  1.0000
  O   O19       1.0  0.38100  0.88900  0.84500  1.0000
  O   O20       1.0  0.44300  0.38900  0.87400  1.0000
  O   O21       1.0  0.40500  0.02760  0.87600  1.0000
  O   O22       1.0  0.82300  0.02670  0.87800  1.0000
  O   O23       1.0  0.83200  0.87900  0.88400  1.0000
  O   O24       1.0  0.86900  0.22200  0.88800  1.0000
