data_image0
_chemical_formula_structural       Dy2Zn4
_chemical_formula_sum              "Dy2 Zn4"
_cell_length_a       4.46479
_cell_length_b       5.63904
_cell_length_c       5.63904
_cell_angle_alpha    95.8884
_cell_angle_beta     113.321
_cell_angle_gamma    66.679

_space_group_name_H-M_alt    "P 1"
_space_group_IT_number       1

loop_
  _space_group_symop_operation_xyz
  'x, y, z'

loop_
  _atom_site_type_symbol
  _atom_site_label
  _atom_site_symmetry_multiplicity
  _atom_site_fract_x
  _atom_site_fract_y
  _atom_site_fract_z
  _atom_site_occupancy
  Dy  Dy1       1.0  0.75000  0.72000  0.22000  1.0000
  Dy  Dy2       1.0  0.25000  0.28000  0.78000  1.0000
  Zn  Zn1       1.0  0.04360  0.12200  0.20900  1.0000
  Zn  Zn2       1.0  0.54400  0.29100  0.37800  1.0000
  Zn  Zn3       1.0  0.45600  0.70900  0.62200  1.0000
  Zn  Zn4       1.0  0.95600  0.87800  0.79100  1.0000
