data_image0
_chemical_formula_structural       Sc4Zr8
_chemical_formula_sum              "Sc4 Zr8"
_cell_length_a       5.58545
_cell_length_b       9.73117
_cell_length_c       5.13713
_cell_angle_alpha    90
_cell_angle_beta     90
_cell_angle_gamma    90

_space_group_name_H-M_alt    "P 1"
_space_group_IT_number       1

loop_
  _space_group_symop_operation_xyz
  'x, y, z'

loop_
  _atom_site_type_symbol
  _atom_site_label
  _atom_site_symmetry_multiplicity
  _atom_site_fract_x
  _atom_site_fract_y
  _atom_site_fract_z
  _atom_site_occupancy
  Sc  Sc1       1.0  0.99700  0.00000  0.00000  1.0000
  Sc  Sc2       1.0  0.49700  0.50000  0.00000  1.0000
  Sc  Sc3       1.0  0.33600  0.00000  0.50000  1.0000
  Sc  Sc4       1.0  0.83600  0.50000  0.50000  1.0000
  Zr  Zr1       1.0  0.50200  0.16800  0.00000  1.0000
  Zr  Zr2       1.0  0.00172  0.33200  0.00000  1.0000
  Zr  Zr3       1.0  0.00172  0.66800  0.00000  1.0000
  Zr  Zr4       1.0  0.50200  0.83200  0.00000  1.0000
  Zr  Zr5       1.0  0.83200  0.16800  0.50000  1.0000
  Zr  Zr6       1.0  0.33200  0.33200  0.50000  1.0000
  Zr  Zr7       1.0  0.33200  0.66800  0.50000  1.0000
  Zr  Zr8       1.0  0.83200  0.83200  0.50000  1.0000
