data_image0
_chemical_formula_structural       H8Mn10O24
_chemical_formula_sum              "H8 Mn10 O24"
_cell_length_a       5.6482
_cell_length_b       16.8915
_cell_length_c       14.9044
_cell_angle_alpha    19.2244
_cell_angle_beta     55.4186
_cell_angle_gamma    60.3928

_space_group_name_H-M_alt    "P 1"
_space_group_IT_number       1

loop_
  _space_group_symop_operation_xyz
  'x, y, z'

loop_
  _atom_site_type_symbol
  _atom_site_label
  _atom_site_symmetry_multiplicity
  _atom_site_fract_x
  _atom_site_fract_y
  _atom_site_fract_z
  _atom_site_occupancy
  H   H1        1.0  0.53700  0.36000  0.18100  1.0000
  H   H2        1.0  0.28100  0.84800  0.26900  1.0000
  H   H3        1.0  0.29400  0.47200  0.34100  1.0000
  H   H4        1.0  0.07520  0.19400  0.35600  1.0000
  H   H5        1.0  0.45900  0.29000  0.82400  1.0000
  H   H6        1.0  0.17800  0.75600  0.85800  1.0000
  H   H7        1.0  0.96600  0.08520  0.96800  1.0000
  H   H8        1.0  0.16900  0.33200  0.98000  1.0000
  Mn  Mn1       1.0  0.64600  0.81300  0.10600  1.0000
  Mn  Mn2       1.0  0.60900  0.11300  0.14100  1.0000
  Mn  Mn3       1.0  0.14700  0.16100  0.58700  1.0000
  Mn  Mn4       1.0  0.64800  0.32600  0.59200  1.0000
  Mn  Mn5       1.0  0.64300  0.15500  0.59600  1.0000
  Mn  Mn6       1.0  0.11300  0.47800  0.60500  1.0000
  Mn  Mn7       1.0  0.63500  0.95800  0.62800  1.0000
  Mn  Mn8       1.0  0.61000  0.62100  0.62800  1.0000
  Mn  Mn9       1.0  0.61200  0.78000  0.64100  1.0000
  Mn  Mn10      1.0  0.09480  0.76800  0.65900  1.0000
  O   O1        1.0  0.86600  0.57400  0.34000  1.0000
  O   O2        1.0  0.39600  0.38700  0.36300  1.0000
  O   O3        1.0  0.40200  0.56000  0.36400  1.0000
  O   O4        1.0  0.37100  0.71400  0.36600  1.0000
  O   O5        1.0  0.88600  0.38000  0.37600  1.0000
  O   O6        1.0  0.86700  0.20900  0.37900  1.0000
  O   O7        1.0  0.39000  0.20700  0.38100  1.0000
  O   O8        1.0  0.82800  0.86800  0.39200  1.0000
  O   O9        1.0  0.37700  0.01660  0.39400  1.0000
  O   O10       1.0  0.87100  0.69900  0.39700  1.0000
  O   O11       1.0  0.37300  0.86100  0.39800  1.0000
  O   O12       1.0  0.85900  0.00741  0.41900  1.0000
  O   O13       1.0  0.39500  0.93300  0.81200  1.0000
  O   O14       1.0  0.88100  0.92600  0.83100  1.0000
  O   O15       1.0  0.88500  0.07760  0.83100  1.0000
  O   O16       1.0  0.42600  0.07070  0.83900  1.0000
  O   O17       1.0  0.87300  0.73900  0.84100  1.0000
  O   O18       1.0  0.37200  0.23700  0.84200  1.0000
  O   O19       1.0  0.38100  0.72600  0.85600  1.0000
  O   O20       1.0  0.36700  0.55600  0.85800  1.0000
  O   O21       1.0  0.84800  0.37900  0.86400  1.0000
  O   O22       1.0  0.84200  0.55700  0.86800  1.0000
  O   O23       1.0  0.86900  0.21800  0.87200  1.0000
  O   O24       1.0  0.37900  0.36100  0.88900  1.0000
