data_image0
_chemical_formula_structural       Yb2Zn4
_chemical_formula_sum              "Yb2 Zn4"
_cell_length_a       4.52328
_cell_length_b       5.67176
_cell_length_c       5.67176
_cell_angle_alpha    97.5001
_cell_angle_beta     113.5
_cell_angle_gamma    66.4996

_space_group_name_H-M_alt    "P 1"
_space_group_IT_number       1

loop_
  _space_group_symop_operation_xyz
  'x, y, z'

loop_
  _atom_site_type_symbol
  _atom_site_label
  _atom_site_symmetry_multiplicity
  _atom_site_fract_x
  _atom_site_fract_y
  _atom_site_fract_z
  _atom_site_occupancy
  Yb  Yb1       1.0  0.75000  0.70000  0.20000  1.0000
  Yb  Yb2       1.0  0.25000  0.30000  0.80000  1.0000
  Zn  Zn1       1.0  0.05890  0.10500  0.22300  1.0000
  Zn  Zn2       1.0  0.55900  0.27700  0.39500  1.0000
  Zn  Zn3       1.0  0.44100  0.72300  0.60500  1.0000
  Zn  Zn4       1.0  0.94100  0.89500  0.77700  1.0000
