data_image0
_chemical_formula_structural       Tc8Zn16
_chemical_formula_sum              "Tc8 Zn16"
_cell_length_a       11.9556
_cell_length_b       7.3146
_cell_length_c       4.39415
_cell_angle_alpha    90
_cell_angle_beta     90
_cell_angle_gamma    63.6727

_space_group_name_H-M_alt    "P 1"
_space_group_IT_number       1

loop_
  _space_group_symop_operation_xyz
  'x, y, z'

loop_
  _atom_site_type_symbol
  _atom_site_label
  _atom_site_symmetry_multiplicity
  _atom_site_fract_x
  _atom_site_fract_y
  _atom_site_fract_z
  _atom_site_occupancy
  Tc  Tc1       1.0  0.99700  0.01210  0.00000  1.0000
  Tc  Tc2       1.0  0.75500  0.26400  0.00000  1.0000
  Tc  Tc3       1.0  0.33000  0.32400  0.00000  1.0000
  Tc  Tc4       1.0  0.83600  0.85500  0.00000  1.0000
  Tc  Tc5       1.0  0.86400  0.03760  0.50000  1.0000
  Tc  Tc6       1.0  0.44000  0.09690  0.50000  1.0000
  Tc  Tc7       1.0  0.19700  0.34900  0.50000  1.0000
  Tc  Tc8       1.0  0.35900  0.50600  0.50000  1.0000
  Zn  Zn1       1.0  0.58400  0.08680  0.00000  1.0000
  Zn  Zn2       1.0  0.16500  0.16400  0.00000  1.0000
  Zn  Zn3       1.0  0.91900  0.43100  0.00000  1.0000
  Zn  Zn4       1.0  0.50000  0.49000  0.00000  1.0000
  Zn  Zn5       1.0  0.08180  0.58800  0.00000  1.0000
  Zn  Zn6       1.0  0.67100  0.67700  0.00000  1.0000
  Zn  Zn7       1.0  0.24800  0.73900  0.00000  1.0000
  Zn  Zn8       1.0  0.41900  0.91200  0.00000  1.0000
  Zn  Zn9       1.0  0.02960  0.19700  0.50000  1.0000
  Zn  Zn10      1.0  0.61000  0.27400  0.50000  1.0000
  Zn  Zn11      1.0  0.77600  0.44900  0.50000  1.0000
  Zn  Zn12      1.0  0.94600  0.62300  0.50000  1.0000
  Zn  Zn13      1.0  0.52400  0.68400  0.50000  1.0000
  Zn  Zn14      1.0  0.11300  0.77400  0.50000  1.0000
  Zn  Zn15      1.0  0.69500  0.87100  0.50000  1.0000
  Zn  Zn16      1.0  0.27600  0.93000  0.50000  1.0000
