data_image0
_chemical_formula_structural       Na4O12Ti5
_chemical_formula_sum              "Na4 O12 Ti5"
_cell_length_a       5.32169
_cell_length_b       5.32169
_cell_length_c       9.53415
_cell_angle_alpha    90
_cell_angle_beta     90
_cell_angle_gamma    120

_space_group_name_H-M_alt    "P 1"
_space_group_IT_number       1

loop_
  _space_group_symop_operation_xyz
  'x, y, z'

loop_
  _atom_site_type_symbol
  _atom_site_label
  _atom_site_symmetry_multiplicity
  _atom_site_fract_x
  _atom_site_fract_y
  _atom_site_fract_z
  _atom_site_occupancy
  Na  Na1       1.0  1.00000  1.00000  0.19700  1.0000
  Na  Na2       1.0  0.66700  0.33300  0.41000  1.0000
  Na  Na3       1.0  0.33300  0.66700  0.60800  1.0000
  Na  Na4       1.0  0.00000  0.00000  0.82000  1.0000
  O   O1        1.0  0.40800  0.98300  0.13100  1.0000
  O   O2        1.0  0.01700  0.42500  0.13100  1.0000
  O   O3        1.0  0.57500  0.59200  0.13100  1.0000
  O   O4        1.0  0.24000  0.33100  0.38700  1.0000
  O   O5        1.0  0.09130  0.76000  0.38700  1.0000
  O   O6        1.0  0.66900  0.90900  0.38700  1.0000
  O   O7        1.0  0.33100  0.09220  0.63000  1.0000
  O   O8        1.0  0.90800  0.23900  0.63000  1.0000
  O   O9        1.0  0.76100  0.66900  0.63000  1.0000
  O   O10       1.0  0.59100  0.01690  0.88600  1.0000
  O   O11       1.0  0.42600  0.40900  0.88600  1.0000
  O   O12       1.0  0.98300  0.57400  0.88600  1.0000
  Ti  Ti1       1.0  0.66700  0.33300  0.03530  1.0000
  Ti  Ti2       1.0  0.33300  0.66700  0.28900  1.0000
  Ti  Ti3       1.0  0.00000  0.00000  0.50800  1.0000
  Ti  Ti4       1.0  0.66700  0.33300  0.72800  1.0000
  Ti  Ti5       1.0  0.33300  0.66700  0.98100  1.0000
