data_image0
_chemical_formula_structural       Cr2P4
_chemical_formula_sum              "Cr2 P4"
_cell_length_a       3.0148
_cell_length_b       4.35646
_cell_length_c       6.35908
_cell_angle_alpha    90.4708
_cell_angle_beta     103.712
_cell_angle_gamma    110.244

_space_group_name_H-M_alt    "P 1"
_space_group_IT_number       1

loop_
  _space_group_symop_operation_xyz
  'x, y, z'

loop_
  _atom_site_type_symbol
  _atom_site_label
  _atom_site_symmetry_multiplicity
  _atom_site_fract_x
  _atom_site_fract_y
  _atom_site_fract_z
  _atom_site_occupancy
  Cr  Cr1       1.0  0.45300  0.61000  0.29600  1.0000
  Cr  Cr2       1.0  0.54700  0.39000  0.70400  1.0000
  P   P1        1.0  0.88500  0.74000  0.02900  1.0000
  P   P2        1.0  0.79900  0.19800  0.40100  1.0000
  P   P3        1.0  0.20100  0.80200  0.59900  1.0000
  P   P4        1.0  0.11500  0.26000  0.97100  1.0000
