data_image0
_chemical_formula_structural       As8Hf24
_chemical_formula_sum              "As8 Hf24"
_cell_length_a       8.17247
_cell_length_b       8.17247
_cell_length_c       15.3686
_cell_angle_alpha    89.7103
_cell_angle_beta     90.2897
_cell_angle_gamma    141.462

_space_group_name_H-M_alt    "P 1"
_space_group_IT_number       1

loop_
  _space_group_symop_operation_xyz
  'x, y, z'

loop_
  _atom_site_type_symbol
  _atom_site_label
  _atom_site_symmetry_multiplicity
  _atom_site_fract_x
  _atom_site_fract_y
  _atom_site_fract_z
  _atom_site_occupancy
  As  As1       1.0  0.58100  0.33700  0.66700  1.0000
  As  As2       1.0  0.33700  0.58100  0.83300  1.0000
  As  As3       1.0  0.41900  0.66300  0.33300  1.0000
  As  As4       1.0  0.66300  0.41900  0.16700  1.0000
  As  As5       1.0  0.89300  0.06310  0.12900  1.0000
  As  As6       1.0  0.06310  0.89300  0.37100  1.0000
  As  As7       1.0  0.10700  0.93700  0.87100  1.0000
  As  As8       1.0  0.93700  0.10700  0.62900  1.0000
  Hf  Hf1       1.0  0.52800  0.04900  0.40500  1.0000
  Hf  Hf2       1.0  0.04900  0.52800  0.09460  1.0000
  Hf  Hf3       1.0  0.47200  0.95100  0.59500  1.0000
  Hf  Hf4       1.0  0.95100  0.47200  0.90500  1.0000
  Hf  Hf5       1.0  0.42200  0.53900  0.16700  1.0000
  Hf  Hf6       1.0  0.53900  0.42200  0.33300  1.0000
  Hf  Hf7       1.0  0.57800  0.46100  0.83300  1.0000
  Hf  Hf8       1.0  0.46100  0.57800  0.66700  1.0000
  Hf  Hf9       1.0  0.88000  0.57000  0.51000  1.0000
  Hf  Hf10      1.0  0.57000  0.88000  0.99000  1.0000
  Hf  Hf11      1.0  0.12000  0.43000  0.49000  1.0000
  Hf  Hf12      1.0  0.43000  0.12000  0.01040  1.0000
  Hf  Hf13      1.0  0.99700  0.52900  0.30100  1.0000
  Hf  Hf14      1.0  0.52900  0.99700  0.19900  1.0000
  Hf  Hf15      1.0  0.00309  0.47100  0.69900  1.0000
  Hf  Hf16      1.0  0.47100  0.00309  0.80100  1.0000
  Hf  Hf17      1.0  0.04640  0.88100  0.69100  1.0000
  Hf  Hf18      1.0  0.88100  0.04640  0.80900  1.0000
  Hf  Hf19      1.0  0.95400  0.11900  0.30900  1.0000
  Hf  Hf20      1.0  0.11900  0.95400  0.19100  1.0000
  Hf  Hf21      1.0  0.70300  0.80200  0.48400  1.0000
  Hf  Hf22      1.0  0.80200  0.70300  0.01630  1.0000
  Hf  Hf23      1.0  0.29700  0.19800  0.51600  1.0000
  Hf  Hf24      1.0  0.19800  0.29700  0.98400  1.0000
