data_image0
_chemical_formula_structural       Pu3Th
_chemical_formula_sum              "Pu3 Th1"
_cell_length_a       5.93721
_cell_length_b       5.93721
_cell_length_c       5.93721
_cell_angle_alpha    132.936
_cell_angle_beta     132.936
_cell_angle_gamma    68.755

_space_group_name_H-M_alt    "P 1"
_space_group_IT_number       1

loop_
  _space_group_symop_operation_xyz
  'x, y, z'

loop_
  _atom_site_type_symbol
  _atom_site_label
  _atom_site_symmetry_multiplicity
  _atom_site_fract_x
  _atom_site_fract_y
  _atom_site_fract_z
  _atom_site_occupancy
  Pu  Pu1       1.0  0.75000  0.25000  0.50000  1.0000
  Pu  Pu2       1.0  0.25000  0.75000  0.50000  1.0000
  Pu  Pu3       1.0  0.50000  0.50000  0.00000  1.0000
  Th  Th1       1.0  0.00000  0.00000  0.00000  1.0000
