data_image0
_chemical_formula_structural       O24Ti10
_chemical_formula_sum              "O24 Ti10"
_cell_length_a       5.91369
_cell_length_b       17.1657
_cell_length_c       14.8596
_cell_angle_alpha    19.6356
_cell_angle_beta     55.4125
_cell_angle_gamma    60.7668

_space_group_name_H-M_alt    "P 1"
_space_group_IT_number       1

loop_
  _space_group_symop_operation_xyz
  'x, y, z'

loop_
  _atom_site_type_symbol
  _atom_site_label
  _atom_site_symmetry_multiplicity
  _atom_site_fract_x
  _atom_site_fract_y
  _atom_site_fract_z
  _atom_site_occupancy
  O   O1        1.0  0.40100  0.38700  0.35000  1.0000
  O   O2        1.0  0.43700  0.54800  0.37100  1.0000
  O   O3        1.0  0.91200  0.70700  0.37400  1.0000
  O   O4        1.0  0.87900  0.37400  0.38200  1.0000
  O   O5        1.0  0.86000  0.54400  0.38600  1.0000
  O   O6        1.0  0.35100  0.69700  0.38800  1.0000
  O   O7        1.0  0.86800  0.19000  0.39100  1.0000
  O   O8        1.0  0.79200  0.87000  0.39200  1.0000
  O   O9        1.0  0.36300  0.85800  0.39800  1.0000
  O   O10       1.0  0.38200  0.17500  0.40600  1.0000
  O   O11       1.0  0.39300  0.98300  0.42100  1.0000
  O   O12       1.0  0.86300  0.97500  0.44500  1.0000
  O   O13       1.0  0.38600  0.94200  0.80600  1.0000
  O   O14       1.0  0.85900  0.93500  0.82600  1.0000
  O   O15       1.0  0.87000  0.74200  0.84400  1.0000
  O   O16       1.0  0.88800  0.05870  0.85100  1.0000
  O   O17       1.0  0.45700  0.04930  0.85600  1.0000
  O   O18       1.0  0.38100  0.72700  0.85900  1.0000
  O   O19       1.0  0.89700  0.22000  0.86000  1.0000
  O   O20       1.0  0.39000  0.37600  0.86100  1.0000
  O   O21       1.0  0.37200  0.54300  0.86700  1.0000
  O   O22       1.0  0.33900  0.21200  0.87300  1.0000
  O   O23       1.0  0.81400  0.36900  0.87800  1.0000
  O   O24       1.0  0.84900  0.53100  0.89800  1.0000
  Ti  Ti1       1.0  0.58800  0.13400  0.10300  1.0000
  Ti  Ti2       1.0  0.66200  0.78400  0.14400  1.0000
  Ti  Ti3       1.0  0.64200  0.18800  0.55000  1.0000
  Ti  Ti4       1.0  0.16200  0.18200  0.55400  1.0000
  Ti  Ti5       1.0  0.59700  0.61700  0.61900  1.0000
  Ti  Ti6       1.0  0.12500  0.45800  0.62400  1.0000
  Ti  Ti7       1.0  0.62400  0.95600  0.62800  1.0000
  Ti  Ti8       1.0  0.65500  0.30000  0.63000  1.0000
  Ti  Ti9       1.0  0.08890  0.73600  0.69500  1.0000
  Ti  Ti10      1.0  0.60800  0.73000  0.70000  1.0000
