data_image0
_chemical_formula_structural       Co8Zn16
_chemical_formula_sum              "Co8 Zn16"
_cell_length_a       11.4315
_cell_length_b       6.93136
_cell_length_c       4.23665
_cell_angle_alpha    90
_cell_angle_beta     90
_cell_angle_gamma    64.209

_space_group_name_H-M_alt    "P 1"
_space_group_IT_number       1

loop_
  _space_group_symop_operation_xyz
  'x, y, z'

loop_
  _atom_site_type_symbol
  _atom_site_label
  _atom_site_symmetry_multiplicity
  _atom_site_fract_x
  _atom_site_fract_y
  _atom_site_fract_z
  _atom_site_occupancy
  Co  Co1       1.0  0.99100  0.00351  0.00000  1.0000
  Co  Co2       1.0  0.75700  0.23500  0.00000  1.0000
  Co  Co3       1.0  0.33100  0.33400  0.00000  1.0000
  Co  Co4       1.0  0.83600  0.84700  0.00000  1.0000
  Co  Co5       1.0  0.86400  0.02670  0.50000  1.0000
  Co  Co6       1.0  0.43800  0.12600  0.50000  1.0000
  Co  Co7       1.0  0.20400  0.35700  0.50000  1.0000
  Co  Co8       1.0  0.35800  0.51500  0.50000  1.0000
  Zn  Zn1       1.0  0.58500  0.08520  0.00000  1.0000
  Zn  Zn2       1.0  0.16500  0.17400  0.00000  1.0000
  Zn  Zn3       1.0  0.91500  0.41400  0.00000  1.0000
  Zn  Zn4       1.0  0.49500  0.49600  0.00000  1.0000
  Zn  Zn5       1.0  0.08310  0.58500  0.00000  1.0000
  Zn  Zn6       1.0  0.67300  0.66100  0.00000  1.0000
  Zn  Zn7       1.0  0.25100  0.73900  0.00000  1.0000
  Zn  Zn8       1.0  0.41800  0.93700  0.00000  1.0000
  Zn  Zn9       1.0  0.02900  0.18700  0.50000  1.0000
  Zn  Zn10      1.0  0.60900  0.27600  0.50000  1.0000
  Zn  Zn11      1.0  0.77700  0.42500  0.50000  1.0000
  Zn  Zn12      1.0  0.94400  0.62200  0.50000  1.0000
  Zn  Zn13      1.0  0.52100  0.70000  0.50000  1.0000
  Zn  Zn14      1.0  0.11100  0.77600  0.50000  1.0000
  Zn  Zn15      1.0  0.69900  0.86500  0.50000  1.0000
  Zn  Zn16      1.0  0.28000  0.94700  0.50000  1.0000
