data_image0
_chemical_formula_structural       Ho2Zn4
_chemical_formula_sum              "Ho2 Zn4"
_cell_length_a       4.43222
_cell_length_b       5.61336
_cell_length_c       5.61336
_cell_angle_alpha    102.776
_cell_angle_beta     66.747
_cell_angle_gamma    113.253

_space_group_name_H-M_alt    "P 1"
_space_group_IT_number       1

loop_
  _space_group_symop_operation_xyz
  'x, y, z'

loop_
  _atom_site_type_symbol
  _atom_site_label
  _atom_site_symmetry_multiplicity
  _atom_site_fract_x
  _atom_site_fract_y
  _atom_site_fract_z
  _atom_site_occupancy
  Ho  Ho1       1.0  0.47200  0.22200  0.27800  1.0000
  Ho  Ho2       1.0  0.52800  0.77800  0.72200  1.0000
  Zn  Zn1       1.0  0.83400  0.79300  0.12500  1.0000
  Zn  Zn2       1.0  0.16600  0.62500  0.29300  1.0000
  Zn  Zn3       1.0  0.83400  0.37500  0.70700  1.0000
  Zn  Zn4       1.0  0.16600  0.20700  0.87500  1.0000
