data_image0
_chemical_formula_structural       C2Cs2Pt
_chemical_formula_sum              "C2 Cs2 Pt1"
_cell_length_a       5.68656
_cell_length_b       5.6865
_cell_length_c       5.26912
_cell_angle_alpha    90
_cell_angle_beta     90.0001
_cell_angle_gamma    120

_space_group_name_H-M_alt    "P 1"
_space_group_IT_number       1

loop_
  _space_group_symop_operation_xyz
  'x, y, z'

loop_
  _atom_site_type_symbol
  _atom_site_label
  _atom_site_symmetry_multiplicity
  _atom_site_fract_x
  _atom_site_fract_y
  _atom_site_fract_z
  _atom_site_occupancy
  C   C1        1.0  0.00000  0.00000  0.37900  1.0000
  C   C2        1.0  1.00000  1.00000  0.62100  1.0000
  Cs  Cs1       1.0  0.33300  0.66700  0.26900  1.0000
  Cs  Cs2       1.0  0.66700  0.33300  0.73100  1.0000
  Pt  Pt1       1.0  0.00000  0.00000  0.00000  1.0000
