data_image0
_chemical_formula_structural       EuGe3Pt
_chemical_formula_sum              "Eu1 Ge3 Pt1"
_cell_length_a       4.48073
_cell_length_b       4.48073
_cell_length_c       5.9536
_cell_angle_alpha    112.105
_cell_angle_beta     112.105
_cell_angle_gamma    90

_space_group_name_H-M_alt    "P 1"
_space_group_IT_number       1

loop_
  _space_group_symop_operation_xyz
  'x, y, z'

loop_
  _atom_site_type_symbol
  _atom_site_label
  _atom_site_symmetry_multiplicity
  _atom_site_fract_x
  _atom_site_fract_y
  _atom_site_fract_z
  _atom_site_occupancy
  Eu  Eu1       1.0  0.00000  0.00000  0.99900  1.0000
  Ge  Ge1       1.0  0.75800  0.25800  0.51500  1.0000
  Ge  Ge2       1.0  0.25800  0.75800  0.51500  1.0000
  Ge  Ge3       1.0  0.40400  0.40400  0.80900  1.0000
  Pt  Pt1       1.0  0.64700  0.64700  0.29300  1.0000
