data_image0
_chemical_formula_structural       Mn10O24
_chemical_formula_sum              "Mn10 O24"
_cell_length_a       5.66582
_cell_length_b       16.6122
_cell_length_c       14.288
_cell_angle_alpha    19.3082
_cell_angle_beta     56.1761
_cell_angle_gamma    61.1543

_space_group_name_H-M_alt    "P 1"
_space_group_IT_number       1

loop_
  _space_group_symop_operation_xyz
  'x, y, z'

loop_
  _atom_site_type_symbol
  _atom_site_label
  _atom_site_symmetry_multiplicity
  _atom_site_fract_x
  _atom_site_fract_y
  _atom_site_fract_z
  _atom_site_occupancy
  Mn  Mn1       1.0  0.60600  0.12000  0.12200  1.0000
  Mn  Mn2       1.0  0.64200  0.79800  0.12800  1.0000
  Mn  Mn3       1.0  0.64700  0.16200  0.57900  1.0000
  Mn  Mn4       1.0  0.15100  0.15800  0.58500  1.0000
  Mn  Mn5       1.0  0.64300  0.30600  0.61800  1.0000
  Mn  Mn6       1.0  0.62400  0.95900  0.62500  1.0000
  Mn  Mn7       1.0  0.12400  0.45900  0.62500  1.0000
  Mn  Mn8       1.0  0.60600  0.61200  0.63100  1.0000
  Mn  Mn9       1.0  0.09730  0.76000  0.66400  1.0000
  Mn  Mn10      1.0  0.60100  0.75600  0.67000  1.0000
  O   O1        1.0  0.41900  0.55800  0.36000  1.0000
  O   O2        1.0  0.39300  0.37800  0.36600  1.0000
  O   O3        1.0  0.88600  0.37800  0.37300  1.0000
  O   O4        1.0  0.85400  0.20600  0.37300  1.0000
  O   O5        1.0  0.86300  0.54900  0.37500  1.0000
  O   O6        1.0  0.39400  0.20300  0.37900  1.0000
  O   O7        1.0  0.37000  0.86100  0.39000  1.0000
  O   O8        1.0  0.88300  0.69100  0.39100  1.0000
  O   O9        1.0  0.81500  0.85600  0.40000  1.0000
  O   O10       1.0  0.36400  0.68100  0.40600  1.0000
  O   O11       1.0  0.36600  0.99400  0.41800  1.0000
  O   O12       1.0  0.85500  0.99400  0.42500  1.0000
  O   O13       1.0  0.39300  0.92400  0.82500  1.0000
  O   O14       1.0  0.88300  0.92400  0.83100  1.0000
  O   O15       1.0  0.88400  0.23600  0.84400  1.0000
  O   O16       1.0  0.43300  0.06180  0.85000  1.0000
  O   O17       1.0  0.36500  0.22600  0.85900  1.0000
  O   O18       1.0  0.87900  0.05630  0.85900  1.0000
  O   O19       1.0  0.85400  0.71500  0.87000  1.0000
  O   O20       1.0  0.38600  0.36900  0.87400  1.0000
  O   O21       1.0  0.39400  0.71100  0.87600  1.0000
  O   O22       1.0  0.36300  0.54000  0.87600  1.0000
  O   O23       1.0  0.85500  0.54000  0.88400  1.0000
  O   O24       1.0  0.83000  0.36000  0.88900  1.0000
