data_image0
_chemical_formula_structural       Ba2Se6
_chemical_formula_sum              "Ba2 Se6"
_cell_length_a       7.38361
_cell_length_b       7.38361
_cell_length_c       4.24978
_cell_angle_alpha    90
_cell_angle_beta     90
_cell_angle_gamma    90

_space_group_name_H-M_alt    "P 1"
_space_group_IT_number       1

loop_
  _space_group_symop_operation_xyz
  'x, y, z'

loop_
  _atom_site_type_symbol
  _atom_site_label
  _atom_site_symmetry_multiplicity
  _atom_site_fract_x
  _atom_site_fract_y
  _atom_site_fract_z
  _atom_site_occupancy
  Ba  Ba1       1.0  0.00000  0.00000  0.00000  1.0000
  Ba  Ba2       1.0  0.50000  0.50000  0.00000  1.0000
  Se  Se1       1.0  0.00000  0.50000  0.17000  1.0000
  Se  Se2       1.0  0.80900  0.30900  0.48700  1.0000
  Se  Se3       1.0  0.19100  0.69100  0.48700  1.0000
  Se  Se4       1.0  0.30900  0.19100  0.51300  1.0000
  Se  Se5       1.0  0.69100  0.80900  0.51300  1.0000
  Se  Se6       1.0  0.50000  0.00000  0.83000  1.0000
