data_image0
_chemical_formula_structural       Ga9Rb3
_chemical_formula_sum              "Ga9 Rb3"
_cell_length_a       6.37188
_cell_length_b       6.37188
_cell_length_c       8.79846
_cell_angle_alpha    111.229
_cell_angle_beta     111.229
_cell_angle_gamma    90

_space_group_name_H-M_alt    "P 1"
_space_group_IT_number       1

loop_
  _space_group_symop_operation_xyz
  'x, y, z'

loop_
  _atom_site_type_symbol
  _atom_site_label
  _atom_site_symmetry_multiplicity
  _atom_site_fract_x
  _atom_site_fract_y
  _atom_site_fract_z
  _atom_site_occupancy
  Ga  Ga1       1.0  0.50000  0.50000  0.00000  1.0000
  Ga  Ga2       1.0  0.60800  0.30200  0.21600  1.0000
  Ga  Ga3       1.0  0.60800  0.91400  0.21600  1.0000
  Ga  Ga4       1.0  0.01590  0.22300  0.44600  1.0000
  Ga  Ga5       1.0  0.43000  0.22300  0.44600  1.0000
  Ga  Ga6       1.0  0.77700  0.57000  0.55400  1.0000
  Ga  Ga7       1.0  0.77700  0.98400  0.55400  1.0000
  Ga  Ga8       1.0  0.08610  0.39200  0.78400  1.0000
  Ga  Ga9       1.0  0.69800  0.39200  0.78400  1.0000
  Rb  Rb1       1.0  0.00000  0.00000  0.00000  1.0000
  Rb  Rb2       1.0  0.12800  0.62800  0.25600  1.0000
  Rb  Rb3       1.0  0.37200  0.87200  0.74400  1.0000
