data_image0
_chemical_formula_structural       Na3Yb
_chemical_formula_sum              "Na3 Yb1"
_cell_length_a       6.43342
_cell_length_b       6.43342
_cell_length_c       6.43342
_cell_angle_alpha    135.509
_cell_angle_beta     135.509
_cell_angle_gamma    64.7397

_space_group_name_H-M_alt    "P 1"
_space_group_IT_number       1

loop_
  _space_group_symop_operation_xyz
  'x, y, z'

loop_
  _atom_site_type_symbol
  _atom_site_label
  _atom_site_symmetry_multiplicity
  _atom_site_fract_x
  _atom_site_fract_y
  _atom_site_fract_z
  _atom_site_occupancy
  Na  Na1       1.0  0.75000  0.25000  0.50000  1.0000
  Na  Na2       1.0  0.25000  0.75000  0.50000  1.0000
  Na  Na3       1.0  0.50000  0.50000  0.00000  1.0000
  Yb  Yb1       1.0  0.00000  0.00000  0.00000  1.0000
