data_image0
_chemical_formula_structural       CeMn8Ni4
_chemical_formula_sum              "Ce1 Mn8 Ni4"
_cell_length_a       4.81933
_cell_length_b       6.46688
_cell_length_c       6.46665
_cell_angle_alpha    97.9925
_cell_angle_beta     68.1223
_cell_angle_gamma    111.877

_space_group_name_H-M_alt    "P 1"
_space_group_IT_number       1

loop_
  _space_group_symop_operation_xyz
  'x, y, z'

loop_
  _atom_site_type_symbol
  _atom_site_label
  _atom_site_symmetry_multiplicity
  _atom_site_fract_x
  _atom_site_fract_y
  _atom_site_fract_z
  _atom_site_occupancy
  Ce  Ce1       1.0  0.00000  0.00000  0.00000  1.0000
  Mn  Mn1       1.0  0.00000  0.50000  0.00000  1.0000
  Mn  Mn2       1.0  0.50000  0.50000  0.00000  1.0000
  Mn  Mn3       1.0  0.50000  0.24200  0.24200  1.0000
  Mn  Mn4       1.0  0.25800  0.75800  0.24200  1.0000
  Mn  Mn5       1.0  0.00000  0.00000  0.50000  1.0000
  Mn  Mn6       1.0  0.50000  0.00000  0.50000  1.0000
  Mn  Mn7       1.0  0.74200  0.24200  0.75800  1.0000
  Mn  Mn8       1.0  0.50000  0.75800  0.75800  1.0000
  Ni  Ni1       1.0  0.64900  0.64900  0.35100  1.0000
  Ni  Ni2       1.0  0.00002  0.35100  0.35100  1.0000
  Ni  Ni3       1.0  0.00000  0.64900  0.64900  1.0000
  Ni  Ni4       1.0  0.35100  0.35100  0.64900  1.0000
