data_image0
_chemical_formula_structural       As3Se
_chemical_formula_sum              "As3 Se1"
_cell_length_a       6.44642
_cell_length_b       6.44642
_cell_length_c       6.44642
_cell_angle_alpha    145.795
_cell_angle_beta     145.795
_cell_angle_gamma    49.1512

_space_group_name_H-M_alt    "P 1"
_space_group_IT_number       1

loop_
  _space_group_symop_operation_xyz
  'x, y, z'

loop_
  _atom_site_type_symbol
  _atom_site_label
  _atom_site_symmetry_multiplicity
  _atom_site_fract_x
  _atom_site_fract_y
  _atom_site_fract_z
  _atom_site_occupancy
  As  As1       1.0  0.75000  0.25000  0.50000  1.0000
  As  As2       1.0  0.25000  0.75000  0.50000  1.0000
  As  As3       1.0  0.50000  0.50000  0.00000  1.0000
  Se  Se1       1.0  0.00000  0.00000  0.00000  1.0000
