data_image0
_chemical_formula_structural       B6Ce4Fe3
_chemical_formula_sum              "B6 Ce4 Fe3"
_cell_length_a       5.42618
_cell_length_b       5.42844
_cell_length_c       8.18459
_cell_angle_alpha    70.6378
_cell_angle_beta     109.359
_cell_angle_gamma    119.986

_space_group_name_H-M_alt    "P 1"
_space_group_IT_number       1

loop_
  _space_group_symop_operation_xyz
  'x, y, z'

loop_
  _atom_site_type_symbol
  _atom_site_label
  _atom_site_symmetry_multiplicity
  _atom_site_fract_x
  _atom_site_fract_y
  _atom_site_fract_z
  _atom_site_occupancy
  B   B1        1.0  0.50000  0.16600  0.50000  1.0000
  B   B2        1.0  0.16600  0.16600  0.50000  1.0000
  B   B3        1.0  0.83400  0.50000  0.50000  1.0000
  B   B4        1.0  0.16600  0.50000  0.50000  1.0000
  B   B5        1.0  0.83400  0.83400  0.50000  1.0000
  B   B6        1.0  0.50000  0.83400  0.50000  1.0000
  Ce  Ce1       1.0  0.74100  0.25900  0.22300  1.0000
  Ce  Ce2       1.0  0.40900  0.59100  0.22600  1.0000
  Ce  Ce3       1.0  0.59100  0.40900  0.77400  1.0000
  Ce  Ce4       1.0  0.25900  0.74100  0.77700  1.0000
  Fe  Fe1       1.0  0.00000  0.00000  0.00000  1.0000
  Fe  Fe2       1.0  0.11600  0.88400  0.34900  1.0000
  Fe  Fe3       1.0  0.88400  0.11600  0.65100  1.0000
