data_image0
_chemical_formula_structural       B6Fe3Pr4
_chemical_formula_sum              "B6 Fe3 Pr4"
_cell_length_a       5.39771
_cell_length_b       5.3978
_cell_length_c       8.0878
_cell_angle_alpha    70.5067
_cell_angle_beta     109.494
_cell_angle_gamma    120.008

_space_group_name_H-M_alt    "P 1"
_space_group_IT_number       1

loop_
  _space_group_symop_operation_xyz
  'x, y, z'

loop_
  _atom_site_type_symbol
  _atom_site_label
  _atom_site_symmetry_multiplicity
  _atom_site_fract_x
  _atom_site_fract_y
  _atom_site_fract_z
  _atom_site_occupancy
  B   B1        1.0  0.50000  0.16700  0.50000  1.0000
  B   B2        1.0  0.83300  0.50000  0.50000  1.0000
  B   B3        1.0  0.16600  0.16600  0.50000  1.0000
  B   B4        1.0  0.83400  0.83400  0.50000  1.0000
  B   B5        1.0  0.16700  0.50000  0.50000  1.0000
  B   B6        1.0  0.50000  0.83300  0.50000  1.0000
  Fe  Fe1       1.0  0.00000  0.00000  0.00000  1.0000
  Fe  Fe2       1.0  0.11600  0.88400  0.34800  1.0000
  Fe  Fe3       1.0  0.88400  0.11600  0.65200  1.0000
  Pr  Pr1       1.0  0.74100  0.25900  0.22400  1.0000
  Pr  Pr2       1.0  0.40900  0.59100  0.22700  1.0000
  Pr  Pr3       1.0  0.59100  0.40900  0.77300  1.0000
  Pr  Pr4       1.0  0.25900  0.74100  0.77600  1.0000
