data_image0
_chemical_formula_structural       Cl2ORu
_chemical_formula_sum              "Cl2 O1 Ru1"
_cell_length_a       3.54707
_cell_length_b       3.70016
_cell_length_c       6.20788
_cell_angle_alpha    107.339
_cell_angle_beta     106.6
_cell_angle_gamma    90

_space_group_name_H-M_alt    "P 1"
_space_group_IT_number       1

loop_
  _space_group_symop_operation_xyz
  'x, y, z'

loop_
  _atom_site_type_symbol
  _atom_site_label
  _atom_site_symmetry_multiplicity
  _atom_site_fract_x
  _atom_site_fract_y
  _atom_site_fract_z
  _atom_site_occupancy
  Cl  Cl1       1.0  0.64300  0.14300  0.28500  1.0000
  Cl  Cl2       1.0  0.35700  0.85700  0.71500  1.0000
  O   O1        1.0  0.00000  0.50000  0.00000  1.0000
  Ru  Ru1       1.0  0.00000  0.00000  0.00000  1.0000
