data_image0
_chemical_formula_structural       Ca2IP
_chemical_formula_sum              "Ca2 I1 P1"
_cell_length_a       4.31245
_cell_length_b       4.31245
_cell_length_c       7.87666
_cell_angle_alpha    74.1125
_cell_angle_beta     105.887
_cell_angle_gamma    120

_space_group_name_H-M_alt    "P 1"
_space_group_IT_number       1

loop_
  _space_group_symop_operation_xyz
  'x, y, z'

loop_
  _atom_site_type_symbol
  _atom_site_label
  _atom_site_symmetry_multiplicity
  _atom_site_fract_x
  _atom_site_fract_y
  _atom_site_fract_z
  _atom_site_occupancy
  Ca  Ca1       1.0  0.77100  0.22900  0.31200  1.0000
  Ca  Ca2       1.0  0.22900  0.77100  0.68800  1.0000
  I   I1        1.0  0.00000  0.00000  0.00000  1.0000
  P   P1        1.0  0.50000  0.50000  0.50000  1.0000
