data_image0
_chemical_formula_structural       Ba2Ni3
_chemical_formula_sum              "Ba2 Ni3"
_cell_length_a       4.1758
_cell_length_b       4.1758
_cell_length_c       9.06608
_cell_angle_alpha    90
_cell_angle_beta     90
_cell_angle_gamma    120

_space_group_name_H-M_alt    "P 1"
_space_group_IT_number       1

loop_
  _space_group_symop_operation_xyz
  'x, y, z'

loop_
  _atom_site_type_symbol
  _atom_site_label
  _atom_site_symmetry_multiplicity
  _atom_site_fract_x
  _atom_site_fract_y
  _atom_site_fract_z
  _atom_site_occupancy
  Ba  Ba1       1.0  0.66700  0.33300  0.27700  1.0000
  Ba  Ba2       1.0  0.33300  0.66700  0.72300  1.0000
  Ni  Ni1       1.0  0.66700  0.33300  0.96600  1.0000
  Ni  Ni2       1.0  0.00000  0.00000  0.00000  1.0000
  Ni  Ni3       1.0  0.33300  0.66700  0.03360  1.0000
