data_image0
_chemical_formula_structural       F4Pb
_chemical_formula_sum              "F4 Pb1"
_cell_length_a       4.22912
_cell_length_b       4.22912
_cell_length_c       4.76095
_cell_angle_alpha    116.369
_cell_angle_beta     116.369
_cell_angle_gamma    90

_space_group_name_H-M_alt    "P 1"
_space_group_IT_number       1

loop_
  _space_group_symop_operation_xyz
  'x, y, z'

loop_
  _atom_site_type_symbol
  _atom_site_label
  _atom_site_symmetry_multiplicity
  _atom_site_fract_x
  _atom_site_fract_y
  _atom_site_fract_z
  _atom_site_occupancy
  F   F1        1.0  0.50000  0.00000  0.00000  1.0000
  F   F2        1.0  0.00000  0.50000  0.00000  1.0000
  F   F3        1.0  0.73100  0.73100  0.46100  1.0000
  F   F4        1.0  0.26900  0.26900  0.53900  1.0000
  Pb  Pb1       1.0  0.00000  0.00000  0.00000  1.0000
