data_image0
_chemical_formula_structural       CeLi2N2
_chemical_formula_sum              "Ce1 Li2 N2"
_cell_length_a       3.67041
_cell_length_b       3.67045
_cell_length_c       5.66455
_cell_angle_alpha    90.0001
_cell_angle_beta     89.9992
_cell_angle_gamma    120

_space_group_name_H-M_alt    "P 1"
_space_group_IT_number       1

loop_
  _space_group_symop_operation_xyz
  'x, y, z'

loop_
  _atom_site_type_symbol
  _atom_site_label
  _atom_site_symmetry_multiplicity
  _atom_site_fract_x
  _atom_site_fract_y
  _atom_site_fract_z
  _atom_site_occupancy
  Ce  Ce1       1.0  0.00000  0.00000  0.00000  1.0000
  Li  Li1       1.0  0.66700  0.33300  0.39700  1.0000
  Li  Li2       1.0  0.33300  0.66700  0.60300  1.0000
  N   N1        1.0  0.33300  0.66700  0.24800  1.0000
  N   N2        1.0  0.66700  0.33300  0.75200  1.0000
