data_image0
_chemical_formula_structural       Au2Th2
_chemical_formula_sum              "Au2 Th2"
_cell_length_a       3.8468
_cell_length_b       4.63372
_cell_length_c       6.21353
_cell_angle_alpha    90
_cell_angle_beta     71.9679
_cell_angle_gamma    90

_space_group_name_H-M_alt    "P 1"
_space_group_IT_number       1

loop_
  _space_group_symop_operation_xyz
  'x, y, z'

loop_
  _atom_site_type_symbol
  _atom_site_label
  _atom_site_symmetry_multiplicity
  _atom_site_fract_x
  _atom_site_fract_y
  _atom_site_fract_z
  _atom_site_occupancy
  Au  Au1       1.0  0.42300  0.75000  0.15400  1.0000
  Au  Au2       1.0  0.57700  0.25000  0.84600  1.0000
  Th  Th1       1.0  0.85100  0.25000  0.29800  1.0000
  Th  Th2       1.0  0.14900  0.75000  0.70200  1.0000
