data_image0
_chemical_formula_structural       N2TeU2
_chemical_formula_sum              "N2 Te1 U2"
_cell_length_a       3.86787
_cell_length_b       3.86787
_cell_length_c       6.84465
_cell_angle_alpha    106.412
_cell_angle_beta     106.412
_cell_angle_gamma    90

_space_group_name_H-M_alt    "P 1"
_space_group_IT_number       1

loop_
  _space_group_symop_operation_xyz
  'x, y, z'

loop_
  _atom_site_type_symbol
  _atom_site_label
  _atom_site_symmetry_multiplicity
  _atom_site_fract_x
  _atom_site_fract_y
  _atom_site_fract_z
  _atom_site_occupancy
  N   N1        1.0  0.75000  0.25000  0.50000  1.0000
  N   N2        1.0  0.25000  0.75000  0.50000  1.0000
  Te  Te1       1.0  0.00000  0.00000  0.00000  1.0000
  U   U1        1.0  0.65900  0.65900  0.31700  1.0000
  U   U2        1.0  0.34100  0.34100  0.68300  1.0000
