data_image0
_chemical_formula_structural       O2SeYb2
_chemical_formula_sum              "O2 Se1 Yb2"
_cell_length_a       3.74981
_cell_length_b       3.75008
_cell_length_c       7.22263
_cell_angle_alpha    90
_cell_angle_beta     90.0021
_cell_angle_gamma    120.002

_space_group_name_H-M_alt    "P 1"
_space_group_IT_number       1

loop_
  _space_group_symop_operation_xyz
  'x, y, z'

loop_
  _atom_site_type_symbol
  _atom_site_label
  _atom_site_symmetry_multiplicity
  _atom_site_fract_x
  _atom_site_fract_y
  _atom_site_fract_z
  _atom_site_occupancy
  O   O1        1.0  0.66700  0.33300  0.37000  1.0000
  O   O2        1.0  0.33300  0.66700  0.63000  1.0000
  Se  Se1       1.0  0.00000  0.00000  0.00000  1.0000
  Yb  Yb1       1.0  0.33300  0.66700  0.31700  1.0000
  Yb  Yb2       1.0  0.66700  0.33300  0.68300  1.0000
