data_image0
_chemical_formula_structural       O8Pb3V2
_chemical_formula_sum              "O8 Pb3 V2"
_cell_length_a       7.47462
_cell_length_b       7.47462
_cell_length_c       7.47462
_cell_angle_alpha    44.7966
_cell_angle_beta     44.7966
_cell_angle_gamma    44.7966

_space_group_name_H-M_alt    "P 1"
_space_group_IT_number       1

loop_
  _space_group_symop_operation_xyz
  'x, y, z'

loop_
  _atom_site_type_symbol
  _atom_site_label
  _atom_site_symmetry_multiplicity
  _atom_site_fract_x
  _atom_site_fract_y
  _atom_site_fract_z
  _atom_site_occupancy
  O   O1        1.0  0.73300  0.73300  0.23300  1.0000
  O   O2        1.0  0.26700  0.76700  0.26700  1.0000
  O   O3        1.0  0.76700  0.26700  0.26700  1.0000
  O   O4        1.0  0.32000  0.32000  0.32000  1.0000
  O   O5        1.0  0.68000  0.68000  0.68000  1.0000
  O   O6        1.0  0.73300  0.23300  0.73300  1.0000
  O   O7        1.0  0.23300  0.73300  0.73300  1.0000
  O   O8        1.0  0.26700  0.26700  0.76700  1.0000
  Pb  Pb1       1.0  0.00000  0.00000  0.00000  1.0000
  Pb  Pb2       1.0  0.20100  0.20100  0.20100  1.0000
  Pb  Pb3       1.0  0.79900  0.79900  0.79900  1.0000
  V   V1        1.0  0.40500  0.40500  0.40500  1.0000
  V   V2        1.0  0.59500  0.59500  0.59500  1.0000
