data_image0
_chemical_formula_structural       EuGe3Rh
_chemical_formula_sum              "Eu1 Ge3 Rh1"
_cell_length_a       4.4315
_cell_length_b       4.4315
_cell_length_c       5.9371
_cell_angle_alpha    111.913
_cell_angle_beta     111.913
_cell_angle_gamma    90

_space_group_name_H-M_alt    "P 1"
_space_group_IT_number       1

loop_
  _space_group_symop_operation_xyz
  'x, y, z'

loop_
  _atom_site_type_symbol
  _atom_site_label
  _atom_site_symmetry_multiplicity
  _atom_site_fract_x
  _atom_site_fract_y
  _atom_site_fract_z
  _atom_site_occupancy
  Eu  Eu1       1.0  0.99900  0.99900  0.99800  1.0000
  Ge  Ge1       1.0  0.75400  0.25400  0.50800  1.0000
  Ge  Ge2       1.0  0.25400  0.75400  0.50800  1.0000
  Ge  Ge3       1.0  0.40900  0.40900  0.81700  1.0000
  Rh  Rh1       1.0  0.64700  0.64700  0.29400  1.0000
