data_image0
_chemical_formula_structural       Ba3Nb
_chemical_formula_sum              "Ba3 Nb1"
_cell_length_a       6.52996
_cell_length_b       6.52996
_cell_length_c       6.52996
_cell_angle_alpha    126.499
_cell_angle_beta     126.499
_cell_angle_gamma    79.0694

_space_group_name_H-M_alt    "P 1"
_space_group_IT_number       1

loop_
  _space_group_symop_operation_xyz
  'x, y, z'

loop_
  _atom_site_type_symbol
  _atom_site_label
  _atom_site_symmetry_multiplicity
  _atom_site_fract_x
  _atom_site_fract_y
  _atom_site_fract_z
  _atom_site_occupancy
  Ba  Ba1       1.0  0.75000  0.25000  0.50000  1.0000
  Ba  Ba2       1.0  0.25000  0.75000  0.50000  1.0000
  Ba  Ba3       1.0  0.50000  0.50000  0.00000  1.0000
  Nb  Nb1       1.0  0.00000  0.00000  0.00000  1.0000
