data_image0
_chemical_formula_structural       C3Ir
_chemical_formula_sum              "C3 Ir1"
_cell_length_a       3.77222
_cell_length_b       3.77222
_cell_length_c       3.77222
_cell_angle_alpha    124.644
_cell_angle_beta     124.644
_cell_angle_gamma    82.1286

_space_group_name_H-M_alt    "P 1"
_space_group_IT_number       1

loop_
  _space_group_symop_operation_xyz
  'x, y, z'

loop_
  _atom_site_type_symbol
  _atom_site_label
  _atom_site_symmetry_multiplicity
  _atom_site_fract_x
  _atom_site_fract_y
  _atom_site_fract_z
  _atom_site_occupancy
  C   C1        1.0  0.75000  0.25000  0.50000  1.0000
  C   C2        1.0  0.25000  0.75000  0.50000  1.0000
  C   C3        1.0  0.50000  0.50000  0.00000  1.0000
  Ir  Ir1       1.0  0.00000  0.00000  0.00000  1.0000
