data_image0
_chemical_formula_structural       CaNi2Si2
_chemical_formula_sum              "Ca1 Ni2 Si2"
_cell_length_a       3.98099
_cell_length_b       3.98099
_cell_length_c       5.60062
_cell_angle_alpha    110.818
_cell_angle_beta     110.818
_cell_angle_gamma    90

_space_group_name_H-M_alt    "P 1"
_space_group_IT_number       1

loop_
  _space_group_symop_operation_xyz
  'x, y, z'

loop_
  _atom_site_type_symbol
  _atom_site_label
  _atom_site_symmetry_multiplicity
  _atom_site_fract_x
  _atom_site_fract_y
  _atom_site_fract_z
  _atom_site_occupancy
  Ca  Ca1       1.0  0.00000  0.00000  0.00000  1.0000
  Ni  Ni1       1.0  0.75000  0.25000  0.50000  1.0000
  Ni  Ni2       1.0  0.25000  0.75000  0.50000  1.0000
  Si  Si1       1.0  0.62900  0.62900  0.25900  1.0000
  Si  Si2       1.0  0.37100  0.37100  0.74100  1.0000
