data_image0
_chemical_formula_structural       Al4H4O48P16
_chemical_formula_sum              "Al4 H4 O48 P16"
_cell_length_a       12.131
_cell_length_b       7.88663
_cell_length_c       8.19039
_cell_angle_alpha    90
_cell_angle_beta     90
_cell_angle_gamma    90

_space_group_name_H-M_alt    "P 1"
_space_group_IT_number       1

loop_
  _space_group_symop_operation_xyz
  'x, y, z'

loop_
  _atom_site_type_symbol
  _atom_site_label
  _atom_site_symmetry_multiplicity
  _atom_site_fract_x
  _atom_site_fract_y
  _atom_site_fract_z
  _atom_site_occupancy
  Al  Al1       1.0  0.50000  0.15100  0.25000  1.0000
  Al  Al2       1.0  0.00000  0.65100  0.25000  1.0000
  Al  Al3       1.0  0.00000  0.34900  0.75000  1.0000
  Al  Al4       1.0  0.50000  0.84900  0.75000  1.0000
  H   H1        1.0  0.00000  0.08610  0.25000  1.0000
  H   H2        1.0  0.50000  0.58600  0.25000  1.0000
  H   H3        1.0  0.50000  0.41400  0.75000  1.0000
  H   H4        1.0  0.00000  0.91400  0.75000  1.0000
  O   O1        1.0  0.27700  0.42600  0.05900  1.0000
  O   O2        1.0  0.22300  0.92600  0.05900  1.0000
  O   O3        1.0  0.82300  0.34700  0.07930  1.0000
  O   O4        1.0  0.67700  0.84700  0.07930  1.0000
  O   O5        1.0  0.46100  0.31000  0.09730  1.0000
  O   O6        1.0  0.03900  0.81000  0.09730  1.0000
  O   O7        1.0  0.07190  0.47100  0.12700  1.0000
  O   O8        1.0  0.42800  0.97100  0.12700  1.0000
  O   O9        1.0  0.63600  0.15200  0.14400  1.0000
  O   O10       1.0  0.86400  0.65200  0.14400  1.0000
  O   O11       1.0  0.90900  0.08480  0.18900  1.0000
  O   O12       1.0  0.59100  0.58500  0.18900  1.0000
  O   O13       1.0  0.09150  0.08480  0.31100  1.0000
  O   O14       1.0  0.40900  0.58500  0.31100  1.0000
  O   O15       1.0  0.36400  0.15200  0.35600  1.0000
  O   O16       1.0  0.13600  0.65200  0.35600  1.0000
  O   O17       1.0  0.92800  0.47100  0.37300  1.0000
  O   O18       1.0  0.57200  0.97100  0.37300  1.0000
  O   O19       1.0  0.53900  0.31000  0.40300  1.0000
  O   O20       1.0  0.96100  0.81000  0.40300  1.0000
  O   O21       1.0  0.17700  0.34700  0.42100  1.0000
  O   O22       1.0  0.32300  0.84700  0.42100  1.0000
  O   O23       1.0  0.72300  0.42600  0.44100  1.0000
  O   O24       1.0  0.77700  0.92600  0.44100  1.0000
  O   O25       1.0  0.22300  0.07400  0.55900  1.0000
  O   O26       1.0  0.27700  0.57400  0.55900  1.0000
  O   O27       1.0  0.67700  0.15300  0.57900  1.0000
  O   O28       1.0  0.82300  0.65300  0.57900  1.0000
  O   O29       1.0  0.03900  0.19000  0.59700  1.0000
  O   O30       1.0  0.46100  0.69000  0.59700  1.0000
  O   O31       1.0  0.42800  0.02880  0.62700  1.0000
  O   O32       1.0  0.07190  0.52900  0.62700  1.0000
  O   O33       1.0  0.86400  0.34800  0.64400  1.0000
  O   O34       1.0  0.63600  0.84800  0.64400  1.0000
  O   O35       1.0  0.59100  0.41500  0.68900  1.0000
  O   O36       1.0  0.90900  0.91500  0.68900  1.0000
  O   O37       1.0  0.40900  0.41500  0.81100  1.0000
  O   O38       1.0  0.09150  0.91500  0.81100  1.0000
  O   O39       1.0  0.13600  0.34800  0.85600  1.0000
  O   O40       1.0  0.36400  0.84800  0.85600  1.0000
  O   O41       1.0  0.57200  0.02880  0.87300  1.0000
  O   O42       1.0  0.92800  0.52900  0.87300  1.0000
  O   O43       1.0  0.96100  0.19000  0.90300  1.0000
  O   O44       1.0  0.53900  0.69000  0.90300  1.0000
  O   O45       1.0  0.32300  0.15300  0.92100  1.0000
  O   O46       1.0  0.17700  0.65300  0.92100  1.0000
  O   O47       1.0  0.77700  0.07400  0.94100  1.0000
  O   O48       1.0  0.72300  0.57400  0.94100  1.0000
  P   P1        1.0  0.65700  0.03200  0.00617  1.0000
  P   P2        1.0  0.84300  0.53200  0.00617  1.0000
  P   P3        1.0  0.87700  0.16900  0.03240  1.0000
  P   P4        1.0  0.62300  0.66900  0.03240  1.0000
  P   P5        1.0  0.12300  0.16900  0.46800  1.0000
  P   P6        1.0  0.37700  0.66900  0.46800  1.0000
  P   P7        1.0  0.34300  0.03200  0.49400  1.0000
  P   P8        1.0  0.15700  0.53200  0.49400  1.0000
  P   P9        1.0  0.84300  0.46800  0.50600  1.0000
  P   P10       1.0  0.65700  0.96800  0.50600  1.0000
  P   P11       1.0  0.62300  0.33100  0.53200  1.0000
  P   P12       1.0  0.87700  0.83100  0.53200  1.0000
  P   P13       1.0  0.37700  0.33100  0.96800  1.0000
  P   P14       1.0  0.12300  0.83100  0.96800  1.0000
  P   P15       1.0  0.15700  0.46800  0.99400  1.0000
  P   P16       1.0  0.34300  0.96800  0.99400  1.0000
