data_image0
_chemical_formula_structural       Cu4Na4O36P12
_chemical_formula_sum              "Cu4 Na4 O36 P12"
_cell_length_a       8.87657
_cell_length_b       8.3279
_cell_length_c       8.8168
_cell_angle_alpha    90
_cell_angle_beta     90
_cell_angle_gamma    90

_space_group_name_H-M_alt    "P 1"
_space_group_IT_number       1

loop_
  _space_group_symop_operation_xyz
  'x, y, z'

loop_
  _atom_site_type_symbol
  _atom_site_label
  _atom_site_symmetry_multiplicity
  _atom_site_fract_x
  _atom_site_fract_y
  _atom_site_fract_z
  _atom_site_occupancy
  Cu  Cu1       1.0  0.11100  0.10300  0.13600  1.0000
  Cu  Cu2       1.0  0.88900  0.60300  0.36400  1.0000
  Cu  Cu3       1.0  0.38900  0.89700  0.63600  1.0000
  Cu  Cu4       1.0  0.61100  0.39700  0.86400  1.0000
  Na  Na1       1.0  0.88500  0.37800  0.07740  1.0000
  Na  Na2       1.0  0.11500  0.87800  0.42300  1.0000
  Na  Na3       1.0  0.61500  0.62200  0.57700  1.0000
  Na  Na4       1.0  0.38500  0.12200  0.92300  1.0000
  O   O1        1.0  0.19500  0.61700  0.02640  1.0000
  O   O2        1.0  0.85300  0.10600  0.07810  1.0000
  O   O3        1.0  0.63700  0.43400  0.08100  1.0000
  O   O4        1.0  0.50500  0.70900  0.08610  1.0000
  O   O5        1.0  0.13800  0.33600  0.11400  1.0000
  O   O6        1.0  0.93300  0.63600  0.14500  1.0000
  O   O7        1.0  0.12400  0.86900  0.16700  1.0000
  O   O8        1.0  0.39400  0.08680  0.17000  1.0000
  O   O9        1.0  0.37500  0.47500  0.19900  1.0000
  O   O10       1.0  0.62500  0.97500  0.30100  1.0000
  O   O11       1.0  0.60600  0.58700  0.33000  1.0000
  O   O12       1.0  0.87600  0.36900  0.33300  1.0000
  O   O13       1.0  0.06680  0.13600  0.35500  1.0000
  O   O14       1.0  0.86200  0.83600  0.38600  1.0000
  O   O15       1.0  0.49500  0.20900  0.41400  1.0000
  O   O16       1.0  0.36300  0.93400  0.41900  1.0000
  O   O17       1.0  0.14700  0.60600  0.42200  1.0000
  O   O18       1.0  0.80500  0.11700  0.47400  1.0000
  O   O19       1.0  0.30500  0.38300  0.52600  1.0000
  O   O20       1.0  0.64700  0.89400  0.57800  1.0000
  O   O21       1.0  0.86300  0.56600  0.58100  1.0000
  O   O22       1.0  0.99500  0.29100  0.58600  1.0000
  O   O23       1.0  0.36200  0.66400  0.61400  1.0000
  O   O24       1.0  0.56700  0.36400  0.64500  1.0000
  O   O25       1.0  0.37600  0.13100  0.66700  1.0000
  O   O26       1.0  0.10600  0.91300  0.67000  1.0000
  O   O27       1.0  0.12500  0.52500  0.69900  1.0000
  O   O28       1.0  0.87500  0.02470  0.80100  1.0000
  O   O29       1.0  0.89400  0.41300  0.83000  1.0000
  O   O30       1.0  0.62400  0.63100  0.83300  1.0000
  O   O31       1.0  0.43300  0.86400  0.85500  1.0000
  O   O32       1.0  0.63800  0.16400  0.88600  1.0000
  O   O33       1.0  0.00543  0.79100  0.91400  1.0000
  O   O34       1.0  0.13700  0.06610  0.91900  1.0000
  O   O35       1.0  0.35300  0.39400  0.92200  1.0000
  O   O36       1.0  0.69500  0.88300  0.97400  1.0000
  P   P1        1.0  0.26400  0.44200  0.05770  1.0000
  P   P2        1.0  0.06060  0.73200  0.07650  1.0000
  P   P3        1.0  0.54300  0.54600  0.17900  1.0000
  P   P4        1.0  0.45700  0.04570  0.32100  1.0000
  P   P5        1.0  0.93900  0.23200  0.42300  1.0000
  P   P6        1.0  0.73600  0.94200  0.44200  1.0000
  P   P7        1.0  0.23600  0.55800  0.55800  1.0000
  P   P8        1.0  0.43900  0.26800  0.57700  1.0000
  P   P9        1.0  0.95700  0.45400  0.67900  1.0000
  P   P10       1.0  0.04330  0.95400  0.82100  1.0000
  P   P11       1.0  0.56100  0.76800  0.92300  1.0000
  P   P12       1.0  0.76400  0.05840  0.94200  1.0000
