data_image0
_chemical_formula_structural       Mn4Na4O36P12
_chemical_formula_sum              "Mn4 Na4 O36 P12"
_cell_length_a       8.63519
_cell_length_b       8.65303
_cell_length_c       8.83611
_cell_angle_alpha    90
_cell_angle_beta     90
_cell_angle_gamma    90

_space_group_name_H-M_alt    "P 1"
_space_group_IT_number       1

loop_
  _space_group_symop_operation_xyz
  'x, y, z'

loop_
  _atom_site_type_symbol
  _atom_site_label
  _atom_site_symmetry_multiplicity
  _atom_site_fract_x
  _atom_site_fract_y
  _atom_site_fract_z
  _atom_site_occupancy
  Mn  Mn1       1.0  0.12400  0.86000  0.15700  1.0000
  Mn  Mn2       1.0  0.87600  0.36000  0.34300  1.0000
  Mn  Mn3       1.0  0.37600  0.14000  0.65700  1.0000
  Mn  Mn4       1.0  0.62400  0.64000  0.84300  1.0000
  Na  Na1       1.0  0.84700  0.63000  0.10800  1.0000
  Na  Na2       1.0  0.15300  0.13000  0.39200  1.0000
  Na  Na3       1.0  0.65300  0.37000  0.60800  1.0000
  Na  Na4       1.0  0.34700  0.87000  0.89200  1.0000
  O   O1        1.0  0.23800  0.37000  0.04670  1.0000
  O   O2        1.0  0.58900  0.62300  0.08610  1.0000
  O   O3        1.0  0.84900  0.35200  0.10100  1.0000
  O   O4        1.0  0.10500  0.61300  0.12500  1.0000
  O   O5        1.0  0.36800  0.81100  0.14000  1.0000
  O   O6        1.0  0.19400  0.09650  0.14100  1.0000
  O   O7        1.0  0.46200  0.22500  0.14700  1.0000
  O   O8        1.0  0.87700  0.88700  0.18700  1.0000
  O   O9        1.0  0.36100  0.53500  0.24600  1.0000
  O   O10       1.0  0.63900  0.03530  0.25400  1.0000
  O   O11       1.0  0.12300  0.38700  0.31300  1.0000
  O   O12       1.0  0.53800  0.72500  0.35300  1.0000
  O   O13       1.0  0.80600  0.59600  0.35900  1.0000
  O   O14       1.0  0.63200  0.31100  0.36000  1.0000
  O   O15       1.0  0.89500  0.11300  0.37500  1.0000
  O   O16       1.0  0.15100  0.85200  0.39900  1.0000
  O   O17       1.0  0.41100  0.12300  0.41400  1.0000
  O   O18       1.0  0.76200  0.87000  0.45300  1.0000
  O   O19       1.0  0.26200  0.63000  0.54700  1.0000
  O   O20       1.0  0.91100  0.37700  0.58600  1.0000
  O   O21       1.0  0.65100  0.64800  0.60100  1.0000
  O   O22       1.0  0.39500  0.38700  0.62500  1.0000
  O   O23       1.0  0.13200  0.18900  0.64000  1.0000
  O   O24       1.0  0.30600  0.90400  0.64100  1.0000
  O   O25       1.0  0.03810  0.77500  0.64700  1.0000
  O   O26       1.0  0.62300  0.11300  0.68700  1.0000
  O   O27       1.0  0.13900  0.46500  0.74600  1.0000
  O   O28       1.0  0.86100  0.96500  0.75400  1.0000
  O   O29       1.0  0.37700  0.61300  0.81300  1.0000
  O   O30       1.0  0.96200  0.27500  0.85300  1.0000
  O   O31       1.0  0.69400  0.40400  0.85900  1.0000
  O   O32       1.0  0.86800  0.68900  0.86000  1.0000
  O   O33       1.0  0.60500  0.88700  0.87500  1.0000
  O   O34       1.0  0.34900  0.14800  0.89900  1.0000
  O   O35       1.0  0.08930  0.87700  0.91400  1.0000
  O   O36       1.0  0.73800  0.13000  0.95300  1.0000
  P   P1        1.0  0.30400  0.19600  0.05440  1.0000
  P   P2        1.0  0.19400  0.48000  0.18800  1.0000
  P   P3        1.0  0.46700  0.67900  0.19200  1.0000
  P   P4        1.0  0.53300  0.17900  0.30800  1.0000
  P   P5        1.0  0.80600  0.98000  0.31200  1.0000
  P   P6        1.0  0.69600  0.69600  0.44600  1.0000
  P   P7        1.0  0.19600  0.80400  0.55400  1.0000
  P   P8        1.0  0.30600  0.52000  0.68800  1.0000
  P   P9        1.0  0.03320  0.32100  0.69200  1.0000
  P   P10       1.0  0.96700  0.82100  0.80800  1.0000
  P   P11       1.0  0.69400  0.02010  0.81200  1.0000
  P   P12       1.0  0.80400  0.30400  0.94600  1.0000
