data_image0
_chemical_formula_structural       Al4Na4O48P16
_chemical_formula_sum              "Al4 Na4 O48 P16"
_cell_length_a       12.8077
_cell_length_b       8.08286
_cell_length_c       8.46053
_cell_angle_alpha    90
_cell_angle_beta     90
_cell_angle_gamma    90

_space_group_name_H-M_alt    "P 1"
_space_group_IT_number       1

loop_
  _space_group_symop_operation_xyz
  'x, y, z'

loop_
  _atom_site_type_symbol
  _atom_site_label
  _atom_site_symmetry_multiplicity
  _atom_site_fract_x
  _atom_site_fract_y
  _atom_site_fract_z
  _atom_site_occupancy
  Al  Al1       1.0  0.50000  0.14000  0.25000  1.0000
  Al  Al2       1.0  0.00000  0.64000  0.25000  1.0000
  Al  Al3       1.0  0.00000  0.36000  0.75000  1.0000
  Al  Al4       1.0  0.50000  0.86000  0.75000  1.0000
  Na  Na1       1.0  0.00000  0.03010  0.25000  1.0000
  Na  Na2       1.0  0.50000  0.53000  0.25000  1.0000
  Na  Na3       1.0  0.50000  0.47000  0.75000  1.0000
  Na  Na4       1.0  0.00000  0.97000  0.75000  1.0000
  O   O1        1.0  0.81200  0.38200  0.03840  1.0000
  O   O2        1.0  0.68800  0.88200  0.03840  1.0000
  O   O3        1.0  0.24600  0.36400  0.10400  1.0000
  O   O4        1.0  0.25400  0.86400  0.10400  1.0000
  O   O5        1.0  0.43700  0.30200  0.11700  1.0000
  O   O6        1.0  0.06330  0.80200  0.11700  1.0000
  O   O7        1.0  0.61800  0.16000  0.12100  1.0000
  O   O8        1.0  0.88200  0.66000  0.12100  1.0000
  O   O9        1.0  0.06260  0.46400  0.14100  1.0000
  O   O10       1.0  0.43700  0.96400  0.14100  1.0000
  O   O11       1.0  0.85600  0.10100  0.14500  1.0000
  O   O12       1.0  0.64400  0.60100  0.14500  1.0000
  O   O13       1.0  0.14400  0.10100  0.35500  1.0000
  O   O14       1.0  0.35600  0.60100  0.35500  1.0000
  O   O15       1.0  0.93700  0.46400  0.35900  1.0000
  O   O16       1.0  0.56300  0.96400  0.35900  1.0000
  O   O17       1.0  0.38200  0.16000  0.37900  1.0000
  O   O18       1.0  0.11800  0.66000  0.37900  1.0000
  O   O19       1.0  0.56300  0.30200  0.38300  1.0000
  O   O20       1.0  0.93700  0.80200  0.38300  1.0000
  O   O21       1.0  0.75400  0.36400  0.39600  1.0000
  O   O22       1.0  0.74600  0.86400  0.39600  1.0000
  O   O23       1.0  0.18800  0.38200  0.46200  1.0000
  O   O24       1.0  0.31200  0.88200  0.46200  1.0000
  O   O25       1.0  0.68800  0.11800  0.53800  1.0000
  O   O26       1.0  0.81200  0.61800  0.53800  1.0000
  O   O27       1.0  0.25400  0.13600  0.60400  1.0000
  O   O28       1.0  0.24600  0.63600  0.60400  1.0000
  O   O29       1.0  0.06330  0.19800  0.61700  1.0000
  O   O30       1.0  0.43700  0.69800  0.61700  1.0000
  O   O31       1.0  0.88200  0.34000  0.62100  1.0000
  O   O32       1.0  0.61800  0.84000  0.62100  1.0000
  O   O33       1.0  0.43700  0.03620  0.64100  1.0000
  O   O34       1.0  0.06260  0.53600  0.64100  1.0000
  O   O35       1.0  0.64400  0.39900  0.64500  1.0000
  O   O36       1.0  0.85600  0.89900  0.64500  1.0000
  O   O37       1.0  0.35600  0.39900  0.85500  1.0000
  O   O38       1.0  0.14400  0.89900  0.85500  1.0000
  O   O39       1.0  0.56300  0.03620  0.85900  1.0000
  O   O40       1.0  0.93700  0.53600  0.85900  1.0000
  O   O41       1.0  0.11800  0.34000  0.87900  1.0000
  O   O42       1.0  0.38200  0.84000  0.87900  1.0000
  O   O43       1.0  0.93700  0.19800  0.88300  1.0000
  O   O44       1.0  0.56300  0.69800  0.88300  1.0000
  O   O45       1.0  0.74600  0.13600  0.89600  1.0000
  O   O46       1.0  0.75400  0.63600  0.89600  1.0000
  O   O47       1.0  0.31200  0.11800  0.96200  1.0000
  O   O48       1.0  0.18800  0.61800  0.96200  1.0000
  P   P1        1.0  0.34600  0.30300  0.00239  1.0000
  P   P2        1.0  0.15400  0.80300  0.00239  1.0000
  P   P3        1.0  0.14700  0.44300  0.02010  1.0000
  P   P4        1.0  0.35300  0.94300  0.02010  1.0000
  P   P5        1.0  0.85300  0.44300  0.48000  1.0000
  P   P6        1.0  0.64700  0.94300  0.48000  1.0000
  P   P7        1.0  0.65400  0.30300  0.49800  1.0000
  P   P8        1.0  0.84600  0.80300  0.49800  1.0000
  P   P9        1.0  0.15400  0.19700  0.50200  1.0000
  P   P10       1.0  0.34600  0.69700  0.50200  1.0000
  P   P11       1.0  0.35300  0.05720  0.52000  1.0000
  P   P12       1.0  0.14700  0.55700  0.52000  1.0000
  P   P13       1.0  0.64700  0.05720  0.98000  1.0000
  P   P14       1.0  0.85300  0.55700  0.98000  1.0000
  P   P15       1.0  0.84600  0.19700  0.99800  1.0000
  P   P16       1.0  0.65400  0.69700  0.99800  1.0000
