data_image0
_chemical_formula_structural       Cs2Zr6
_chemical_formula_sum              "Cs2 Zr6"
_cell_length_a       6.75536
_cell_length_b       6.72554
_cell_length_c       5.44945
_cell_angle_alpha    90
_cell_angle_beta     90
_cell_angle_gamma    120.151

_space_group_name_H-M_alt    "P 1"
_space_group_IT_number       1

loop_
  _space_group_symop_operation_xyz
  'x, y, z'

loop_
  _atom_site_type_symbol
  _atom_site_label
  _atom_site_symmetry_multiplicity
  _atom_site_fract_x
  _atom_site_fract_y
  _atom_site_fract_z
  _atom_site_occupancy
  Cs  Cs1       1.0  0.00156  0.50300  0.00000  1.0000
  Cs  Cs2       1.0  0.83200  0.16300  0.50000  1.0000
  Zr  Zr1       1.0  0.50100  0.50200  0.00000  1.0000
  Zr  Zr2       1.0  0.01850  0.99000  0.00000  1.0000
  Zr  Zr3       1.0  0.47200  0.99000  0.00000  1.0000
  Zr  Zr4       1.0  0.33200  0.16500  0.50000  1.0000
  Zr  Zr5       1.0  0.36100  0.67600  0.50000  1.0000
  Zr  Zr6       1.0  0.81500  0.67600  0.50000  1.0000
