data_image0
_chemical_formula_structural       F6Ir2
_chemical_formula_sum              "F6 Ir2"
_cell_length_a       5.3229
_cell_length_b       5.3229
_cell_length_c       5.3229
_cell_angle_alpha    54.3488
_cell_angle_beta     54.3488
_cell_angle_gamma    54.3488

_space_group_name_H-M_alt    "P 1"
_space_group_IT_number       1

loop_
  _space_group_symop_operation_xyz
  'x, y, z'

loop_
  _atom_site_type_symbol
  _atom_site_label
  _atom_site_symmetry_multiplicity
  _atom_site_fract_x
  _atom_site_fract_y
  _atom_site_fract_z
  _atom_site_occupancy
  F   F1        1.0  0.43400  0.75000  0.06570  1.0000
  F   F2        1.0  0.93400  0.56600  0.25000  1.0000
  F   F3        1.0  0.75000  0.06570  0.43400  1.0000
  F   F4        1.0  0.25000  0.93400  0.56600  1.0000
  F   F5        1.0  0.06570  0.43400  0.75000  1.0000
  F   F6        1.0  0.56600  0.25000  0.93400  1.0000
  Ir  Ir1       1.0  0.00000  0.00000  0.00000  1.0000
  Ir  Ir2       1.0  0.50000  0.50000  0.50000  1.0000
