data_image0
_chemical_formula_structural       H2O14P4Sc2
_chemical_formula_sum              "H2 O14 P4 Sc2"
_cell_length_a       7.06405
_cell_length_b       7.96685
_cell_length_c       4.87857
_cell_angle_alpha    90
_cell_angle_beta     112.177
_cell_angle_gamma    90

_space_group_name_H-M_alt    "P 1"
_space_group_IT_number       1

loop_
  _space_group_symop_operation_xyz
  'x, y, z'

loop_
  _atom_site_type_symbol
  _atom_site_label
  _atom_site_symmetry_multiplicity
  _atom_site_fract_x
  _atom_site_fract_y
  _atom_site_fract_z
  _atom_site_occupancy
  H   H1        1.0  0.56900  0.81600  0.31600  1.0000
  H   H2        1.0  0.43100  0.31600  0.68400  1.0000
  O   O1        1.0  0.90000  0.32800  0.10200  1.0000
  O   O2        1.0  0.84500  0.72100  0.10500  1.0000
  O   O3        1.0  0.49900  0.01330  0.24100  1.0000
  O   O4        1.0  0.53400  0.33300  0.24800  1.0000
  O   O5        1.0  0.08660  0.95700  0.36000  1.0000
  O   O6        1.0  0.20800  0.65100  0.36200  1.0000
  O   O7        1.0  0.56600  0.69300  0.37200  1.0000
  O   O8        1.0  0.43400  0.19300  0.62800  1.0000
  O   O9        1.0  0.79200  0.15100  0.63800  1.0000
  O   O10       1.0  0.91300  0.45700  0.64000  1.0000
  O   O11       1.0  0.46600  0.83300  0.75200  1.0000
  O   O12       1.0  0.50100  0.51300  0.75900  1.0000
  O   O13       1.0  0.15500  0.22100  0.89500  1.0000
  O   O14       1.0  0.09990  0.82800  0.89800  1.0000
  P   P1        1.0  0.05080  0.80000  0.17100  1.0000
  P   P2        1.0  0.56200  0.17300  0.41900  1.0000
  P   P3        1.0  0.43800  0.67300  0.58100  1.0000
  P   P4        1.0  0.94900  0.30000  0.82900  1.0000
  Sc  Sc1       1.0  0.73900  0.50700  0.21200  1.0000
  Sc  Sc2       1.0  0.26100  0.00660  0.78800  1.0000
