data_image0
_chemical_formula_structural       Mn2Na2O14P4
_chemical_formula_sum              "Mn2 Na2 O14 P4"
_cell_length_a       7.17446
_cell_length_b       8.12113
_cell_length_c       4.72996
_cell_angle_alpha    90
_cell_angle_beta     109.777
_cell_angle_gamma    90

_space_group_name_H-M_alt    "P 1"
_space_group_IT_number       1

loop_
  _space_group_symop_operation_xyz
  'x, y, z'

loop_
  _atom_site_type_symbol
  _atom_site_label
  _atom_site_symmetry_multiplicity
  _atom_site_fract_x
  _atom_site_fract_y
  _atom_site_fract_z
  _atom_site_occupancy
  Mn  Mn1       1.0  0.23100  0.24800  0.22500  1.0000
  Mn  Mn2       1.0  0.76900  0.74800  0.77500  1.0000
  Na  Na1       1.0  0.25100  0.82300  0.24600  1.0000
  Na  Na2       1.0  0.74900  0.32300  0.75400  1.0000
  O   O1        1.0  0.33700  0.43800  0.08230  1.0000
  O   O2        1.0  0.42300  0.06970  0.13300  1.0000
  O   O3        1.0  0.95000  0.70200  0.17600  1.0000
  O   O4        1.0  0.97300  0.38700  0.24900  1.0000
  O   O5        1.0  0.60300  0.81400  0.37500  1.0000
  O   O6        1.0  0.13500  0.06030  0.39700  1.0000
  O   O7        1.0  0.78300  0.09240  0.41200  1.0000
  O   O8        1.0  0.21700  0.59200  0.58800  1.0000
  O   O9        1.0  0.86500  0.56000  0.60300  1.0000
  O   O10       1.0  0.39700  0.31400  0.62500  1.0000
  O   O11       1.0  0.02670  0.88700  0.75100  1.0000
  O   O12       1.0  0.05030  0.20200  0.82400  1.0000
  O   O13       1.0  0.57700  0.57000  0.86700  1.0000
  O   O14       1.0  0.66300  0.93800  0.91800  1.0000
  P   P1        1.0  0.61200  0.97300  0.20100  1.0000
  P   P2        1.0  0.98600  0.55500  0.39000  1.0000
  P   P3        1.0  0.01440  0.05460  0.61000  1.0000
  P   P4        1.0  0.38800  0.47300  0.79900  1.0000
