data_image0
_chemical_formula_structural       Fe2H2O14P4
_chemical_formula_sum              "Fe2 H2 O14 P4"
_cell_length_a       4.76605
_cell_length_b       7.7133
_cell_length_c       6.94094
_cell_angle_alpha    90
_cell_angle_beta     111.242
_cell_angle_gamma    90

_space_group_name_H-M_alt    "P 1"
_space_group_IT_number       1

loop_
  _space_group_symop_operation_xyz
  'x, y, z'

loop_
  _atom_site_type_symbol
  _atom_site_label
  _atom_site_symmetry_multiplicity
  _atom_site_fract_x
  _atom_site_fract_y
  _atom_site_fract_z
  _atom_site_occupancy
  Fe  Fe1       1.0  0.21600  0.24900  0.24200  1.0000
  Fe  Fe2       1.0  0.78400  0.74900  0.75800  1.0000
  H   H1        1.0  0.29900  0.93300  0.07210  1.0000
  H   H2        1.0  0.70100  0.43300  0.92800  1.0000
  O   O1        1.0  0.77900  0.23800  0.01420  1.0000
  O   O2        1.0  0.24600  0.40700  0.02870  1.0000
  O   O3        1.0  0.37400  0.05720  0.07930  1.0000
  O   O4        1.0  0.62700  0.60600  0.28200  1.0000
  O   O5        1.0  0.11200  0.04170  0.35000  1.0000
  O   O6        1.0  0.10500  0.42700  0.39500  1.0000
  O   O7        1.0  0.63400  0.29100  0.41200  1.0000
  O   O8        1.0  0.36600  0.79100  0.58800  1.0000
  O   O9        1.0  0.89500  0.92700  0.60500  1.0000
  O   O10       1.0  0.88800  0.54200  0.65000  1.0000
  O   O11       1.0  0.37300  0.10600  0.71800  1.0000
  O   O12       1.0  0.62600  0.55700  0.92100  1.0000
  O   O13       1.0  0.75400  0.90700  0.97100  1.0000
  O   O14       1.0  0.22100  0.73800  0.98600  1.0000
  P   P1        1.0  0.41100  0.57600  0.05020  1.0000
  P   P2        1.0  0.82100  0.45600  0.44300  1.0000
  P   P3        1.0  0.17900  0.95600  0.55700  1.0000
  P   P4        1.0  0.58900  0.07630  0.95000  1.0000
