data_image0
_chemical_formula_structural       Na4O16P4Zn4
_chemical_formula_sum              "Na4 O16 P4 Zn4"
_cell_length_a       5.17807
_cell_length_b       9.93076
_cell_length_c       7.34557
_cell_angle_alpha    90
_cell_angle_beta     90.1818
_cell_angle_gamma    90

_space_group_name_H-M_alt    "P 1"
_space_group_IT_number       1

loop_
  _space_group_symop_operation_xyz
  'x, y, z'

loop_
  _atom_site_type_symbol
  _atom_site_label
  _atom_site_symmetry_multiplicity
  _atom_site_fract_x
  _atom_site_fract_y
  _atom_site_fract_z
  _atom_site_occupancy
  Na  Na1       1.0  0.71600  0.38500  0.01670  1.0000
  Na  Na2       1.0  0.78400  0.88500  0.48300  1.0000
  Na  Na3       1.0  0.21600  0.11500  0.51700  1.0000
  Na  Na4       1.0  0.28400  0.61500  0.98300  1.0000
  O   O1        1.0  0.15900  0.82600  0.06780  1.0000
  O   O2        1.0  0.28500  0.35700  0.08360  1.0000
  O   O3        1.0  0.59300  0.87600  0.20600  1.0000
  O   O4        1.0  0.23800  0.05480  0.21700  1.0000
  O   O5        1.0  0.26200  0.55500  0.28300  1.0000
  O   O6        1.0  0.90700  0.37600  0.29400  1.0000
  O   O7        1.0  0.21500  0.85700  0.41600  1.0000
  O   O8        1.0  0.34100  0.32600  0.43200  1.0000
  O   O9        1.0  0.65900  0.67400  0.56800  1.0000
  O   O10       1.0  0.78500  0.14300  0.58400  1.0000
  O   O11       1.0  0.09310  0.62400  0.70600  1.0000
  O   O12       1.0  0.73800  0.44500  0.71700  1.0000
  O   O13       1.0  0.76200  0.94500  0.78300  1.0000
  O   O14       1.0  0.40700  0.12400  0.79400  1.0000
  O   O15       1.0  0.71500  0.64300  0.91600  1.0000
  O   O16       1.0  0.84100  0.17400  0.93200  1.0000
  P   P1        1.0  0.29900  0.90200  0.22100  1.0000
  P   P2        1.0  0.20100  0.40200  0.27900  1.0000
  P   P3        1.0  0.79900  0.59800  0.72100  1.0000
  P   P4        1.0  0.70100  0.09750  0.77900  1.0000
  Zn  Zn1       1.0  0.20500  0.17000  0.00599  1.0000
  Zn  Zn2       1.0  0.29500  0.67000  0.49400  1.0000
  Zn  Zn3       1.0  0.70500  0.33000  0.50600  1.0000
  Zn  Zn4       1.0  0.79500  0.83000  0.99400  1.0000
