data_image0
_chemical_formula_structural       H4O20P4V4
_chemical_formula_sum              "H4 O20 P4 V4"
_cell_length_a       7.3077
_cell_length_b       6.31903
_cell_length_c       6.3486
_cell_angle_alpha    90
_cell_angle_beta     90.001
_cell_angle_gamma    90

_space_group_name_H-M_alt    "P 1"
_space_group_IT_number       1

loop_
  _space_group_symop_operation_xyz
  'x, y, z'

loop_
  _atom_site_type_symbol
  _atom_site_label
  _atom_site_symmetry_multiplicity
  _atom_site_fract_x
  _atom_site_fract_y
  _atom_site_fract_z
  _atom_site_occupancy
  H   H1        1.0  0.50000  0.00000  0.00000  1.0000
  H   H2        1.0  0.50000  0.50000  0.00000  1.0000
  H   H3        1.0  0.00000  0.00000  0.50000  1.0000
  H   H4        1.0  0.00000  0.50000  0.50000  1.0000
  O   O1        1.0  0.92800  0.25000  0.03640  1.0000
  O   O2        1.0  0.27100  0.25000  0.06980  1.0000
  O   O3        1.0  0.58700  0.05060  0.16200  1.0000
  O   O4        1.0  0.58700  0.44900  0.16200  1.0000
  O   O5        1.0  0.37100  0.75000  0.19500  1.0000
  O   O6        1.0  0.87100  0.75000  0.30500  1.0000
  O   O7        1.0  0.08690  0.05060  0.33800  1.0000
  O   O8        1.0  0.08690  0.44900  0.33800  1.0000
  O   O9        1.0  0.77100  0.25000  0.43000  1.0000
  O   O10       1.0  0.42800  0.25000  0.46400  1.0000
  O   O11       1.0  0.57200  0.75000  0.53600  1.0000
  O   O12       1.0  0.22900  0.75000  0.57000  1.0000
  O   O13       1.0  0.91300  0.55100  0.66200  1.0000
  O   O14       1.0  0.91300  0.94900  0.66200  1.0000
  O   O15       1.0  0.12900  0.25000  0.69500  1.0000
  O   O16       1.0  0.62900  0.25000  0.80500  1.0000
  O   O17       1.0  0.41300  0.55100  0.83800  1.0000
  O   O18       1.0  0.41300  0.94900  0.83800  1.0000
  O   O19       1.0  0.72900  0.75000  0.93000  1.0000
  O   O20       1.0  0.07170  0.75000  0.96400  1.0000
  P   P1        1.0  0.08920  0.25000  0.18700  1.0000
  P   P2        1.0  0.58900  0.25000  0.31300  1.0000
  P   P3        1.0  0.41100  0.75000  0.68700  1.0000
  P   P4        1.0  0.91100  0.75000  0.81300  1.0000
  V   V1        1.0  0.65200  0.75000  0.23500  1.0000
  V   V2        1.0  0.15200  0.75000  0.26500  1.0000
  V   V3        1.0  0.84800  0.25000  0.73500  1.0000
  V   V4        1.0  0.34800  0.25000  0.76500  1.0000
