data_image0
_chemical_formula_structural       Fe2Na2O14P4
_chemical_formula_sum              "Fe2 Na2 O14 P4"
_cell_length_a       4.80164
_cell_length_b       7.99138
_cell_length_c       7.1078
_cell_angle_alpha    90.0001
_cell_angle_beta     108.534
_cell_angle_gamma    89.9996

_space_group_name_H-M_alt    "P 1"
_space_group_IT_number       1

loop_
  _space_group_symop_operation_xyz
  'x, y, z'

loop_
  _atom_site_type_symbol
  _atom_site_label
  _atom_site_symmetry_multiplicity
  _atom_site_fract_x
  _atom_site_fract_y
  _atom_site_fract_z
  _atom_site_occupancy
  Fe  Fe1       1.0  0.22600  0.25600  0.23500  1.0000
  Fe  Fe2       1.0  0.77400  0.75600  0.76500  1.0000
  Na  Na1       1.0  0.22400  0.82800  0.24500  1.0000
  Na  Na2       1.0  0.77600  0.32800  0.75500  1.0000
  O   O1        1.0  0.74300  0.88900  0.00175  1.0000
  O   O2        1.0  0.83200  0.20400  0.05110  1.0000
  O   O3        1.0  0.41000  0.06080  0.13700  1.0000
  O   O4        1.0  0.58500  0.61000  0.22000  1.0000
  O   O5        1.0  0.07130  0.45700  0.33900  1.0000
  O   O6        1.0  0.62200  0.33100  0.40600  1.0000
  O   O7        1.0  0.14500  0.09370  0.42100  1.0000
  O   O8        1.0  0.85500  0.59400  0.57900  1.0000
  O   O9        1.0  0.37800  0.83100  0.59400  1.0000
  O   O10       1.0  0.92900  0.95700  0.66100  1.0000
  O   O11       1.0  0.41500  0.11000  0.78000  1.0000
  O   O12       1.0  0.59000  0.56100  0.86300  1.0000
  O   O13       1.0  0.16800  0.70400  0.94900  1.0000
  O   O14       1.0  0.25700  0.38900  0.99800  1.0000
  P   P1        1.0  0.61000  0.06160  0.00780  1.0000
  P   P2        1.0  0.79300  0.49100  0.39100  1.0000
  P   P3        1.0  0.20700  0.99100  0.60900  1.0000
  P   P4        1.0  0.39000  0.56200  0.99200  1.0000
