data_image0
_chemical_formula_structural       H2O14P4Ti2
_chemical_formula_sum              "H2 O14 P4 Ti2"
_cell_length_a       4.90685
_cell_length_b       7.69649
_cell_length_c       7.08267
_cell_angle_alpha    90.0048
_cell_angle_beta     112.068
_cell_angle_gamma    89.9944

_space_group_name_H-M_alt    "P 1"
_space_group_IT_number       1

loop_
  _space_group_symop_operation_xyz
  'x, y, z'

loop_
  _atom_site_type_symbol
  _atom_site_label
  _atom_site_symmetry_multiplicity
  _atom_site_fract_x
  _atom_site_fract_y
  _atom_site_fract_z
  _atom_site_occupancy
  H   H1        1.0  0.79700  0.08940  0.06080  1.0000
  H   H2        1.0  0.20300  0.58900  0.93900  1.0000
  O   O1        1.0  0.72300  0.21100  0.00055  1.0000
  O   O2        1.0  0.75100  0.53400  0.03350  1.0000
  O   O3        1.0  0.88700  0.89100  0.08510  1.0000
  O   O4        1.0  0.14800  0.33800  0.27800  1.0000
  O   O5        1.0  0.59600  0.89800  0.35500  1.0000
  O   O6        1.0  0.61500  0.52200  0.40000  1.0000
  O   O7        1.0  0.14800  0.64800  0.41300  1.0000
  O   O8        1.0  0.85200  0.14800  0.58700  1.0000
  O   O9        1.0  0.38500  0.02180  0.60000  1.0000
  O   O10       1.0  0.40400  0.39800  0.64500  1.0000
  O   O11       1.0  0.85200  0.83800  0.72200  1.0000
  O   O12       1.0  0.11300  0.39100  0.91500  1.0000
  O   O13       1.0  0.24900  0.03370  0.96600  1.0000
  O   O14       1.0  0.27700  0.71100  0.99900  1.0000
  P   P1        1.0  0.93500  0.37300  0.04960  1.0000
  P   P2        1.0  0.33900  0.48700  0.44200  1.0000
  P   P3        1.0  0.66100  0.98700  0.55800  1.0000
  P   P4        1.0  0.06510  0.87300  0.95000  1.0000
  Ti  Ti1       1.0  0.73200  0.70200  0.24100  1.0000
  Ti  Ti2       1.0  0.26800  0.20200  0.75900  1.0000
