data_image0
_chemical_formula_structural       H2O14P4V2
_chemical_formula_sum              "H2 O14 P4 V2"
_cell_length_a       4.79776
_cell_length_b       7.75574
_cell_length_c       7.06394
_cell_angle_alpha    90
_cell_angle_beta     111.384
_cell_angle_gamma    90

_space_group_name_H-M_alt    "P 1"
_space_group_IT_number       1

loop_
  _space_group_symop_operation_xyz
  'x, y, z'

loop_
  _atom_site_type_symbol
  _atom_site_label
  _atom_site_symmetry_multiplicity
  _atom_site_fract_x
  _atom_site_fract_y
  _atom_site_fract_z
  _atom_site_occupancy
  H   H1        1.0  0.70000  0.25900  0.42700  1.0000
  H   H2        1.0  0.30000  0.75900  0.57300  1.0000
  O   O1        1.0  0.36600  0.89900  0.09160  1.0000
  O   O2        1.0  0.90100  0.76300  0.11400  1.0000
  O   O3        1.0  0.89100  0.15000  0.14000  1.0000
  O   O4        1.0  0.37500  0.58600  0.22400  1.0000
  O   O5        1.0  0.62700  0.13500  0.42000  1.0000
  O   O6        1.0  0.75600  0.78300  0.47700  1.0000
  O   O7        1.0  0.22500  0.95500  0.48200  1.0000
  O   O8        1.0  0.77500  0.45500  0.51800  1.0000
  O   O9        1.0  0.24400  0.28300  0.52300  1.0000
  O   O10       1.0  0.37300  0.63500  0.58000  1.0000
  O   O11       1.0  0.62500  0.08640  0.77600  1.0000
  O   O12       1.0  0.10900  0.65000  0.86000  1.0000
  O   O13       1.0  0.09950  0.26300  0.88600  1.0000
  O   O14       1.0  0.63400  0.39900  0.90800  1.0000
  P   P1        1.0  0.18100  0.73600  0.06300  1.0000
  P   P2        1.0  0.58800  0.61700  0.45300  1.0000
  P   P3        1.0  0.41200  0.11700  0.54700  1.0000
  P   P4        1.0  0.81900  0.23600  0.93700  1.0000
  V   V1        1.0  0.79000  0.94400  0.26500  1.0000
  V   V2        1.0  0.21000  0.44400  0.73500  1.0000
