data_image0
_chemical_formula_structural       H4O20P4Ti4
_chemical_formula_sum              "H4 O20 P4 Ti4"
_cell_length_a       7.43284
_cell_length_b       6.91754
_cell_length_c       7.63384
_cell_angle_alpha    90
_cell_angle_beta     121.66
_cell_angle_gamma    90

_space_group_name_H-M_alt    "P 1"
_space_group_IT_number       1

loop_
  _space_group_symop_operation_xyz
  'x, y, z'

loop_
  _atom_site_type_symbol
  _atom_site_label
  _atom_site_symmetry_multiplicity
  _atom_site_fract_x
  _atom_site_fract_y
  _atom_site_fract_z
  _atom_site_occupancy
  H   H1        1.0  0.34900  0.52700  0.04750  1.0000
  H   H2        1.0  0.89000  0.06630  0.07520  1.0000
  H   H3        1.0  0.11000  0.56600  0.92500  1.0000
  H   H4        1.0  0.65100  0.02670  0.95200  1.0000
  O   O1        1.0  0.75400  0.13800  0.00377  1.0000
  O   O2        1.0  0.43900  0.29100  0.08460  1.0000
  O   O3        1.0  0.94900  0.78000  0.08480  1.0000
  O   O4        1.0  0.76000  0.52500  0.16900  1.0000
  O   O5        1.0  0.26500  0.02430  0.17400  1.0000
  O   O6        1.0  0.73500  0.00432  0.32500  1.0000
  O   O7        1.0  0.24200  0.50000  0.33100  1.0000
  O   O8        1.0  0.55700  0.74100  0.40200  1.0000
  O   O9        1.0  0.05240  0.24700  0.40700  1.0000
  O   O10       1.0  0.25300  0.85300  0.50000  1.0000
  O   O11       1.0  0.74700  0.35300  0.50000  1.0000
  O   O12       1.0  0.94800  0.74700  0.59300  1.0000
  O   O13       1.0  0.44300  0.24100  0.59800  1.0000
  O   O14       1.0  0.75800  0.00025  0.66900  1.0000
  O   O15       1.0  0.26500  0.50400  0.67500  1.0000
  O   O16       1.0  0.73500  0.52400  0.82600  1.0000
  O   O17       1.0  0.24000  0.02540  0.83100  1.0000
  O   O18       1.0  0.05110  0.28000  0.91500  1.0000
  O   O19       1.0  0.56100  0.79100  0.91500  1.0000
  O   O20       1.0  0.24600  0.63800  0.99600  1.0000
  P   P1        1.0  0.24800  0.15200  0.00094  1.0000
  P   P2        1.0  0.75000  0.87600  0.49700  1.0000
  P   P3        1.0  0.25000  0.37600  0.50300  1.0000
  P   P4        1.0  0.75200  0.65200  0.99900  1.0000
  Ti  Ti1       1.0  0.25700  0.77100  0.27700  1.0000
  Ti  Ti2       1.0  0.75100  0.27600  0.27700  1.0000
  Ti  Ti3       1.0  0.24900  0.77600  0.72300  1.0000
  Ti  Ti4       1.0  0.74300  0.27100  0.72300  1.0000
