data_image0
_chemical_formula_structural       Fe2H2O8P2
_chemical_formula_sum              "Fe2 H2 O8 P2"
_cell_length_a       5.05056
_cell_length_b       5.05056
_cell_length_c       5.14294
_cell_angle_alpha    90
_cell_angle_beta     90
_cell_angle_gamma    112.201

_space_group_name_H-M_alt    "P 1"
_space_group_IT_number       1

loop_
  _space_group_symop_operation_xyz
  'x, y, z'

loop_
  _atom_site_type_symbol
  _atom_site_label
  _atom_site_symmetry_multiplicity
  _atom_site_fract_x
  _atom_site_fract_y
  _atom_site_fract_z
  _atom_site_occupancy
  Fe  Fe1       1.0  0.00000  0.00000  0.00000  1.0000
  Fe  Fe2       1.0  0.00000  0.00000  0.50000  1.0000
  H   H1        1.0  0.28200  0.71800  0.25000  1.0000
  H   H2        1.0  0.71800  0.28200  0.75000  1.0000
  O   O1        1.0  0.25500  0.74500  0.00235  1.0000
  O   O2        1.0  0.31200  0.24700  0.25000  1.0000
  O   O3        1.0  0.75300  0.68800  0.25000  1.0000
  O   O4        1.0  0.25500  0.74500  0.49800  1.0000
  O   O5        1.0  0.74500  0.25500  0.50200  1.0000
  O   O6        1.0  0.24700  0.31200  0.75000  1.0000
  O   O7        1.0  0.68800  0.75300  0.75000  1.0000
  O   O8        1.0  0.74500  0.25500  0.99800  1.0000
  P   P1        1.0  0.63900  0.36100  0.25000  1.0000
  P   P2        1.0  0.36100  0.63900  0.75000  1.0000
