data_image0
_chemical_formula_structural       Na2O24P8Y2
_chemical_formula_sum              "Na2 O24 P8 Y2"
_cell_length_a       7.15052
_cell_length_b       8.91755
_cell_length_c       8.87611
_cell_angle_alpha    96.0305
_cell_angle_beta     113.753
_cell_angle_gamma    113.636

_space_group_name_H-M_alt    "P 1"
_space_group_IT_number       1

loop_
  _space_group_symop_operation_xyz
  'x, y, z'

loop_
  _atom_site_type_symbol
  _atom_site_label
  _atom_site_symmetry_multiplicity
  _atom_site_fract_x
  _atom_site_fract_y
  _atom_site_fract_z
  _atom_site_occupancy
  Na  Na1       1.0  0.03790  0.25000  0.25000  1.0000
  Na  Na2       1.0  0.96200  0.75000  0.75000  1.0000
  O   O1        1.0  0.73500  0.79800  0.04170  1.0000
  O   O2        1.0  0.67800  0.19700  0.06830  1.0000
  O   O3        1.0  0.07570  0.75900  0.07040  1.0000
  O   O4        1.0  0.37000  0.65700  0.16000  1.0000
  O   O5        1.0  0.15100  0.06080  0.19700  1.0000
  O   O6        1.0  0.77800  0.51800  0.24800  1.0000
  O   O7        1.0  0.51200  0.98200  0.25200  1.0000
  O   O8        1.0  0.39300  0.43900  0.30300  1.0000
  O   O9        1.0  0.05270  0.84300  0.34000  1.0000
  O   O10       1.0  0.74600  0.74100  0.43000  1.0000
  O   O11       1.0  0.91300  0.30300  0.43200  1.0000
  O   O12       1.0  0.39600  0.70200  0.45800  1.0000
  O   O13       1.0  0.60400  0.29800  0.54200  1.0000
  O   O14       1.0  0.08680  0.69700  0.56800  1.0000
  O   O15       1.0  0.25400  0.25900  0.57000  1.0000
  O   O16       1.0  0.94700  0.15700  0.66000  1.0000
  O   O17       1.0  0.60700  0.56100  0.69700  1.0000
  O   O18       1.0  0.48800  0.01810  0.74800  1.0000
  O   O19       1.0  0.22200  0.48200  0.75200  1.0000
  O   O20       1.0  0.84900  0.93900  0.80300  1.0000
  O   O21       1.0  0.63000  0.34300  0.84000  1.0000
  O   O22       1.0  0.92400  0.24100  0.93000  1.0000
  O   O23       1.0  0.32200  0.80300  0.93200  1.0000
  O   O24       1.0  0.26500  0.20200  0.95800  1.0000
  P   P1        1.0  0.34100  0.81500  0.10700  1.0000
  P   P2        1.0  0.99200  0.87200  0.15400  1.0000
  P   P3        1.0  0.46600  0.62800  0.34600  1.0000
  P   P4        1.0  0.91900  0.68500  0.39300  1.0000
  P   P5        1.0  0.08110  0.31500  0.60700  1.0000
  P   P6        1.0  0.53400  0.37200  0.65400  1.0000
  P   P7        1.0  0.00790  0.12800  0.84600  1.0000
  P   P8        1.0  0.65900  0.18500  0.89300  1.0000
  Y   Y1        1.0  0.53400  0.25000  0.25000  1.0000
  Y   Y2        1.0  0.46600  0.75000  0.75000  1.0000
