data_image0
_chemical_formula_structural       Na2O14P4V2
_chemical_formula_sum              "Na2 O14 P4 V2"
_cell_length_a       4.82142
_cell_length_b       8.1048
_cell_length_c       7.13397
_cell_angle_alpha    90
_cell_angle_beta     108.555
_cell_angle_gamma    90

_space_group_name_H-M_alt    "P 1"
_space_group_IT_number       1

loop_
  _space_group_symop_operation_xyz
  'x, y, z'

loop_
  _atom_site_type_symbol
  _atom_site_label
  _atom_site_symmetry_multiplicity
  _atom_site_fract_x
  _atom_site_fract_y
  _atom_site_fract_z
  _atom_site_occupancy
  Na  Na1       1.0  0.76900  0.35900  0.25400  1.0000
  Na  Na2       1.0  0.23100  0.85900  0.74600  1.0000
  O   O1        1.0  0.86000  0.10300  0.07870  1.0000
  O   O2        1.0  0.37900  0.86000  0.09350  1.0000
  O   O3        1.0  0.93700  0.73800  0.16800  1.0000
  O   O4        1.0  0.41800  0.58500  0.27900  1.0000
  O   O5        1.0  0.59300  0.12700  0.36600  1.0000
  O   O6        1.0  0.17100  0.98800  0.45200  1.0000
  O   O7        1.0  0.25600  0.30000  0.49200  1.0000
  O   O8        1.0  0.74400  0.80000  0.50800  1.0000
  O   O9        1.0  0.82900  0.48800  0.54800  1.0000
  O   O10       1.0  0.40700  0.62700  0.63400  1.0000
  O   O11       1.0  0.58200  0.08470  0.72100  1.0000
  O   O12       1.0  0.06290  0.23800  0.83200  1.0000
  O   O13       1.0  0.62100  0.36000  0.90600  1.0000
  O   O14       1.0  0.14000  0.60300  0.92100  1.0000
  P   P1        1.0  0.20900  0.70300  0.10900  1.0000
  P   P2        1.0  0.39000  0.13000  0.49300  1.0000
  P   P3        1.0  0.61000  0.63000  0.50700  1.0000
  P   P4        1.0  0.79100  0.20300  0.89100  1.0000
  V   V1        1.0  0.77500  0.93400  0.26900  1.0000
  V   V2        1.0  0.22500  0.43400  0.73100  1.0000
