data_image0
_chemical_formula_structural       Na2O14P4Sc2
_chemical_formula_sum              "Na2 O14 P4 Sc2"
_cell_length_a       7.208
_cell_length_b       8.29758
_cell_length_c       4.92852
_cell_angle_alpha    90
_cell_angle_beta     109.286
_cell_angle_gamma    90

_space_group_name_H-M_alt    "P 1"
_space_group_IT_number       1

loop_
  _space_group_symop_operation_xyz
  'x, y, z'

loop_
  _atom_site_type_symbol
  _atom_site_label
  _atom_site_symmetry_multiplicity
  _atom_site_fract_x
  _atom_site_fract_y
  _atom_site_fract_z
  _atom_site_occupancy
  Na  Na1       1.0  0.74400  0.91500  0.25100  1.0000
  Na  Na2       1.0  0.25600  0.41500  0.74900  1.0000
  O   O1        1.0  0.84300  0.29900  0.06380  1.0000
  O   O2        1.0  0.91900  0.66500  0.14500  1.0000
  O   O3        1.0  0.46000  0.05180  0.18000  1.0000
  O   O4        1.0  0.49700  0.35600  0.25400  1.0000
  O   O5        1.0  0.08990  0.91700  0.37200  1.0000
  O   O6        1.0  0.27500  0.64900  0.41200  1.0000
  O   O7        1.0  0.62800  0.68900  0.41500  1.0000
  O   O8        1.0  0.37200  0.18900  0.58500  1.0000
  O   O9        1.0  0.72500  0.14900  0.58800  1.0000
  O   O10       1.0  0.91000  0.41700  0.62800  1.0000
  O   O11       1.0  0.50300  0.85600  0.74600  1.0000
  O   O12       1.0  0.54000  0.55200  0.82000  1.0000
  O   O13       1.0  0.08120  0.16500  0.85500  1.0000
  O   O14       1.0  0.15700  0.79900  0.93600  1.0000
  P   P1        1.0  0.10500  0.76400  0.20400  1.0000
  P   P2        1.0  0.49900  0.19100  0.39200  1.0000
  P   P3        1.0  0.50100  0.69100  0.60800  1.0000
  P   P4        1.0  0.89500  0.26400  0.79500  1.0000
  Sc  Sc1       1.0  0.73300  0.49700  0.22300  1.0000
  Sc  Sc2       1.0  0.26700  0.99700  0.77700  1.0000
