data_image0
_chemical_formula_structural       Fe4Na4O16P4
_chemical_formula_sum              "Fe4 Na4 O16 P4"
_cell_length_a       8.96976
_cell_length_b       6.81069
_cell_length_c       5.03432
_cell_angle_alpha    90
_cell_angle_beta     90
_cell_angle_gamma    90

_space_group_name_H-M_alt    "P 1"
_space_group_IT_number       1

loop_
  _space_group_symop_operation_xyz
  'x, y, z'

loop_
  _atom_site_type_symbol
  _atom_site_label
  _atom_site_symmetry_multiplicity
  _atom_site_fract_x
  _atom_site_fract_y
  _atom_site_fract_z
  _atom_site_occupancy
  Fe  Fe1       1.0  0.00000  0.00000  0.00000  1.0000
  Fe  Fe2       1.0  0.00000  0.50000  0.00000  1.0000
  Fe  Fe3       1.0  0.50000  0.00000  0.50000  1.0000
  Fe  Fe4       1.0  0.50000  0.50000  0.50000  1.0000
  Na  Na1       1.0  0.65000  0.75000  0.02610  1.0000
  Na  Na2       1.0  0.15000  0.75000  0.47400  1.0000
  Na  Na3       1.0  0.85000  0.25000  0.52600  1.0000
  Na  Na4       1.0  0.35000  0.25000  0.97400  1.0000
  O   O1        1.0  0.85100  0.25000  0.04530  1.0000
  O   O2        1.0  0.62100  0.06490  0.17900  1.0000
  O   O3        1.0  0.62100  0.43500  0.17900  1.0000
  O   O4        1.0  0.88400  0.75000  0.24300  1.0000
  O   O5        1.0  0.38400  0.75000  0.25700  1.0000
  O   O6        1.0  0.12100  0.06490  0.32100  1.0000
  O   O7        1.0  0.12100  0.43500  0.32100  1.0000
  O   O8        1.0  0.35100  0.25000  0.45500  1.0000
  O   O9        1.0  0.64900  0.75000  0.54500  1.0000
  O   O10       1.0  0.87900  0.56500  0.67900  1.0000
  O   O11       1.0  0.87900  0.93500  0.67900  1.0000
  O   O12       1.0  0.61600  0.25000  0.74300  1.0000
  O   O13       1.0  0.11600  0.25000  0.75700  1.0000
  O   O14       1.0  0.37900  0.56500  0.82100  1.0000
  O   O15       1.0  0.37900  0.93500  0.82100  1.0000
  O   O16       1.0  0.14900  0.75000  0.95500  1.0000
  P   P1        1.0  0.67600  0.25000  0.03280  1.0000
  P   P2        1.0  0.17600  0.25000  0.46700  1.0000
  P   P3        1.0  0.82400  0.75000  0.53300  1.0000
  P   P4        1.0  0.32400  0.75000  0.96700  1.0000
