data_image0
_chemical_formula_structural       Na2O14P4Ti2
_chemical_formula_sum              "Na2 O14 P4 Ti2"
_cell_length_a       4.88711
_cell_length_b       8.14215
_cell_length_c       7.13559
_cell_angle_alpha    90
_cell_angle_beta     108.464
_cell_angle_gamma    90

_space_group_name_H-M_alt    "P 1"
_space_group_IT_number       1

loop_
  _space_group_symop_operation_xyz
  'x, y, z'

loop_
  _atom_site_type_symbol
  _atom_site_label
  _atom_site_symmetry_multiplicity
  _atom_site_fract_x
  _atom_site_fract_y
  _atom_site_fract_z
  _atom_site_occupancy
  Na  Na1       1.0  0.72700  0.11500  0.24100  1.0000
  Na  Na2       1.0  0.27300  0.61500  0.75900  1.0000
  O   O1        1.0  0.23800  0.06060  0.00387  1.0000
  O   O2        1.0  0.32900  0.75200  0.04380  1.0000
  O   O3        1.0  0.91100  0.88500  0.13200  1.0000
  O   O4        1.0  0.08300  0.34600  0.22300  1.0000
  O   O5        1.0  0.55300  0.50300  0.33200  1.0000
  O   O6        1.0  0.11700  0.61800  0.41200  1.0000
  O   O7        1.0  0.63800  0.86400  0.41900  1.0000
  O   O8        1.0  0.36200  0.36400  0.58100  1.0000
  O   O9        1.0  0.88300  0.11800  0.58800  1.0000
  O   O10       1.0  0.44700  0.00279  0.66800  1.0000
  O   O11       1.0  0.91700  0.84600  0.77700  1.0000
  O   O12       1.0  0.08880  0.38500  0.86800  1.0000
  O   O13       1.0  0.67100  0.25200  0.95600  1.0000
  O   O14       1.0  0.76200  0.56100  0.99600  1.0000
  P   P1        1.0  0.10800  0.89000  0.00346  1.0000
  P   P2        1.0  0.28800  0.46400  0.39300  1.0000
  P   P3        1.0  0.71200  0.96400  0.60700  1.0000
  P   P4        1.0  0.89200  0.39000  0.99700  1.0000
  Ti  Ti1       1.0  0.72200  0.69600  0.23200  1.0000
  Ti  Ti2       1.0  0.27800  0.19600  0.76800  1.0000
