data_image0
_chemical_formula_structural       H8O24Ti10
_chemical_formula_sum              "H8 O24 Ti10"
_cell_length_a       5.89164
_cell_length_b       17.4381
_cell_length_c       15.067
_cell_angle_alpha    18.9292
_cell_angle_beta     56.3958
_cell_angle_gamma    60.7192

_space_group_name_H-M_alt    "P 1"
_space_group_IT_number       1

loop_
  _space_group_symop_operation_xyz
  'x, y, z'

loop_
  _atom_site_type_symbol
  _atom_site_label
  _atom_site_symmetry_multiplicity
  _atom_site_fract_x
  _atom_site_fract_y
  _atom_site_fract_z
  _atom_site_occupancy
  H   H1        1.0  0.41400  0.57400  0.05400  1.0000
  H   H2        1.0  0.25300  0.02380  0.10500  1.0000
  H   H3        1.0  0.99500  0.87300  0.16200  1.0000
  H   H4        1.0  0.33300  0.23000  0.29600  1.0000
  H   H5        1.0  0.23700  0.44900  0.35900  1.0000
  H   H6        1.0  0.39500  0.56600  0.57400  1.0000
  H   H7        1.0  0.01210  0.46800  0.88300  1.0000
  H   H8        1.0  0.96300  0.72300  0.90800  1.0000
  O   O1        1.0  0.90000  0.71000  0.36900  1.0000
  O   O2        1.0  0.38700  0.19800  0.38100  1.0000
  O   O3        1.0  0.84200  0.86600  0.38700  1.0000
  O   O4        1.0  0.34800  0.36300  0.38900  1.0000
  O   O5        1.0  0.85600  0.20200  0.39300  1.0000
  O   O6        1.0  0.38400  0.86400  0.39400  1.0000
  O   O7        1.0  0.41800  0.52400  0.39600  1.0000
  O   O8        1.0  0.87000  0.51600  0.39700  1.0000
  O   O9        1.0  0.39900  0.00669  0.39800  1.0000
  O   O10       1.0  0.86800  0.34300  0.41400  1.0000
  O   O11       1.0  0.89200  0.00297  0.41600  1.0000
  O   O12       1.0  0.36500  0.65900  0.42300  1.0000
  O   O13       1.0  0.40500  0.92100  0.81500  1.0000
  O   O14       1.0  0.40400  0.40300  0.84100  1.0000
  O   O15       1.0  0.44200  0.72400  0.84900  1.0000
  O   O16       1.0  0.90100  0.73100  0.85100  1.0000
  O   O17       1.0  0.91200  0.55400  0.85400  1.0000
  O   O18       1.0  0.41200  0.55400  0.85800  1.0000
  O   O19       1.0  0.86700  0.89300  0.86300  1.0000
  O   O20       1.0  0.85500  0.36200  0.87400  1.0000
  O   O21       1.0  0.87400  0.21000  0.87500  1.0000
  O   O22       1.0  0.43400  0.03020  0.88000  1.0000
  O   O23       1.0  0.88400  0.01560  0.89300  1.0000
  O   O24       1.0  0.35500  0.18500  0.89900  1.0000
  Ti  Ti1       1.0  0.59200  0.14000  0.09740  1.0000
  Ti  Ti2       1.0  0.64700  0.75700  0.16800  1.0000
  Ti  Ti3       1.0  0.67800  0.99800  0.57500  1.0000
  Ti  Ti4       1.0  0.61500  0.15100  0.60100  1.0000
  Ti  Ti5       1.0  0.65400  0.80200  0.60900  1.0000
  Ti  Ti6       1.0  0.64800  0.62100  0.62200  1.0000
  Ti  Ti7       1.0  0.12500  0.10600  0.63500  1.0000
  Ti  Ti8       1.0  0.11300  0.43100  0.64000  1.0000
  Ti  Ti9       1.0  0.65600  0.26700  0.65800  1.0000
  Ti  Ti10      1.0  0.14500  0.75400  0.66900  1.0000
