data_image0
_chemical_formula_structural       Dy2InNi2
_chemical_formula_sum              "Dy2 In1 Ni2"
_cell_length_a       3.67481
_cell_length_b       3.91569
_cell_length_c       7.37804
_cell_angle_alpha    74.6116
_cell_angle_beta     90
_cell_angle_gamma    90

_space_group_name_H-M_alt    "P 1"
_space_group_IT_number       1

loop_
  _space_group_symop_operation_xyz
  'x, y, z'

loop_
  _atom_site_type_symbol
  _atom_site_label
  _atom_site_symmetry_multiplicity
  _atom_site_fract_x
  _atom_site_fract_y
  _atom_site_fract_z
  _atom_site_occupancy
  Dy  Dy1       1.0  0.50000  0.36200  0.27600  1.0000
  Dy  Dy2       1.0  0.50000  0.63800  0.72400  1.0000
  In  In1       1.0  0.00000  0.00000  0.00000  1.0000
  Ni  Ni1       1.0  0.00000  0.80000  0.40000  1.0000
  Ni  Ni2       1.0  0.00000  0.20000  0.60000  1.0000
