data_image0
_chemical_formula_structural       Cu2H4O14P4
_chemical_formula_sum              "Cu2 H4 O14 P4"
_cell_length_a       4.70752
_cell_length_b       6.99104
_cell_length_c       8.23589
_cell_angle_alpha    108.442
_cell_angle_beta     90
_cell_angle_gamma    109.675

_space_group_name_H-M_alt    "P 1"
_space_group_IT_number       1

loop_
  _space_group_symop_operation_xyz
  'x, y, z'

loop_
  _atom_site_type_symbol
  _atom_site_label
  _atom_site_symmetry_multiplicity
  _atom_site_fract_x
  _atom_site_fract_y
  _atom_site_fract_z
  _atom_site_occupancy
  Cu  Cu1       1.0  0.50000  0.50000  0.00000  1.0000
  Cu  Cu2       1.0  0.50000  0.50000  0.50000  1.0000
  H   H1        1.0  0.60300  0.95800  0.14200  1.0000
  H   H2        1.0  0.14500  0.04180  0.35800  1.0000
  H   H3        1.0  0.85500  0.95800  0.64200  1.0000
  H   H4        1.0  0.39700  0.04180  0.85800  1.0000
  O   O1        1.0  0.16700  0.26700  0.03550  1.0000
  O   O2        1.0  0.66500  0.11600  0.15300  1.0000
  O   O3        1.0  0.39700  0.73100  0.15300  1.0000
  O   O4        1.0  0.92900  0.50000  0.25000  1.0000
  O   O5        1.0  0.16600  0.26900  0.34700  1.0000
  O   O6        1.0  0.04970  0.88400  0.34700  1.0000
  O   O7        1.0  0.39900  0.73300  0.46400  1.0000
  O   O8        1.0  0.60100  0.26700  0.53600  1.0000
  O   O9        1.0  0.95000  0.11600  0.65300  1.0000
  O   O10       1.0  0.83400  0.73100  0.65300  1.0000
  O   O11       1.0  0.07080  0.50000  0.75000  1.0000
  O   O12       1.0  0.60300  0.26900  0.84700  1.0000
  O   O13       1.0  0.33500  0.88400  0.84700  1.0000
  O   O14       1.0  0.83300  0.73300  0.96400  1.0000
  P   P1        1.0  0.99400  0.27500  0.19100  1.0000
  P   P2        1.0  0.21900  0.72500  0.30900  1.0000
  P   P3        1.0  0.78100  0.27500  0.69100  1.0000
  P   P4        1.0  0.00571  0.72500  0.80900  1.0000
