data_image0
_chemical_formula_structural       Na16O32P8Zn4
_chemical_formula_sum              "Na16 O32 P8 Zn4"
_cell_length_a       8.86657
_cell_length_b       8.80572
_cell_length_c       10.6956
_cell_angle_alpha    90
_cell_angle_beta     90
_cell_angle_gamma    108.407

_space_group_name_H-M_alt    "P 1"
_space_group_IT_number       1

loop_
  _space_group_symop_operation_xyz
  'x, y, z'

loop_
  _atom_site_type_symbol
  _atom_site_label
  _atom_site_symmetry_multiplicity
  _atom_site_fract_x
  _atom_site_fract_y
  _atom_site_fract_z
  _atom_site_occupancy
  Na  Na1       1.0  0.62500  0.88100  0.01740  1.0000
  Na  Na2       1.0  0.06910  0.31900  0.02830  1.0000
  Na  Na3       1.0  0.49700  0.49200  0.05610  1.0000
  Na  Na4       1.0  0.00269  0.50800  0.25300  1.0000
  Na  Na5       1.0  0.43100  0.68100  0.28100  1.0000
  Na  Na6       1.0  0.87500  0.11900  0.29200  1.0000
  Na  Na7       1.0  0.64800  0.37400  0.32000  1.0000
  Na  Na8       1.0  0.14800  0.37400  0.48900  1.0000
  Na  Na9       1.0  0.37500  0.11900  0.51700  1.0000
  Na  Na10      1.0  0.93100  0.68100  0.52800  1.0000
  Na  Na11      1.0  0.50300  0.50800  0.55600  1.0000
  Na  Na12      1.0  0.99700  0.49200  0.75300  1.0000
  Na  Na13      1.0  0.56900  0.31900  0.78100  1.0000
  Na  Na14      1.0  0.12500  0.88100  0.79200  1.0000
  Na  Na15      1.0  0.35200  0.62600  0.82000  1.0000
  Na  Na16      1.0  0.85200  0.62600  0.98900  1.0000
  O   O1        1.0  0.37700  0.69000  0.02900  1.0000
  O   O2        1.0  0.07490  0.57600  0.03350  1.0000
  O   O3        1.0  0.54800  0.09370  0.07050  1.0000
  O   O4        1.0  0.27600  0.25100  0.10000  1.0000
  O   O5        1.0  0.71100  0.70900  0.13300  1.0000
  O   O6        1.0  0.78900  0.29000  0.17700  1.0000
  O   O7        1.0  0.22400  0.74900  0.21000  1.0000
  O   O8        1.0  0.95200  0.90600  0.23900  1.0000
  O   O9        1.0  0.42500  0.42400  0.27600  1.0000
  O   O10       1.0  0.12300  0.31000  0.28000  1.0000
  O   O11       1.0  0.29700  0.13000  0.31500  1.0000
  O   O12       1.0  0.82500  0.62900  0.33200  1.0000
  O   O13       1.0  0.67900  0.84300  0.33200  1.0000
  O   O14       1.0  0.17900  0.84300  0.47800  1.0000
  O   O15       1.0  0.32400  0.62900  0.47800  1.0000
  O   O16       1.0  0.79800  0.13000  0.49500  1.0000
  O   O17       1.0  0.62300  0.31000  0.52900  1.0000
  O   O18       1.0  0.92500  0.42400  0.53300  1.0000
  O   O19       1.0  0.45200  0.90600  0.57000  1.0000
  O   O20       1.0  0.72400  0.74900  0.60000  1.0000
  O   O21       1.0  0.28900  0.29100  0.63300  1.0000
  O   O22       1.0  0.21100  0.71000  0.67700  1.0000
  O   O23       1.0  0.77600  0.25100  0.71000  1.0000
  O   O24       1.0  0.04830  0.09380  0.73900  1.0000
  O   O25       1.0  0.57500  0.57600  0.77600  1.0000
  O   O26       1.0  0.87700  0.69000  0.78000  1.0000
  O   O27       1.0  0.70300  0.87000  0.81500  1.0000
  O   O28       1.0  0.17500  0.37100  0.83200  1.0000
  O   O29       1.0  0.32100  0.15700  0.83200  1.0000
  O   O30       1.0  0.82100  0.15700  0.97800  1.0000
  O   O31       1.0  0.67600  0.37100  0.97800  1.0000
  O   O32       1.0  0.20200  0.87000  0.99500  1.0000
  P   P1        1.0  0.70800  0.23300  0.05030  1.0000
  P   P2        1.0  0.22100  0.72100  0.06460  1.0000
  P   P3        1.0  0.27900  0.27900  0.24500  1.0000
  P   P4        1.0  0.79200  0.76700  0.25900  1.0000
  P   P5        1.0  0.29200  0.76700  0.55000  1.0000
  P   P6        1.0  0.77900  0.27900  0.56500  1.0000
  P   P7        1.0  0.72100  0.72100  0.74500  1.0000
  P   P8        1.0  0.20800  0.23300  0.75900  1.0000
  Zn  Zn1       1.0  0.34200  0.09180  0.00729  1.0000
  Zn  Zn2       1.0  0.15800  0.90800  0.30200  1.0000
  Zn  Zn3       1.0  0.65800  0.90800  0.50700  1.0000
  Zn  Zn4       1.0  0.84200  0.09180  0.80200  1.0000
