data_image0
_chemical_formula_structural       Mg8Ta4
_chemical_formula_sum              "Mg8 Ta4"
_cell_length_a       5.52427
_cell_length_b       8.93253
_cell_length_c       4.81482
_cell_angle_alpha    90
_cell_angle_beta     90
_cell_angle_gamma    90

_space_group_name_H-M_alt    "P 1"
_space_group_IT_number       1

loop_
  _space_group_symop_operation_xyz
  'x, y, z'

loop_
  _atom_site_type_symbol
  _atom_site_label
  _atom_site_symmetry_multiplicity
  _atom_site_fract_x
  _atom_site_fract_y
  _atom_site_fract_z
  _atom_site_occupancy
  Mg  Mg1       1.0  0.51500  0.16000  0.00000  1.0000
  Mg  Mg2       1.0  0.99800  0.33300  0.00000  1.0000
  Mg  Mg3       1.0  0.51500  0.50600  0.00000  1.0000
  Mg  Mg4       1.0  0.49600  0.83300  0.00000  1.0000
  Mg  Mg5       1.0  0.31800  0.00626  0.50000  1.0000
  Mg  Mg6       1.0  0.33700  0.33300  0.50000  1.0000
  Mg  Mg7       1.0  0.31800  0.66000  0.50000  1.0000
  Mg  Mg8       1.0  0.83500  0.83300  0.50000  1.0000
  Ta  Ta1       1.0  0.98000  0.66700  0.00000  1.0000
  Ta  Ta2       1.0  0.98000  0.00000  0.00000  1.0000
  Ta  Ta3       1.0  0.85400  0.16700  0.50000  1.0000
  Ta  Ta4       1.0  0.85400  0.50000  0.50000  1.0000
