data_image0
_chemical_formula_structural       Na10O18P4V2
_chemical_formula_sum              "Na10 O18 P4 V2"
_cell_length_a       8.17818
_cell_length_b       8.17818
_cell_length_c       8.17818
_cell_angle_alpha    104.222
_cell_angle_beta     120.574
_cell_angle_gamma    104.222

_space_group_name_H-M_alt    "P 1"
_space_group_IT_number       1

loop_
  _space_group_symop_operation_xyz
  'x, y, z'

loop_
  _atom_site_type_symbol
  _atom_site_label
  _atom_site_symmetry_multiplicity
  _atom_site_fract_x
  _atom_site_fract_y
  _atom_site_fract_z
  _atom_site_occupancy
  Na  Na1       1.0  0.25000  0.78000  0.03040  1.0000
  Na  Na2       1.0  0.03040  0.78000  0.25000  1.0000
  Na  Na3       1.0  0.47000  0.22000  0.25000  1.0000
  Na  Na4       1.0  0.75000  0.50000  0.25000  1.0000
  Na  Na5       1.0  0.25000  0.22000  0.47000  1.0000
  Na  Na6       1.0  0.75000  0.78000  0.53000  1.0000
  Na  Na7       1.0  0.97000  0.22000  0.75000  1.0000
  Na  Na8       1.0  0.25000  0.50000  0.75000  1.0000
  Na  Na9       1.0  0.53000  0.78000  0.75000  1.0000
  Na  Na10      1.0  0.75000  0.22000  0.97000  1.0000
  O   O1        1.0  0.80000  0.50000  0.00878  1.0000
  O   O2        1.0  0.82500  0.96200  0.13700  1.0000
  O   O3        1.0  0.13700  0.31200  0.17500  1.0000
  O   O4        1.0  0.70000  0.20900  0.20000  1.0000
  O   O5        1.0  0.25000  0.00000  0.25000  1.0000
  O   O6        1.0  0.50900  0.50000  0.30000  1.0000
  O   O7        1.0  0.63700  0.96200  0.32500  1.0000
  O   O8        1.0  0.32500  0.68800  0.36300  1.0000
  O   O9        1.0  0.99100  0.79100  0.49100  1.0000
  O   O10       1.0  0.00878  0.20900  0.50900  1.0000
  O   O11       1.0  0.67500  0.31200  0.63700  1.0000
  O   O12       1.0  0.36300  0.03780  0.67500  1.0000
  O   O13       1.0  0.49100  0.50000  0.70000  1.0000
  O   O14       1.0  0.75000  0.00000  0.75000  1.0000
  O   O15       1.0  0.30000  0.79100  0.80000  1.0000
  O   O16       1.0  0.86300  0.68800  0.82500  1.0000
  O   O17       1.0  0.17500  0.03780  0.86300  1.0000
  O   O18       1.0  0.20000  0.50000  0.99100  1.0000
  P   P1        1.0  0.29200  0.50000  0.20800  1.0000
  P   P2        1.0  0.79200  0.08480  0.29200  1.0000
  P   P3        1.0  0.20800  0.91500  0.70800  1.0000
  P   P4        1.0  0.70800  0.50000  0.79200  1.0000
  V   V1        1.0  0.00000  0.00000  0.00000  1.0000
  V   V2        1.0  0.50000  0.00000  0.50000  1.0000
