data_image0
_chemical_formula_structural       Au4Ti
_chemical_formula_sum              "Au4 Ti1"
_cell_length_a       4.01016
_cell_length_b       5.02494
_cell_length_c       5.02494
_cell_angle_alpha    99.1617
_cell_angle_beta     66.4827
_cell_angle_gamma    113.517

_space_group_name_H-M_alt    "P 1"
_space_group_IT_number       1

loop_
  _space_group_symop_operation_xyz
  'x, y, z'

loop_
  _atom_site_type_symbol
  _atom_site_label
  _atom_site_symmetry_multiplicity
  _atom_site_fract_x
  _atom_site_fract_y
  _atom_site_fract_z
  _atom_site_occupancy
  Au  Au1       1.0  0.60500  0.39800  0.18800  1.0000
  Au  Au2       1.0  0.20700  0.81200  0.39800  1.0000
  Au  Au3       1.0  0.79300  0.18800  0.60200  1.0000
  Au  Au4       1.0  0.39500  0.60200  0.81200  1.0000
  Ti  Ti1       1.0  0.00000  0.00000  0.00000  1.0000
