data_image0
_chemical_formula_structural       Gd2O2S
_chemical_formula_sum              "Gd2 O2 S1"
_cell_length_a       3.83666
_cell_length_b       3.83658
_cell_length_c       6.63868
_cell_angle_alpha    90
_cell_angle_beta     90.0012
_cell_angle_gamma    119.999

_space_group_name_H-M_alt    "P 1"
_space_group_IT_number       1

loop_
  _space_group_symop_operation_xyz
  'x, y, z'

loop_
  _atom_site_type_symbol
  _atom_site_label
  _atom_site_symmetry_multiplicity
  _atom_site_fract_x
  _atom_site_fract_y
  _atom_site_fract_z
  _atom_site_occupancy
  Gd  Gd1       1.0  0.33300  0.66700  0.28100  1.0000
  Gd  Gd2       1.0  0.66700  0.33300  0.71900  1.0000
  O   O1        1.0  0.66700  0.33300  0.37000  1.0000
  O   O2        1.0  0.33300  0.66700  0.63000  1.0000
  S   S1        1.0  0.00000  0.00000  0.00000  1.0000
