data_image0
_chemical_formula_structural       CCl2Lu2
_chemical_formula_sum              "C1 Cl2 Lu2"
_cell_length_a       3.60509
_cell_length_b       3.60509
_cell_length_c       9.6394
_cell_angle_alpha    100.778
_cell_angle_beta     100.778
_cell_angle_gamma    60

_space_group_name_H-M_alt    "P 1"
_space_group_IT_number       1

loop_
  _space_group_symop_operation_xyz
  'x, y, z'

loop_
  _atom_site_type_symbol
  _atom_site_label
  _atom_site_symmetry_multiplicity
  _atom_site_fract_x
  _atom_site_fract_y
  _atom_site_fract_z
  _atom_site_occupancy
  C   C1        1.0  0.50000  0.50000  0.50000  1.0000
  Cl  Cl1       1.0  0.72600  0.72600  0.17900  1.0000
  Cl  Cl2       1.0  0.27400  0.27400  0.82100  1.0000
  Lu  Lu1       1.0  0.12100  0.12100  0.36200  1.0000
  Lu  Lu2       1.0  0.87900  0.87900  0.63800  1.0000
