data_image0
_chemical_formula_structural       Al2Ge2Lu
_chemical_formula_sum              "Al2 Ge2 Lu1"
_cell_length_a       4.25596
_cell_length_b       4.25609
_cell_length_c       6.49484
_cell_angle_alpha    90
_cell_angle_beta     90.0002
_cell_angle_gamma    120.001

_space_group_name_H-M_alt    "P 1"
_space_group_IT_number       1

loop_
  _space_group_symop_operation_xyz
  'x, y, z'

loop_
  _atom_site_type_symbol
  _atom_site_label
  _atom_site_symmetry_multiplicity
  _atom_site_fract_x
  _atom_site_fract_y
  _atom_site_fract_z
  _atom_site_occupancy
  Al  Al1       1.0  0.66700  0.33300  0.35300  1.0000
  Al  Al2       1.0  0.33300  0.66700  0.64700  1.0000
  Ge  Ge1       1.0  0.33300  0.66700  0.25000  1.0000
  Ge  Ge2       1.0  0.66700  0.33300  0.75000  1.0000
  Lu  Lu1       1.0  0.00000  0.00000  0.00000  1.0000
