data_image0
_chemical_formula_structural       BeCrGaOs
_chemical_formula_sum              "Be1 Cr1 Ga1 Os1"
_cell_length_a       4.09271
_cell_length_b       4.09271
_cell_length_c       4.09271
_cell_angle_alpha    60
_cell_angle_beta     60
_cell_angle_gamma    60

_space_group_name_H-M_alt    "P 1"
_space_group_IT_number       1

loop_
  _space_group_symop_operation_xyz
  'x, y, z'

loop_
  _atom_site_type_symbol
  _atom_site_label
  _atom_site_symmetry_multiplicity
  _atom_site_fract_x
  _atom_site_fract_y
  _atom_site_fract_z
  _atom_site_occupancy
  Be  Be1       1.0  0.25000  0.25000  0.25000  1.0000
  Cr  Cr1       1.0  0.75000  0.75000  0.75000  1.0000
  Ga  Ga1       1.0  0.00000  0.00000  0.00000  1.0000
  Os  Os1       1.0  0.50000  0.50000  0.50000  1.0000
