data_image0
_chemical_formula_structural       PtRb2S2
_chemical_formula_sum              "Pt1 Rb2 S2"
_cell_length_a       3.68102
_cell_length_b       6.45578
_cell_length_c       6.45578
_cell_angle_alpha    100.862
_cell_angle_beta     106.565
_cell_angle_gamma    106.565

_space_group_name_H-M_alt    "P 1"
_space_group_IT_number       1

loop_
  _space_group_symop_operation_xyz
  'x, y, z'

loop_
  _atom_site_type_symbol
  _atom_site_label
  _atom_site_symmetry_multiplicity
  _atom_site_fract_x
  _atom_site_fract_y
  _atom_site_fract_z
  _atom_site_occupancy
  Pt  Pt1       1.0  0.00000  0.00000  0.00000  1.0000
  Rb  Rb1       1.0  0.50000  0.69100  0.30900  1.0000
  Rb  Rb2       1.0  0.50000  0.30900  0.69100  1.0000
  S   S1        1.0  0.70800  0.20800  0.20800  1.0000
  S   S2        1.0  0.29200  0.79200  0.79200  1.0000
