data_image0
_chemical_formula_structural       Na8O48P12Ti8
_chemical_formula_sum              "Na8 O48 P12 Ti8"
_cell_length_a       11.9528
_cell_length_b       8.65646
_cell_length_c       8.88849
_cell_angle_alpha    90
_cell_angle_beta     90
_cell_angle_gamma    90

_space_group_name_H-M_alt    "P 1"
_space_group_IT_number       1

loop_
  _space_group_symop_operation_xyz
  'x, y, z'

loop_
  _atom_site_type_symbol
  _atom_site_label
  _atom_site_symmetry_multiplicity
  _atom_site_fract_x
  _atom_site_fract_y
  _atom_site_fract_z
  _atom_site_occupancy
  Na  Na1       1.0  0.14500  0.26700  0.18000  1.0000
  Na  Na2       1.0  0.35500  0.76700  0.18000  1.0000
  Na  Na3       1.0  0.85500  0.26700  0.32000  1.0000
  Na  Na4       1.0  0.64500  0.76700  0.32000  1.0000
  Na  Na5       1.0  0.35500  0.23300  0.68000  1.0000
  Na  Na6       1.0  0.14500  0.73300  0.68000  1.0000
  Na  Na7       1.0  0.64500  0.23300  0.82000  1.0000
  Na  Na8       1.0  0.85500  0.73300  0.82000  1.0000
  O   O1        1.0  0.74100  0.16000  0.02320  1.0000
  O   O2        1.0  0.75900  0.66000  0.02320  1.0000
  O   O3        1.0  0.53900  0.17100  0.07980  1.0000
  O   O4        1.0  0.96100  0.67100  0.07980  1.0000
  O   O5        1.0  0.86000  0.41900  0.11200  1.0000
  O   O6        1.0  0.64000  0.91900  0.11200  1.0000
  O   O7        1.0  0.95400  0.12700  0.12900  1.0000
  O   O8        1.0  0.54600  0.62700  0.12900  1.0000
  O   O9        1.0  0.40400  0.42100  0.18500  1.0000
  O   O10       1.0  0.09640  0.92100  0.18500  1.0000
  O   O11       1.0  0.32000  0.13000  0.20500  1.0000
  O   O12       1.0  0.18000  0.63000  0.20500  1.0000
  O   O13       1.0  0.68000  0.13000  0.29500  1.0000
  O   O14       1.0  0.82000  0.63000  0.29500  1.0000
  O   O15       1.0  0.59600  0.42100  0.31500  1.0000
  O   O16       1.0  0.90400  0.92100  0.31500  1.0000
  O   O17       1.0  0.04560  0.12700  0.37100  1.0000
  O   O18       1.0  0.45400  0.62700  0.37100  1.0000
  O   O19       1.0  0.14000  0.41900  0.38800  1.0000
  O   O20       1.0  0.36000  0.91900  0.38800  1.0000
  O   O21       1.0  0.46100  0.17100  0.42000  1.0000
  O   O22       1.0  0.03910  0.67100  0.42000  1.0000
  O   O23       1.0  0.25900  0.16000  0.47700  1.0000
  O   O24       1.0  0.24100  0.66000  0.47700  1.0000
  O   O25       1.0  0.75900  0.34000  0.52300  1.0000
  O   O26       1.0  0.74100  0.84000  0.52300  1.0000
  O   O27       1.0  0.96100  0.32900  0.58000  1.0000
  O   O28       1.0  0.53900  0.82900  0.58000  1.0000
  O   O29       1.0  0.64000  0.08100  0.61200  1.0000
  O   O30       1.0  0.86000  0.58100  0.61200  1.0000
  O   O31       1.0  0.54600  0.37300  0.62900  1.0000
  O   O32       1.0  0.95400  0.87300  0.62900  1.0000
  O   O33       1.0  0.09640  0.07950  0.68500  1.0000
  O   O34       1.0  0.40400  0.57900  0.68500  1.0000
  O   O35       1.0  0.18000  0.37000  0.70500  1.0000
  O   O36       1.0  0.32000  0.87000  0.70500  1.0000
  O   O37       1.0  0.82000  0.37000  0.79500  1.0000
  O   O38       1.0  0.68000  0.87000  0.79500  1.0000
  O   O39       1.0  0.90400  0.07950  0.81500  1.0000
  O   O40       1.0  0.59600  0.57900  0.81500  1.0000
  O   O41       1.0  0.45400  0.37300  0.87100  1.0000
  O   O42       1.0  0.04560  0.87300  0.87100  1.0000
  O   O43       1.0  0.36000  0.08100  0.88800  1.0000
  O   O44       1.0  0.14000  0.58100  0.88800  1.0000
  O   O45       1.0  0.03910  0.32900  0.92000  1.0000
  O   O46       1.0  0.46100  0.82900  0.92000  1.0000
  O   O47       1.0  0.24100  0.34000  0.97700  1.0000
  O   O48       1.0  0.25900  0.84000  0.97700  1.0000
  P   P1        1.0  0.65000  0.09560  0.12900  1.0000
  P   P2        1.0  0.85000  0.59600  0.12900  1.0000
  P   P3        1.0  0.00000  0.01590  0.25000  1.0000
  P   P4        1.0  0.50000  0.51600  0.25000  1.0000
  P   P5        1.0  0.35000  0.09560  0.37100  1.0000
  P   P6        1.0  0.15000  0.59600  0.37100  1.0000
  P   P7        1.0  0.85000  0.40400  0.62900  1.0000
  P   P8        1.0  0.65000  0.90400  0.62900  1.0000
  P   P9        1.0  0.50000  0.48400  0.75000  1.0000
  P   P10       1.0  0.00000  0.98400  0.75000  1.0000
  P   P11       1.0  0.15000  0.40400  0.87100  1.0000
  P   P12       1.0  0.35000  0.90400  0.87100  1.0000
  Ti  Ti1       1.0  0.39000  0.25200  0.03800  1.0000
  Ti  Ti2       1.0  0.11000  0.75200  0.03800  1.0000
  Ti  Ti3       1.0  0.61000  0.25200  0.46200  1.0000
  Ti  Ti4       1.0  0.89000  0.75200  0.46200  1.0000
  Ti  Ti5       1.0  0.11000  0.24800  0.53800  1.0000
  Ti  Ti6       1.0  0.39000  0.74800  0.53800  1.0000
  Ti  Ti7       1.0  0.89000  0.24800  0.96200  1.0000
  Ti  Ti8       1.0  0.61000  0.74800  0.96200  1.0000
