data_image0
_chemical_formula_structural       Cu4H4O36P12
_chemical_formula_sum              "Cu4 H4 O36 P12"
_cell_length_a       8.62697
_cell_length_b       8.09188
_cell_length_c       8.57264
_cell_angle_alpha    90
_cell_angle_beta     90
_cell_angle_gamma    90

_space_group_name_H-M_alt    "P 1"
_space_group_IT_number       1

loop_
  _space_group_symop_operation_xyz
  'x, y, z'

loop_
  _atom_site_type_symbol
  _atom_site_label
  _atom_site_symmetry_multiplicity
  _atom_site_fract_x
  _atom_site_fract_y
  _atom_site_fract_z
  _atom_site_occupancy
  Cu  Cu1       1.0  0.13500  0.07720  0.14900  1.0000
  Cu  Cu2       1.0  0.86500  0.57700  0.35100  1.0000
  Cu  Cu3       1.0  0.36500  0.92300  0.64900  1.0000
  Cu  Cu4       1.0  0.63500  0.42300  0.85100  1.0000
  H   H1        1.0  0.82800  0.25600  0.12400  1.0000
  H   H2        1.0  0.17200  0.75600  0.37600  1.0000
  H   H3        1.0  0.67200  0.74400  0.62400  1.0000
  H   H4        1.0  0.32800  0.24400  0.87600  1.0000
  O   O1        1.0  0.19400  0.59300  0.00835  1.0000
  O   O2        1.0  0.65000  0.43800  0.07750  1.0000
  O   O3        1.0  0.84300  0.14100  0.08340  1.0000
  O   O4        1.0  0.50000  0.71200  0.08860  1.0000
  O   O5        1.0  0.12900  0.31600  0.13000  1.0000
  O   O6        1.0  0.92700  0.60700  0.13400  1.0000
  O   O7        1.0  0.39700  0.08590  0.16100  1.0000
  O   O8        1.0  0.13100  0.84000  0.17400  1.0000
  O   O9        1.0  0.37800  0.46200  0.19300  1.0000
  O   O10       1.0  0.62200  0.96200  0.30700  1.0000
  O   O11       1.0  0.86900  0.34000  0.32600  1.0000
  O   O12       1.0  0.60300  0.58600  0.33900  1.0000
  O   O13       1.0  0.07290  0.10700  0.36600  1.0000
  O   O14       1.0  0.87100  0.81600  0.37000  1.0000
  O   O15       1.0  0.50000  0.21200  0.41100  1.0000
  O   O16       1.0  0.15700  0.64100  0.41700  1.0000
  O   O17       1.0  0.35000  0.93800  0.42200  1.0000
  O   O18       1.0  0.80600  0.09330  0.49200  1.0000
  O   O19       1.0  0.30600  0.40700  0.50800  1.0000
  O   O20       1.0  0.85000  0.56200  0.57800  1.0000
  O   O21       1.0  0.65700  0.85900  0.58300  1.0000
  O   O22       1.0  0.00000  0.28800  0.58900  1.0000
  O   O23       1.0  0.37100  0.68400  0.63000  1.0000
  O   O24       1.0  0.57300  0.39300  0.63400  1.0000
  O   O25       1.0  0.10300  0.91400  0.66100  1.0000
  O   O26       1.0  0.36900  0.16000  0.67400  1.0000
  O   O27       1.0  0.12200  0.53800  0.69300  1.0000
  O   O28       1.0  0.87800  0.03820  0.80700  1.0000
  O   O29       1.0  0.63100  0.66000  0.82600  1.0000
  O   O30       1.0  0.89700  0.41400  0.83900  1.0000
  O   O31       1.0  0.42700  0.89300  0.86600  1.0000
  O   O32       1.0  0.62900  0.18400  0.87000  1.0000
  O   O33       1.0  0.00016  0.78800  0.91100  1.0000
  O   O34       1.0  0.34300  0.35900  0.91700  1.0000
  O   O35       1.0  0.15000  0.06240  0.92200  1.0000
  O   O36       1.0  0.69400  0.90700  0.99200  1.0000
  P   P1        1.0  0.25500  0.41900  0.06370  1.0000
  P   P2        1.0  0.05610  0.71100  0.07210  1.0000
  P   P3        1.0  0.54900  0.54400  0.18000  1.0000
  P   P4        1.0  0.45100  0.04440  0.32000  1.0000
  P   P5        1.0  0.94400  0.21100  0.42800  1.0000
  P   P6        1.0  0.74500  0.91900  0.43600  1.0000
  P   P7        1.0  0.24500  0.58100  0.56400  1.0000
  P   P8        1.0  0.44400  0.28900  0.57200  1.0000
  P   P9        1.0  0.95100  0.45600  0.68000  1.0000
  P   P10       1.0  0.04950  0.95600  0.82000  1.0000
  P   P11       1.0  0.55600  0.78900  0.92800  1.0000
  P   P12       1.0  0.75500  0.08090  0.93600  1.0000
