data_image0
_chemical_formula_structural       Mg4Yb2
_chemical_formula_sum              "Mg4 Yb2"
_cell_length_a       3.52824
_cell_length_b       9.29166
_cell_length_c       5.41067
_cell_angle_alpha    90
_cell_angle_beta     90
_cell_angle_gamma    79.0553

_space_group_name_H-M_alt    "P 1"
_space_group_IT_number       1

loop_
  _space_group_symop_operation_xyz
  'x, y, z'

loop_
  _atom_site_type_symbol
  _atom_site_label
  _atom_site_symmetry_multiplicity
  _atom_site_fract_x
  _atom_site_fract_y
  _atom_site_fract_z
  _atom_site_occupancy
  Mg  Mg1       1.0  0.99000  0.02020  0.00000  1.0000
  Mg  Mg2       1.0  0.34200  0.31700  0.00000  1.0000
  Mg  Mg3       1.0  0.67000  0.66100  0.00000  1.0000
  Mg  Mg4       1.0  0.44200  0.11500  0.50000  1.0000
  Yb  Yb1       1.0  0.78500  0.42900  0.50000  1.0000
  Yb  Yb2       1.0  0.10500  0.79100  0.50000  1.0000
