data_image0
_chemical_formula_structural       H10O18P4V2
_chemical_formula_sum              "H10 O18 P4 V2"
_cell_length_a       7.41469
_cell_length_b       7.41469
_cell_length_c       7.41469
_cell_angle_alpha    103.337
_cell_angle_beta     122.59
_cell_angle_gamma    103.337

_space_group_name_H-M_alt    "P 1"
_space_group_IT_number       1

loop_
  _space_group_symop_operation_xyz
  'x, y, z'

loop_
  _atom_site_type_symbol
  _atom_site_label
  _atom_site_symmetry_multiplicity
  _atom_site_fract_x
  _atom_site_fract_y
  _atom_site_fract_z
  _atom_site_occupancy
  H   H1        1.0  0.75000  0.34400  0.09450  1.0000
  H   H2        1.0  0.90600  0.65600  0.25000  1.0000
  H   H3        1.0  0.75000  0.50000  0.25000  1.0000
  H   H4        1.0  0.59400  0.34400  0.25000  1.0000
  H   H5        1.0  0.75000  0.65600  0.40600  1.0000
  H   H6        1.0  0.25000  0.34400  0.59400  1.0000
  H   H7        1.0  0.09450  0.34400  0.75000  1.0000
  H   H8        1.0  0.25000  0.50000  0.75000  1.0000
  H   H9        1.0  0.40600  0.65600  0.75000  1.0000
  H   H10       1.0  0.25000  0.65600  0.90600  1.0000
  O   O1        1.0  0.80500  0.50000  0.05920  1.0000
  O   O2        1.0  0.83200  0.97400  0.14200  1.0000
  O   O3        1.0  0.14200  0.31000  0.16800  1.0000
  O   O4        1.0  0.69500  0.25500  0.19500  1.0000
  O   O5        1.0  0.25000  0.00000  0.25000  1.0000
  O   O6        1.0  0.55900  0.50000  0.30500  1.0000
  O   O7        1.0  0.64200  0.97400  0.33200  1.0000
  O   O8        1.0  0.33200  0.69000  0.35800  1.0000
  O   O9        1.0  0.94100  0.74500  0.44100  1.0000
  O   O10       1.0  0.05920  0.25500  0.55900  1.0000
  O   O11       1.0  0.66800  0.31000  0.64200  1.0000
  O   O12       1.0  0.35800  0.02630  0.66800  1.0000
  O   O13       1.0  0.44100  0.50000  0.69500  1.0000
  O   O14       1.0  0.75000  0.00000  0.75000  1.0000
  O   O15       1.0  0.30500  0.74500  0.80500  1.0000
  O   O16       1.0  0.85800  0.69000  0.83200  1.0000
  O   O17       1.0  0.16800  0.02630  0.85800  1.0000
  O   O18       1.0  0.19500  0.50000  0.94100  1.0000
  P   P1        1.0  0.30000  0.50000  0.20000  1.0000
  P   P2        1.0  0.80000  0.10000  0.30000  1.0000
  P   P3        1.0  0.20000  0.90000  0.70000  1.0000
  P   P4        1.0  0.70000  0.50000  0.80000  1.0000
  V   V1        1.0  0.00000  0.00000  0.00000  1.0000
  V   V2        1.0  0.50000  0.00000  0.50000  1.0000
