data_image0
_chemical_formula_structural       Na2O24P6Zr4
_chemical_formula_sum              "Na2 O24 P6 Zr4"
_cell_length_a       8.8306
_cell_length_b       8.8306
_cell_length_c       9.06988
_cell_angle_alpha    119.131
_cell_angle_beta     119.131
_cell_angle_gamma    60

_space_group_name_H-M_alt    "P 1"
_space_group_IT_number       1

loop_
  _space_group_symop_operation_xyz
  'x, y, z'

loop_
  _atom_site_type_symbol
  _atom_site_label
  _atom_site_symmetry_multiplicity
  _atom_site_fract_x
  _atom_site_fract_y
  _atom_site_fract_z
  _atom_site_occupancy
  Na  Na1       1.0  0.00000  0.00000  0.00000  1.0000
  Na  Na2       1.0  0.50000  0.50000  0.50000  1.0000
  O   O1        1.0  0.49600  0.88600  0.08160  1.0000
  O   O2        1.0  0.69900  0.49600  0.08160  1.0000
  O   O3        1.0  0.88600  0.69900  0.08160  1.0000
  O   O4        1.0  0.06180  0.91300  0.24800  1.0000
  O   O5        1.0  0.27300  0.06180  0.24800  1.0000
  O   O6        1.0  0.91300  0.27300  0.24800  1.0000
  O   O7        1.0  0.22700  0.58700  0.25200  1.0000
  O   O8        1.0  0.43800  0.22700  0.25200  1.0000
  O   O9        1.0  0.58700  0.43800  0.25200  1.0000
  O   O10       1.0  0.00367  0.80100  0.41800  1.0000
  O   O11       1.0  0.61400  0.00367  0.41800  1.0000
  O   O12       1.0  0.80100  0.61400  0.41800  1.0000
  O   O13       1.0  0.19900  0.38600  0.58200  1.0000
  O   O14       1.0  0.38600  0.99600  0.58200  1.0000
  O   O15       1.0  0.99600  0.19900  0.58200  1.0000
  O   O16       1.0  0.41300  0.56200  0.74800  1.0000
  O   O17       1.0  0.56200  0.77300  0.74800  1.0000
  O   O18       1.0  0.77300  0.41300  0.74800  1.0000
  O   O19       1.0  0.08660  0.72700  0.75200  1.0000
  O   O20       1.0  0.72700  0.93800  0.75200  1.0000
  O   O21       1.0  0.93800  0.08660  0.75200  1.0000
  O   O22       1.0  0.11400  0.30100  0.91800  1.0000
  O   O23       1.0  0.30100  0.50400  0.91800  1.0000
  O   O24       1.0  0.50400  0.11400  0.91800  1.0000
  P   P1        1.0  0.04400  0.75000  0.25000  1.0000
  P   P2        1.0  0.45600  0.04400  0.25000  1.0000
  P   P3        1.0  0.75000  0.45600  0.25000  1.0000
  P   P4        1.0  0.25000  0.54400  0.75000  1.0000
  P   P5        1.0  0.54400  0.95600  0.75000  1.0000
  P   P6        1.0  0.95600  0.25000  0.75000  1.0000
  Zr  Zr1       1.0  0.35600  0.35600  0.06750  1.0000
  Zr  Zr2       1.0  0.14400  0.14400  0.43300  1.0000
  Zr  Zr3       1.0  0.85600  0.85600  0.56700  1.0000
  Zr  Zr4       1.0  0.64400  0.64400  0.93300  1.0000
