data_image0
_chemical_formula_structural       Ga6Na18O58P16
_chemical_formula_sum              "Ga6 Na18 O58 P16"
_cell_length_a       9.81968
_cell_length_b       9.81967
_cell_length_c       14.5337
_cell_angle_alpha    90.0001
_cell_angle_beta     90
_cell_angle_gamma    120

_space_group_name_H-M_alt    "P 1"
_space_group_IT_number       1

loop_
  _space_group_symop_operation_xyz
  'x, y, z'

loop_
  _atom_site_type_symbol
  _atom_site_label
  _atom_site_symmetry_multiplicity
  _atom_site_fract_x
  _atom_site_fract_y
  _atom_site_fract_z
  _atom_site_occupancy
  Ga  Ga1       1.0  0.00000  0.43600  0.25000  1.0000
  Ga  Ga2       1.0  0.56400  0.56400  0.25000  1.0000
  Ga  Ga3       1.0  0.43600  0.00000  0.25000  1.0000
  Ga  Ga4       1.0  0.56400  0.00000  0.75000  1.0000
  Ga  Ga5       1.0  0.43600  0.43600  0.75000  1.0000
  Ga  Ga6       1.0  0.00000  0.56400  0.75000  1.0000
  Na  Na1       1.0  0.00000  0.00000  0.00000  1.0000
  Na  Na2       1.0  0.74100  0.63500  0.05040  1.0000
  Na  Na3       1.0  0.89400  0.25900  0.05040  1.0000
  Na  Na4       1.0  0.36500  0.10600  0.05040  1.0000
  Na  Na5       1.0  0.33300  0.66700  0.12000  1.0000
  Na  Na6       1.0  0.66700  0.33300  0.38000  1.0000
  Na  Na7       1.0  0.63500  0.74100  0.45000  1.0000
  Na  Na8       1.0  0.10600  0.36500  0.45000  1.0000
  Na  Na9       1.0  0.25900  0.89400  0.45000  1.0000
  Na  Na10      1.0  0.00000  0.00000  0.50000  1.0000
  Na  Na11      1.0  0.74100  0.10600  0.55000  1.0000
  Na  Na12      1.0  0.89400  0.63500  0.55000  1.0000
  Na  Na13      1.0  0.36500  0.25900  0.55000  1.0000
  Na  Na14      1.0  0.33300  0.66700  0.62000  1.0000
  Na  Na15      1.0  0.66700  0.33300  0.88000  1.0000
  Na  Na16      1.0  0.63500  0.89400  0.95000  1.0000
  Na  Na17      1.0  0.10600  0.74100  0.95000  1.0000
  Na  Na18      1.0  0.25900  0.36500  0.95000  1.0000
  O   O1        1.0  0.66700  0.33300  0.03670  1.0000
  O   O2        1.0  0.78500  0.99800  0.07670  1.0000
  O   O3        1.0  0.00168  0.78600  0.07670  1.0000
  O   O4        1.0  0.21400  0.21500  0.07670  1.0000
  O   O5        1.0  0.65700  0.74300  0.16100  1.0000
  O   O6        1.0  0.08570  0.34300  0.16100  1.0000
  O   O7        1.0  0.25700  0.91400  0.16100  1.0000
  O   O8        1.0  0.53300  0.91400  0.16600  1.0000
  O   O9        1.0  0.08590  0.61900  0.16600  1.0000
  O   O10       1.0  0.38100  0.46700  0.16600  1.0000
  O   O11       1.0  0.80700  0.31900  0.17900  1.0000
  O   O12       1.0  0.68100  0.48800  0.17900  1.0000
  O   O13       1.0  0.51200  0.19300  0.17900  1.0000
  O   O14       1.0  0.79400  0.00000  0.25000  1.0000
  O   O15       1.0  0.00000  0.79400  0.25000  1.0000
  O   O16       1.0  0.20600  0.20600  0.25000  1.0000
  O   O17       1.0  0.48800  0.68100  0.32100  1.0000
  O   O18       1.0  0.19300  0.51200  0.32100  1.0000
  O   O19       1.0  0.31900  0.80700  0.32100  1.0000
  O   O20       1.0  0.91400  0.53300  0.33400  1.0000
  O   O21       1.0  0.61900  0.08590  0.33400  1.0000
  O   O22       1.0  0.46700  0.38100  0.33400  1.0000
  O   O23       1.0  0.91400  0.25700  0.33900  1.0000
  O   O24       1.0  0.74300  0.65700  0.33900  1.0000
  O   O25       1.0  0.34300  0.08570  0.33900  1.0000
  O   O26       1.0  0.78600  0.00167  0.42300  1.0000
  O   O27       1.0  0.99800  0.78500  0.42300  1.0000
  O   O28       1.0  0.21500  0.21400  0.42300  1.0000
  O   O29       1.0  0.33300  0.66700  0.46300  1.0000
  O   O30       1.0  0.66700  0.33300  0.53700  1.0000
  O   O31       1.0  0.78500  0.78600  0.57700  1.0000
  O   O32       1.0  0.00167  0.21500  0.57700  1.0000
  O   O33       1.0  0.21400  0.99800  0.57700  1.0000
  O   O34       1.0  0.65700  0.91400  0.66100  1.0000
  O   O35       1.0  0.25700  0.34300  0.66100  1.0000
  O   O36       1.0  0.08570  0.74300  0.66100  1.0000
  O   O37       1.0  0.53300  0.61900  0.66600  1.0000
  O   O38       1.0  0.38100  0.91400  0.66600  1.0000
  O   O39       1.0  0.08590  0.46700  0.66600  1.0000
  O   O40       1.0  0.68100  0.19300  0.67900  1.0000
  O   O41       1.0  0.51200  0.31900  0.67900  1.0000
  O   O42       1.0  0.80700  0.48800  0.67900  1.0000
  O   O43       1.0  0.79400  0.79400  0.75000  1.0000
  O   O44       1.0  0.20600  0.00000  0.75000  1.0000
  O   O45       1.0  0.00000  0.20600  0.75000  1.0000
  O   O46       1.0  0.48800  0.80700  0.82100  1.0000
  O   O47       1.0  0.31900  0.51200  0.82100  1.0000
  O   O48       1.0  0.19300  0.68100  0.82100  1.0000
  O   O49       1.0  0.61900  0.53300  0.83400  1.0000
  O   O50       1.0  0.91400  0.38100  0.83400  1.0000
  O   O51       1.0  0.46700  0.08590  0.83400  1.0000
  O   O52       1.0  0.74300  0.08570  0.83900  1.0000
  O   O53       1.0  0.91400  0.65700  0.83900  1.0000
  O   O54       1.0  0.34300  0.25700  0.83900  1.0000
  O   O55       1.0  0.78600  0.78500  0.92300  1.0000
  O   O56       1.0  0.99800  0.21400  0.92300  1.0000
  O   O57       1.0  0.21500  0.00168  0.92300  1.0000
  O   O58       1.0  0.33300  0.66700  0.96300  1.0000
  P   P1        1.0  0.66700  0.33300  0.14300  1.0000
  P   P2        1.0  0.69000  0.91300  0.16100  1.0000
  P   P3        1.0  0.08670  0.77600  0.16100  1.0000
  P   P4        1.0  0.22400  0.31000  0.16100  1.0000
  P   P5        1.0  0.77600  0.08660  0.33900  1.0000
  P   P6        1.0  0.91300  0.69000  0.33900  1.0000
  P   P7        1.0  0.31000  0.22400  0.33900  1.0000
  P   P8        1.0  0.33300  0.66700  0.35700  1.0000
  P   P9        1.0  0.66700  0.33300  0.64300  1.0000
  P   P10       1.0  0.69000  0.77600  0.66100  1.0000
  P   P11       1.0  0.08670  0.31000  0.66100  1.0000
  P   P12       1.0  0.22400  0.91300  0.66100  1.0000
  P   P13       1.0  0.77600  0.69000  0.83900  1.0000
  P   P14       1.0  0.91300  0.22400  0.83900  1.0000
  P   P15       1.0  0.31000  0.08670  0.83900  1.0000
  P   P16       1.0  0.33300  0.66700  0.85700  1.0000
