data_image0
_chemical_formula_structural       H2Mn2O14P4
_chemical_formula_sum              "H2 Mn2 O14 P4"
_cell_length_a       6.98618
_cell_length_b       8.06461
_cell_length_c       4.70495
_cell_angle_alpha    90
_cell_angle_beta     112.563
_cell_angle_gamma    90

_space_group_name_H-M_alt    "P 1"
_space_group_IT_number       1

loop_
  _space_group_symop_operation_xyz
  'x, y, z'

loop_
  _atom_site_type_symbol
  _atom_site_label
  _atom_site_symmetry_multiplicity
  _atom_site_fract_x
  _atom_site_fract_y
  _atom_site_fract_z
  _atom_site_occupancy
  H   H1        1.0  0.83900  0.42200  0.07150  1.0000
  H   H2        1.0  0.16100  0.92200  0.92900  1.0000
  Mn  Mn1       1.0  0.22800  0.23600  0.20900  1.0000
  Mn  Mn2       1.0  0.77200  0.73600  0.79100  1.0000
  O   O1        1.0  0.36200  0.01520  0.10200  1.0000
  O   O2        1.0  0.38200  0.40800  0.10900  1.0000
  O   O3        1.0  0.97700  0.72500  0.21400  1.0000
  O   O4        1.0  0.98400  0.41100  0.24600  1.0000
  O   O5        1.0  0.07610  0.07350  0.33800  1.0000
  O   O6        1.0  0.60300  0.77700  0.36800  1.0000
  O   O7        1.0  0.72900  0.07870  0.38600  1.0000
  O   O8        1.0  0.27100  0.57900  0.61400  1.0000
  O   O9        1.0  0.39700  0.27700  0.63200  1.0000
  O   O10       1.0  0.92400  0.57300  0.66200  1.0000
  O   O11       1.0  0.01590  0.91100  0.75400  1.0000
  O   O12       1.0  0.02260  0.22500  0.78600  1.0000
  O   O13       1.0  0.61800  0.90800  0.89100  1.0000
  O   O14       1.0  0.63800  0.51500  0.89800  1.0000
  P   P1        1.0  0.57200  0.93600  0.18000  1.0000
  P   P2        1.0  0.02740  0.57900  0.43300  1.0000
  P   P3        1.0  0.97300  0.07930  0.56700  1.0000
  P   P4        1.0  0.42800  0.43600  0.82000  1.0000
