data_image0
_chemical_formula_structural       H8O48P12Ti8
_chemical_formula_sum              "H8 O48 P12 Ti8"
_cell_length_a       12.1404
_cell_length_b       8.62964
_cell_length_c       8.27943
_cell_angle_alpha    90
_cell_angle_beta     90
_cell_angle_gamma    90

_space_group_name_H-M_alt    "P 1"
_space_group_IT_number       1

loop_
  _space_group_symop_operation_xyz
  'x, y, z'

loop_
  _atom_site_type_symbol
  _atom_site_label
  _atom_site_symmetry_multiplicity
  _atom_site_fract_x
  _atom_site_fract_y
  _atom_site_fract_z
  _atom_site_occupancy
  H   H1        1.0  0.17900  0.29100  0.13800  1.0000
  H   H2        1.0  0.32100  0.79100  0.13800  1.0000
  H   H3        1.0  0.82100  0.29100  0.36200  1.0000
  H   H4        1.0  0.67900  0.79100  0.36200  1.0000
  H   H5        1.0  0.32100  0.20900  0.63800  1.0000
  H   H6        1.0  0.17900  0.70900  0.63800  1.0000
  H   H7        1.0  0.67900  0.20900  0.86200  1.0000
  H   H8        1.0  0.82100  0.70900  0.86200  1.0000
  O   O1        1.0  0.21600  0.32000  0.03550  1.0000
  O   O2        1.0  0.28400  0.82000  0.03550  1.0000
  O   O3        1.0  0.52300  0.14400  0.05240  1.0000
  O   O4        1.0  0.97700  0.64400  0.05240  1.0000
  O   O5        1.0  0.83400  0.42800  0.09850  1.0000
  O   O6        1.0  0.66600  0.92800  0.09850  1.0000
  O   O7        1.0  0.43900  0.44100  0.12700  1.0000
  O   O8        1.0  0.06120  0.94100  0.12700  1.0000
  O   O9        1.0  0.91100  0.14800  0.17600  1.0000
  O   O10       1.0  0.58900  0.64800  0.17600  1.0000
  O   O11       1.0  0.32500  0.17000  0.23800  1.0000
  O   O12       1.0  0.17500  0.67000  0.23800  1.0000
  O   O13       1.0  0.67500  0.17000  0.26200  1.0000
  O   O14       1.0  0.82500  0.67000  0.26200  1.0000
  O   O15       1.0  0.08900  0.14800  0.32400  1.0000
  O   O16       1.0  0.41100  0.64800  0.32400  1.0000
  O   O17       1.0  0.56100  0.44100  0.37300  1.0000
  O   O18       1.0  0.93900  0.94100  0.37300  1.0000
  O   O19       1.0  0.16600  0.42800  0.40200  1.0000
  O   O20       1.0  0.33400  0.92800  0.40200  1.0000
  O   O21       1.0  0.47700  0.14400  0.44800  1.0000
  O   O22       1.0  0.02350  0.64400  0.44800  1.0000
  O   O23       1.0  0.78400  0.32000  0.46400  1.0000
  O   O24       1.0  0.71600  0.82000  0.46400  1.0000
  O   O25       1.0  0.28400  0.18000  0.53600  1.0000
  O   O26       1.0  0.21600  0.68000  0.53600  1.0000
  O   O27       1.0  0.97700  0.35600  0.55200  1.0000
  O   O28       1.0  0.52300  0.85600  0.55200  1.0000
  O   O29       1.0  0.66600  0.07180  0.59800  1.0000
  O   O30       1.0  0.83400  0.57200  0.59800  1.0000
  O   O31       1.0  0.06120  0.05900  0.62700  1.0000
  O   O32       1.0  0.43900  0.55900  0.62700  1.0000
  O   O33       1.0  0.58900  0.35200  0.67600  1.0000
  O   O34       1.0  0.91100  0.85200  0.67600  1.0000
  O   O35       1.0  0.17500  0.33000  0.73800  1.0000
  O   O36       1.0  0.32500  0.83000  0.73800  1.0000
  O   O37       1.0  0.82500  0.33000  0.76200  1.0000
  O   O38       1.0  0.67500  0.83000  0.76200  1.0000
  O   O39       1.0  0.41100  0.35200  0.82400  1.0000
  O   O40       1.0  0.08900  0.85200  0.82400  1.0000
  O   O41       1.0  0.93900  0.05900  0.87300  1.0000
  O   O42       1.0  0.56100  0.55900  0.87300  1.0000
  O   O43       1.0  0.33400  0.07180  0.90200  1.0000
  O   O44       1.0  0.16600  0.57200  0.90200  1.0000
  O   O45       1.0  0.02350  0.35600  0.94800  1.0000
  O   O46       1.0  0.47700  0.85600  0.94800  1.0000
  O   O47       1.0  0.71600  0.18000  0.96500  1.0000
  O   O48       1.0  0.78400  0.68000  0.96500  1.0000
  P   P1        1.0  0.63900  0.10000  0.10200  1.0000
  P   P2        1.0  0.86100  0.60000  0.10200  1.0000
  P   P3        1.0  0.00000  0.04240  0.25000  1.0000
  P   P4        1.0  0.50000  0.54200  0.25000  1.0000
  P   P5        1.0  0.36100  0.10000  0.39800  1.0000
  P   P6        1.0  0.13900  0.60000  0.39800  1.0000
  P   P7        1.0  0.86100  0.40000  0.60200  1.0000
  P   P8        1.0  0.63900  0.90000  0.60200  1.0000
  P   P9        1.0  0.50000  0.45800  0.75000  1.0000
  P   P10       1.0  0.00000  0.95800  0.75000  1.0000
  P   P11       1.0  0.13900  0.40000  0.89800  1.0000
  P   P12       1.0  0.36100  0.90000  0.89800  1.0000
  Ti  Ti1       1.0  0.38500  0.25300  0.03280  1.0000
  Ti  Ti2       1.0  0.11500  0.75300  0.03280  1.0000
  Ti  Ti3       1.0  0.61500  0.25300  0.46700  1.0000
  Ti  Ti4       1.0  0.88500  0.75300  0.46700  1.0000
  Ti  Ti5       1.0  0.11500  0.24700  0.53300  1.0000
  Ti  Ti6       1.0  0.38500  0.74700  0.53300  1.0000
  Ti  Ti7       1.0  0.88500  0.24700  0.96700  1.0000
  Ti  Ti8       1.0  0.61500  0.74700  0.96700  1.0000
