data_image0
_chemical_formula_structural       Ca2Cu2Ga
_chemical_formula_sum              "Ca2 Cu2 Ga1"
_cell_length_a       4.29728
_cell_length_b       5.43543
_cell_length_c       5.65803
_cell_angle_alpha    118.707
_cell_angle_beta     112.318
_cell_angle_gamma    90

_space_group_name_H-M_alt    "P 1"
_space_group_IT_number       1

loop_
  _space_group_symop_operation_xyz
  'x, y, z'

loop_
  _atom_site_type_symbol
  _atom_site_label
  _atom_site_symmetry_multiplicity
  _atom_site_fract_x
  _atom_site_fract_y
  _atom_site_fract_z
  _atom_site_occupancy
  Ca  Ca1       1.0  0.19600  0.69600  0.39100  1.0000
  Ca  Ca2       1.0  0.80400  0.30400  0.60900  1.0000
  Cu  Cu1       1.0  0.50000  0.25700  0.00000  1.0000
  Cu  Cu2       1.0  0.50000  0.74300  0.00000  1.0000
  Ga  Ga1       1.0  0.00000  0.00000  0.00000  1.0000
