data_image0
_chemical_formula_structural       Ca2N2Zn
_chemical_formula_sum              "Ca2 N2 Zn1"
_cell_length_a       3.53745
_cell_length_b       3.53745
_cell_length_c       6.75838
_cell_angle_alpha    105.171
_cell_angle_beta     105.171
_cell_angle_gamma    90

_space_group_name_H-M_alt    "P 1"
_space_group_IT_number       1

loop_
  _space_group_symop_operation_xyz
  'x, y, z'

loop_
  _atom_site_type_symbol
  _atom_site_label
  _atom_site_symmetry_multiplicity
  _atom_site_fract_x
  _atom_site_fract_y
  _atom_site_fract_z
  _atom_site_occupancy
  Ca  Ca1       1.0  0.66300  0.66300  0.32600  1.0000
  Ca  Ca2       1.0  0.33700  0.33700  0.67400  1.0000
  N   N1        1.0  0.14700  0.14700  0.29300  1.0000
  N   N2        1.0  0.85300  0.85300  0.70700  1.0000
  Zn  Zn1       1.0  0.00000  0.00000  0.00000  1.0000
