data_image0
_chemical_formula_structural       Ag6O2
_chemical_formula_sum              "Ag6 O2"
_cell_length_a       5.36632
_cell_length_b       5.36634
_cell_length_c       5.0052
_cell_angle_alpha    90
_cell_angle_beta     90
_cell_angle_gamma    120

_space_group_name_H-M_alt    "P 1"
_space_group_IT_number       1

loop_
  _space_group_symop_operation_xyz
  'x, y, z'

loop_
  _atom_site_type_symbol
  _atom_site_label
  _atom_site_symmetry_multiplicity
  _atom_site_fract_x
  _atom_site_fract_y
  _atom_site_fract_z
  _atom_site_occupancy
  Ag  Ag1       1.0  0.31100  0.00000  0.22200  1.0000
  Ag  Ag2       1.0  0.68900  0.68900  0.22200  1.0000
  Ag  Ag3       1.0  0.00000  0.31100  0.22200  1.0000
  Ag  Ag4       1.0  0.00000  0.68900  0.77800  1.0000
  Ag  Ag5       1.0  0.68900  0.00000  0.77800  1.0000
  Ag  Ag6       1.0  0.31100  0.31100  0.77800  1.0000
  O   O1        1.0  0.66700  0.33300  0.50000  1.0000
  O   O2        1.0  0.33300  0.66700  0.50000  1.0000
