data_image0
_chemical_formula_structural       AlGd2Ni2
_chemical_formula_sum              "Al1 Gd2 Ni2"
_cell_length_a       4.20273
_cell_length_b       5.42206
_cell_length_c       5.41687
_cell_angle_alpha    120.032
_cell_angle_beta     112.826
_cell_angle_gamma    90

_space_group_name_H-M_alt    "P 1"
_space_group_IT_number       1

loop_
  _space_group_symop_operation_xyz
  'x, y, z'

loop_
  _atom_site_type_symbol
  _atom_site_label
  _atom_site_symmetry_multiplicity
  _atom_site_fract_x
  _atom_site_fract_y
  _atom_site_fract_z
  _atom_site_occupancy
  Al  Al1       1.0  0.00000  0.00000  0.00000  1.0000
  Gd  Gd1       1.0  0.20200  0.70200  0.40500  1.0000
  Gd  Gd2       1.0  0.79800  0.29800  0.59500  1.0000
  Ni  Ni1       1.0  0.50000  0.26400  0.00000  1.0000
  Ni  Ni2       1.0  0.50000  0.73600  0.00000  1.0000
