data_image0
_chemical_formula_structural       Ca2Ti4
_chemical_formula_sum              "Ca2 Ti4"
_cell_length_a       5.76506
_cell_length_b       5.76805
_cell_length_c       4.75621
_cell_angle_alpha    90
_cell_angle_beta     90
_cell_angle_gamma    59.985

_space_group_name_H-M_alt    "P 1"
_space_group_IT_number       1

loop_
  _space_group_symop_operation_xyz
  'x, y, z'

loop_
  _atom_site_type_symbol
  _atom_site_label
  _atom_site_symmetry_multiplicity
  _atom_site_fract_x
  _atom_site_fract_y
  _atom_site_fract_z
  _atom_site_occupancy
  Ca  Ca1       1.0  0.00000  0.00014  0.00000  1.0000
  Ca  Ca2       1.0  0.33300  0.33300  0.00000  1.0000
  Ti  Ti1       1.0  0.66700  0.66700  0.00000  1.0000
  Ti  Ti2       1.0  0.93100  0.40200  0.50000  1.0000
  Ti  Ti3       1.0  0.40200  0.66700  0.50000  1.0000
  Ti  Ti4       1.0  0.66700  0.93100  0.50000  1.0000
