data_image0
_chemical_formula_structural       CdTi2
_chemical_formula_sum              "Cd1 Ti2"
_cell_length_a       2.8489
_cell_length_b       2.8489
_cell_length_c       7.01549
_cell_angle_alpha    101.715
_cell_angle_beta     101.715
_cell_angle_gamma    90

_space_group_name_H-M_alt    "P 1"
_space_group_IT_number       1

loop_
  _space_group_symop_operation_xyz
  'x, y, z'

loop_
  _atom_site_type_symbol
  _atom_site_label
  _atom_site_symmetry_multiplicity
  _atom_site_fract_x
  _atom_site_fract_y
  _atom_site_fract_z
  _atom_site_occupancy
  Cd  Cd1       1.0  0.00000  0.00000  0.00000  1.0000
  Ti  Ti1       1.0  0.67800  0.67800  0.35600  1.0000
  Ti  Ti2       1.0  0.32200  0.32200  0.64400  1.0000
