data_image0
_chemical_formula_structural       NiO2Rb2
_chemical_formula_sum              "Ni1 O2 Rb2"
_cell_length_a       4.11672
_cell_length_b       4.11672
_cell_length_c       7.18829
_cell_angle_alpha    106.639
_cell_angle_beta     106.639
_cell_angle_gamma    90

_space_group_name_H-M_alt    "P 1"
_space_group_IT_number       1

loop_
  _space_group_symop_operation_xyz
  'x, y, z'

loop_
  _atom_site_type_symbol
  _atom_site_label
  _atom_site_symmetry_multiplicity
  _atom_site_fract_x
  _atom_site_fract_y
  _atom_site_fract_z
  _atom_site_occupancy
  Ni  Ni1       1.0  0.00000  0.00000  0.00000  1.0000
  O   O1        1.0  0.12800  0.12800  0.25700  1.0000
  O   O2        1.0  0.87200  0.87200  0.74300  1.0000
  Rb  Rb1       1.0  0.65500  0.65500  0.31000  1.0000
  Rb  Rb2       1.0  0.34500  0.34500  0.69000  1.0000
