data_image0
_chemical_formula_structural       La2O2S
_chemical_formula_sum              "La2 O2 S1"
_cell_length_a       4.03857
_cell_length_b       4.03863
_cell_length_c       6.92045
_cell_angle_alpha    90
_cell_angle_beta     89.9999
_cell_angle_gamma    120.001

_space_group_name_H-M_alt    "P 1"
_space_group_IT_number       1

loop_
  _space_group_symop_operation_xyz
  'x, y, z'

loop_
  _atom_site_type_symbol
  _atom_site_label
  _atom_site_symmetry_multiplicity
  _atom_site_fract_x
  _atom_site_fract_y
  _atom_site_fract_z
  _atom_site_occupancy
  La  La1       1.0  0.66700  0.33300  0.28000  1.0000
  La  La2       1.0  0.33300  0.66700  0.72000  1.0000
  O   O1        1.0  0.33300  0.66700  0.37100  1.0000
  O   O2        1.0  0.66700  0.33300  0.62900  1.0000
  S   S1        1.0  0.00000  0.00000  0.00000  1.0000
