data_image0
_chemical_formula_structural       Fe2Ti4
_chemical_formula_sum              "Fe2 Ti4"
_cell_length_a       5.05486
_cell_length_b       5.05957
_cell_length_c       3.89543
_cell_angle_alpha    90
_cell_angle_beta     90
_cell_angle_gamma    60.0479

_space_group_name_H-M_alt    "P 1"
_space_group_IT_number       1

loop_
  _space_group_symop_operation_xyz
  'x, y, z'

loop_
  _atom_site_type_symbol
  _atom_site_label
  _atom_site_symmetry_multiplicity
  _atom_site_fract_x
  _atom_site_fract_y
  _atom_site_fract_z
  _atom_site_occupancy
  Fe  Fe1       1.0  0.33300  0.33300  0.00000  1.0000
  Fe  Fe2       1.0  0.00000  0.00000  0.00000  1.0000
  Ti  Ti1       1.0  0.66700  0.66700  0.00000  1.0000
  Ti  Ti2       1.0  0.66600  0.05650  0.50000  1.0000
  Ti  Ti3       1.0  0.05650  0.27700  0.50000  1.0000
  Ti  Ti4       1.0  0.27700  0.66600  0.50000  1.0000
