data_image0
_chemical_formula_structural       Ba3Pb9
_chemical_formula_sum              "Ba3 Pb9"
_cell_length_a       7.36178
_cell_length_b       7.36178
_cell_length_c       9.62232
_cell_angle_alpha    112.491
_cell_angle_beta     67.5091
_cell_angle_gamma    120

_space_group_name_H-M_alt    "P 1"
_space_group_IT_number       1

loop_
  _space_group_symop_operation_xyz
  'x, y, z'

loop_
  _atom_site_type_symbol
  _atom_site_label
  _atom_site_symmetry_multiplicity
  _atom_site_fract_x
  _atom_site_fract_y
  _atom_site_fract_z
  _atom_site_occupancy
  Ba  Ba1       1.0  0.00000  0.00000  0.00000  1.0000
  Ba  Ba2       1.0  0.21800  0.78200  0.34700  1.0000
  Ba  Ba3       1.0  0.78200  0.21800  0.65300  1.0000
  Pb  Pb1       1.0  0.50000  0.00000  0.00000  1.0000
  Pb  Pb2       1.0  0.00000  0.50000  0.00000  1.0000
  Pb  Pb3       1.0  0.50000  0.50000  0.00000  1.0000
  Pb  Pb4       1.0  0.26200  0.29600  0.33100  1.0000
  Pb  Pb5       1.0  0.70400  0.29600  0.33100  1.0000
  Pb  Pb6       1.0  0.70400  0.73800  0.33100  1.0000
  Pb  Pb7       1.0  0.29600  0.26200  0.66900  1.0000
  Pb  Pb8       1.0  0.29600  0.70400  0.66900  1.0000
  Pb  Pb9       1.0  0.73800  0.70400  0.66900  1.0000
