data_image0
_chemical_formula_structural       BaNiSn3
_chemical_formula_sum              "Ba1 Ni1 Sn3"
_cell_length_a       4.87366
_cell_length_b       4.87366
_cell_length_c       6.49761
_cell_angle_alpha    112.026
_cell_angle_beta     112.026
_cell_angle_gamma    90

_space_group_name_H-M_alt    "P 1"
_space_group_IT_number       1

loop_
  _space_group_symop_operation_xyz
  'x, y, z'

loop_
  _atom_site_type_symbol
  _atom_site_label
  _atom_site_symmetry_multiplicity
  _atom_site_fract_x
  _atom_site_fract_y
  _atom_site_fract_z
  _atom_site_occupancy
  Ba  Ba1       1.0  0.00060  0.00060  0.00121  1.0000
  Ni  Ni1       1.0  0.66200  0.66200  0.32300  1.0000
  Sn  Sn1       1.0  0.74900  0.24900  0.49900  1.0000
  Sn  Sn2       1.0  0.24900  0.74900  0.49900  1.0000
  Sn  Sn3       1.0  0.42700  0.42700  0.85500  1.0000
