data_image0
_chemical_formula_structural       K2PtTe2
_chemical_formula_sum              "K2 Pt1 Te2"
_cell_length_a       4.03502
_cell_length_b       6.86265
_cell_length_c       6.86265
_cell_angle_alpha    99.1246
_cell_angle_beta     107.097
_cell_angle_gamma    107.097

_space_group_name_H-M_alt    "P 1"
_space_group_IT_number       1

loop_
  _space_group_symop_operation_xyz
  'x, y, z'

loop_
  _atom_site_type_symbol
  _atom_site_label
  _atom_site_symmetry_multiplicity
  _atom_site_fract_x
  _atom_site_fract_y
  _atom_site_fract_z
  _atom_site_occupancy
  K   K1        1.0  0.50000  0.70400  0.29600  1.0000
  K   K2        1.0  0.50000  0.29600  0.70400  1.0000
  Pt  Pt1       1.0  0.00000  0.00000  0.00000  1.0000
  Te  Te1       1.0  0.72000  0.22000  0.22000  1.0000
  Te  Te2       1.0  0.28000  0.78000  0.78000  1.0000
