data_image0
_chemical_formula_structural       CeFeGe3
_chemical_formula_sum              "Ce1 Fe1 Ge3"
_cell_length_a       4.36364
_cell_length_b       4.36364
_cell_length_c       5.87381
_cell_angle_alpha    111.805
_cell_angle_beta     111.805
_cell_angle_gamma    90

_space_group_name_H-M_alt    "P 1"
_space_group_IT_number       1

loop_
  _space_group_symop_operation_xyz
  'x, y, z'

loop_
  _atom_site_type_symbol
  _atom_site_label
  _atom_site_symmetry_multiplicity
  _atom_site_fract_x
  _atom_site_fract_y
  _atom_site_fract_z
  _atom_site_occupancy
  Ce  Ce1       1.0  0.33300  0.33300  0.66600  1.0000
  Fe  Fe1       1.0  0.99900  0.99900  0.99700  1.0000
  Ge  Ge1       1.0  0.58900  0.08880  0.17800  1.0000
  Ge  Ge2       1.0  0.08880  0.58900  0.17800  1.0000
  Ge  Ge3       1.0  0.76900  0.76900  0.53900  1.0000
