data_image0
_chemical_formula_structural       Bi2Na6
_chemical_formula_sum              "Bi2 Na6"
_cell_length_a       5.38408
_cell_length_b       5.38415
_cell_length_c       9.55951
_cell_angle_alpha    90
_cell_angle_beta     90
_cell_angle_gamma    120

_space_group_name_H-M_alt    "P 1"
_space_group_IT_number       1

loop_
  _space_group_symop_operation_xyz
  'x, y, z'

loop_
  _atom_site_type_symbol
  _atom_site_label
  _atom_site_symmetry_multiplicity
  _atom_site_fract_x
  _atom_site_fract_y
  _atom_site_fract_z
  _atom_site_occupancy
  Bi  Bi1       1.0  0.33300  0.66700  0.25000  1.0000
  Bi  Bi2       1.0  0.66700  0.33300  0.75000  1.0000
  Na  Na1       1.0  0.66700  0.33300  0.08290  1.0000
  Na  Na2       1.0  0.00000  0.00000  0.25000  1.0000
  Na  Na3       1.0  0.66700  0.33300  0.41700  1.0000
  Na  Na4       1.0  0.33300  0.66700  0.58300  1.0000
  Na  Na5       1.0  0.00000  0.00000  0.75000  1.0000
  Na  Na6       1.0  0.33300  0.66700  0.91700  1.0000
