data_image0
_chemical_formula_structural       CCl2Gd2
_chemical_formula_sum              "C1 Cl2 Gd2"
_cell_length_a       3.76246
_cell_length_b       3.76215
_cell_length_c       9.75669
_cell_angle_alpha    90
_cell_angle_beta     90.0038
_cell_angle_gamma    119.997

_space_group_name_H-M_alt    "P 1"
_space_group_IT_number       1

loop_
  _space_group_symop_operation_xyz
  'x, y, z'

loop_
  _atom_site_type_symbol
  _atom_site_label
  _atom_site_symmetry_multiplicity
  _atom_site_fract_x
  _atom_site_fract_y
  _atom_site_fract_z
  _atom_site_occupancy
  C   C1        1.0  0.00000  0.00000  0.50000  1.0000
  Cl  Cl1       1.0  0.66700  0.33300  0.17900  1.0000
  Cl  Cl2       1.0  0.33300  0.66700  0.82100  1.0000
  Gd  Gd1       1.0  0.33300  0.66700  0.35900  1.0000
  Gd  Gd2       1.0  0.66700  0.33300  0.64100  1.0000
