data_image0
_chemical_formula_structural       GeI2Y2
_chemical_formula_sum              "Ge1 I2 Y2"
_cell_length_a       4.23681
_cell_length_b       4.23704
_cell_length_c       11.0855
_cell_angle_alpha    101.017
_cell_angle_beta     78.981
_cell_angle_gamma    120.002

_space_group_name_H-M_alt    "P 1"
_space_group_IT_number       1

loop_
  _space_group_symop_operation_xyz
  'x, y, z'

loop_
  _atom_site_type_symbol
  _atom_site_label
  _atom_site_symmetry_multiplicity
  _atom_site_fract_x
  _atom_site_fract_y
  _atom_site_fract_z
  _atom_site_occupancy
  Ge  Ge1       1.0  0.00000  0.00000  0.00000  1.0000
  I   I1        1.0  0.22300  0.77700  0.33000  1.0000
  I   I2        1.0  0.77700  0.22300  0.67000  1.0000
  Y   Y1        1.0  0.61900  0.38100  0.14400  1.0000
  Y   Y2        1.0  0.38100  0.61900  0.85600  1.0000
