data_image0
_chemical_formula_structural       BaGe3Ir
_chemical_formula_sum              "Ba1 Ge3 Ir1"
_cell_length_a       4.58946
_cell_length_b       4.58946
_cell_length_c       6.09543
_cell_angle_alpha    112.115
_cell_angle_beta     112.115
_cell_angle_gamma    90

_space_group_name_H-M_alt    "P 1"
_space_group_IT_number       1

loop_
  _space_group_symop_operation_xyz
  'x, y, z'

loop_
  _atom_site_type_symbol
  _atom_site_label
  _atom_site_symmetry_multiplicity
  _atom_site_fract_x
  _atom_site_fract_y
  _atom_site_fract_z
  _atom_site_occupancy
  Ba  Ba1       1.0  0.41000  0.41000  0.82100  1.0000
  Ge  Ge1       1.0  0.00000  0.00000  0.99900  1.0000
  Ge  Ge2       1.0  0.65800  0.15800  0.31500  1.0000
  Ge  Ge3       1.0  0.15800  0.65800  0.31500  1.0000
  Ir  Ir1       1.0  0.76000  0.76000  0.51900  1.0000
