data_image0
_chemical_formula_structural       BaGe3Rh
_chemical_formula_sum              "Ba1 Ge3 Rh1"
_cell_length_a       4.56398
_cell_length_b       4.56398
_cell_length_c       6.11364
_cell_angle_alpha    111.917
_cell_angle_beta     111.917
_cell_angle_gamma    90

_space_group_name_H-M_alt    "P 1"
_space_group_IT_number       1

loop_
  _space_group_symop_operation_xyz
  'x, y, z'

loop_
  _atom_site_type_symbol
  _atom_site_label
  _atom_site_symmetry_multiplicity
  _atom_site_fract_x
  _atom_site_fract_y
  _atom_site_fract_z
  _atom_site_occupancy
  Ba  Ba1       1.0  0.41000  0.41000  0.81900  1.0000
  Ge  Ge1       1.0  0.00078  0.00078  0.00157  1.0000
  Ge  Ge2       1.0  0.65600  0.15600  0.31300  1.0000
  Ge  Ge3       1.0  0.15600  0.65600  0.31300  1.0000
  Rh  Rh1       1.0  0.76000  0.76000  0.51900  1.0000
