data_image0
_chemical_formula_structural       BaPtSn3
_chemical_formula_sum              "Ba1 Pt1 Sn3"
_cell_length_a       4.93683
_cell_length_b       4.93683
_cell_length_c       6.60331
_cell_angle_alpha    111.951
_cell_angle_beta     111.951
_cell_angle_gamma    90

_space_group_name_H-M_alt    "P 1"
_space_group_IT_number       1

loop_
  _space_group_symop_operation_xyz
  'x, y, z'

loop_
  _atom_site_type_symbol
  _atom_site_label
  _atom_site_symmetry_multiplicity
  _atom_site_fract_x
  _atom_site_fract_y
  _atom_site_fract_z
  _atom_site_occupancy
  Ba  Ba1       1.0  0.00064  0.00064  0.00128  1.0000
  Pt  Pt1       1.0  0.65400  0.65400  0.30700  1.0000
  Sn  Sn1       1.0  0.75300  0.25300  0.50700  1.0000
  Sn  Sn2       1.0  0.25300  0.75300  0.50700  1.0000
  Sn  Sn3       1.0  0.41800  0.41800  0.83600  1.0000
