data_image0
_chemical_formula_structural       Ce2O3
_chemical_formula_sum              "Ce2 O3"
_cell_length_a       3.91468
_cell_length_b       3.91487
_cell_length_c       6.05819
_cell_angle_alpha    90
_cell_angle_beta     89.9984
_cell_angle_gamma    120.002

_space_group_name_H-M_alt    "P 1"
_space_group_IT_number       1

loop_
  _space_group_symop_operation_xyz
  'x, y, z'

loop_
  _atom_site_type_symbol
  _atom_site_label
  _atom_site_symmetry_multiplicity
  _atom_site_fract_x
  _atom_site_fract_y
  _atom_site_fract_z
  _atom_site_occupancy
  Ce  Ce1       1.0  0.33300  0.66700  0.24600  1.0000
  Ce  Ce2       1.0  0.66700  0.33300  0.75400  1.0000
  O   O1        1.0  0.00000  0.00000  0.00000  1.0000
  O   O2        1.0  0.66700  0.33300  0.35500  1.0000
  O   O3        1.0  0.33300  0.66700  0.64500  1.0000
