data_image0
_chemical_formula_structural       Br6Np2
_chemical_formula_sum              "Br6 Np2"
_cell_length_a       7.95943
_cell_length_b       7.96052
_cell_length_c       4.41767
_cell_angle_alpha    90
_cell_angle_beta     90
_cell_angle_gamma    120.019

_space_group_name_H-M_alt    "P 1"
_space_group_IT_number       1

loop_
  _space_group_symop_operation_xyz
  'x, y, z'

loop_
  _atom_site_type_symbol
  _atom_site_label
  _atom_site_symmetry_multiplicity
  _atom_site_fract_x
  _atom_site_fract_y
  _atom_site_fract_z
  _atom_site_occupancy
  Br  Br1       1.0  0.69800  0.08570  0.25000  1.0000
  Br  Br2       1.0  0.38800  0.30200  0.25000  1.0000
  Br  Br3       1.0  0.91400  0.61200  0.25000  1.0000
  Br  Br4       1.0  0.08570  0.38800  0.75000  1.0000
  Br  Br5       1.0  0.61200  0.69800  0.75000  1.0000
  Br  Br6       1.0  0.30200  0.91400  0.75000  1.0000
  Np  Np1       1.0  0.33300  0.66700  0.25000  1.0000
  Np  Np2       1.0  0.66700  0.33300  0.75000  1.0000
