data_image0
_chemical_formula_structural       As2CaGa2
_chemical_formula_sum              "As2 Ca1 Ga2"
_cell_length_a       4.0266
_cell_length_b       4.0266
_cell_length_c       8.69801
_cell_angle_alpha    76.6166
_cell_angle_beta     103.383
_cell_angle_gamma    120

_space_group_name_H-M_alt    "P 1"
_space_group_IT_number       1

loop_
  _space_group_symop_operation_xyz
  'x, y, z'

loop_
  _atom_site_type_symbol
  _atom_site_label
  _atom_site_symmetry_multiplicity
  _atom_site_fract_x
  _atom_site_fract_y
  _atom_site_fract_z
  _atom_site_occupancy
  As  As1       1.0  0.74300  0.25700  0.22900  1.0000
  As  As2       1.0  0.25700  0.74300  0.77100  1.0000
  Ca  Ca1       1.0  0.00000  0.00000  0.00000  1.0000
  Ga  Ga1       1.0  0.45100  0.54900  0.35300  1.0000
  Ga  Ga2       1.0  0.54900  0.45100  0.64700  1.0000
