data_image0
_chemical_formula_structural       ReTi2
_chemical_formula_sum              "Re1 Ti2"
_cell_length_a       4.36727
_cell_length_b       4.36732
_cell_length_c       2.82759
_cell_angle_alpha    90
_cell_angle_beta     90
_cell_angle_gamma    120

_space_group_name_H-M_alt    "P 1"
_space_group_IT_number       1

loop_
  _space_group_symop_operation_xyz
  'x, y, z'

loop_
  _atom_site_type_symbol
  _atom_site_label
  _atom_site_symmetry_multiplicity
  _atom_site_fract_x
  _atom_site_fract_y
  _atom_site_fract_z
  _atom_site_occupancy
  Re  Re1       1.0  0.00000  0.00000  0.00000  1.0000
  Ti  Ti1       1.0  0.33300  0.66700  0.29900  1.0000
  Ti  Ti2       1.0  0.66700  0.33300  0.70100  1.0000
