data_image0
_chemical_formula_structural       Ru2Ti4
_chemical_formula_sum              "Ru2 Ti4"
_cell_length_a       5.11941
_cell_length_b       5.11408
_cell_length_c       4.13499
_cell_angle_alpha    90
_cell_angle_beta     90
_cell_angle_gamma    60.1252

_space_group_name_H-M_alt    "P 1"
_space_group_IT_number       1

loop_
  _space_group_symop_operation_xyz
  'x, y, z'

loop_
  _atom_site_type_symbol
  _atom_site_label
  _atom_site_symmetry_multiplicity
  _atom_site_fract_x
  _atom_site_fract_y
  _atom_site_fract_z
  _atom_site_occupancy
  Ru  Ru1       1.0  0.00034  0.00136  0.00000  1.0000
  Ru  Ru2       1.0  0.33200  0.33300  0.00000  1.0000
  Ti  Ti1       1.0  0.66700  0.66600  0.00000  1.0000
  Ti  Ti2       1.0  0.66500  0.03290  0.50000  1.0000
  Ti  Ti3       1.0  0.03390  0.30100  0.50000  1.0000
  Ti  Ti4       1.0  0.30200  0.66500  0.50000  1.0000
