data_image0
_chemical_formula_structural       Si4Ti4
_chemical_formula_sum              "Si4 Ti4"
_cell_length_a       6.52311
_cell_length_b       3.64326
_cell_length_c       5.00127
_cell_angle_alpha    90
_cell_angle_beta     90
_cell_angle_gamma    90

_space_group_name_H-M_alt    "P 1"
_space_group_IT_number       1

loop_
  _space_group_symop_operation_xyz
  'x, y, z'

loop_
  _atom_site_type_symbol
  _atom_site_label
  _atom_site_symmetry_multiplicity
  _atom_site_fract_x
  _atom_site_fract_y
  _atom_site_fract_z
  _atom_site_occupancy
  Si  Si1       1.0  0.45600  0.75000  0.14600  1.0000
  Si  Si2       1.0  0.95600  0.75000  0.35400  1.0000
  Si  Si3       1.0  0.04430  0.25000  0.64600  1.0000
  Si  Si4       1.0  0.54400  0.25000  0.85400  1.0000
  Ti  Ti1       1.0  0.17600  0.25000  0.12900  1.0000
  Ti  Ti2       1.0  0.67600  0.25000  0.37100  1.0000
  Ti  Ti3       1.0  0.32400  0.75000  0.62900  1.0000
  Ti  Ti4       1.0  0.82400  0.75000  0.87100  1.0000
