data_image0
_chemical_formula_structural       H8O48P12V8
_chemical_formula_sum              "H8 O48 P12 V8"
_cell_length_a       8.44376
_cell_length_b       8.2964
_cell_length_c       11.994
_cell_angle_alpha    90
_cell_angle_beta     90.3411
_cell_angle_gamma    90

_space_group_name_H-M_alt    "P 1"
_space_group_IT_number       1

loop_
  _space_group_symop_operation_xyz
  'x, y, z'

loop_
  _atom_site_type_symbol
  _atom_site_label
  _atom_site_symmetry_multiplicity
  _atom_site_fract_x
  _atom_site_fract_y
  _atom_site_fract_z
  _atom_site_occupancy
  H   H1        1.0  0.82300  0.35900  0.17700  1.0000
  H   H2        1.0  0.19800  0.87000  0.19000  1.0000
  H   H3        1.0  0.30200  0.37000  0.31000  1.0000
  H   H4        1.0  0.67700  0.85900  0.32300  1.0000
  H   H5        1.0  0.32300  0.14100  0.67700  1.0000
  H   H6        1.0  0.69800  0.63000  0.69000  1.0000
  H   H7        1.0  0.80200  0.13000  0.81000  1.0000
  H   H8        1.0  0.17700  0.64100  0.82300  1.0000
  O   O1        1.0  0.87600  0.59100  0.01380  1.0000
  O   O2        1.0  0.15700  0.04540  0.03050  1.0000
  O   O3        1.0  0.43400  0.37600  0.05500  1.0000
  O   O4        1.0  0.32400  0.67000  0.06880  1.0000
  O   O5        1.0  0.55700  0.84600  0.08670  1.0000
  O   O6        1.0  0.61500  0.15600  0.09480  1.0000
  O   O7        1.0  0.92300  0.13100  0.15700  1.0000
  O   O8        1.0  0.07770  0.57400  0.17200  1.0000
  O   O9        1.0  0.85500  0.77100  0.18200  1.0000
  O   O10       1.0  0.18700  0.25800  0.18400  1.0000
  O   O11       1.0  0.80200  0.47200  0.20100  1.0000
  O   O12       1.0  0.15200  0.96600  0.22700  1.0000
  O   O13       1.0  0.34800  0.46600  0.27300  1.0000
  O   O14       1.0  0.69800  0.97200  0.29900  1.0000
  O   O15       1.0  0.31300  0.75800  0.31600  1.0000
  O   O16       1.0  0.64500  0.27100  0.31800  1.0000
  O   O17       1.0  0.42200  0.07360  0.32800  1.0000
  O   O18       1.0  0.57700  0.63100  0.34300  1.0000
  O   O19       1.0  0.88500  0.65600  0.40500  1.0000
  O   O20       1.0  0.94300  0.34600  0.41300  1.0000
  O   O21       1.0  0.17600  0.17000  0.43100  1.0000
  O   O22       1.0  0.06620  0.87600  0.44500  1.0000
  O   O23       1.0  0.34300  0.54500  0.46900  1.0000
  O   O24       1.0  0.62400  0.09090  0.48600  1.0000
  O   O25       1.0  0.37600  0.90900  0.51400  1.0000
  O   O26       1.0  0.65700  0.45500  0.53100  1.0000
  O   O27       1.0  0.93400  0.12400  0.55500  1.0000
  O   O28       1.0  0.82400  0.83000  0.56900  1.0000
  O   O29       1.0  0.05660  0.65400  0.58700  1.0000
  O   O30       1.0  0.11500  0.34400  0.59500  1.0000
  O   O31       1.0  0.42300  0.36900  0.65700  1.0000
  O   O32       1.0  0.57800  0.92600  0.67200  1.0000
  O   O33       1.0  0.35500  0.72900  0.68200  1.0000
  O   O34       1.0  0.68700  0.24200  0.68400  1.0000
  O   O35       1.0  0.30200  0.02750  0.70100  1.0000
  O   O36       1.0  0.65200  0.53400  0.72700  1.0000
  O   O37       1.0  0.84800  0.03410  0.77300  1.0000
  O   O38       1.0  0.19800  0.52800  0.79900  1.0000
  O   O39       1.0  0.81300  0.74200  0.81600  1.0000
  O   O40       1.0  0.14500  0.22900  0.81800  1.0000
  O   O41       1.0  0.92200  0.42600  0.82800  1.0000
  O   O42       1.0  0.07710  0.86900  0.84300  1.0000
  O   O43       1.0  0.38500  0.84400  0.90500  1.0000
  O   O44       1.0  0.44300  0.15400  0.91300  1.0000
  O   O45       1.0  0.67600  0.33000  0.93100  1.0000
  O   O46       1.0  0.56600  0.62400  0.94500  1.0000
  O   O47       1.0  0.84300  0.95500  0.96900  1.0000
  O   O48       1.0  0.12400  0.40900  0.98600  1.0000
  P   P1        1.0  0.45700  0.75300  0.00316  1.0000
  P   P2        1.0  0.90600  0.60900  0.13800  1.0000
  P   P3        1.0  0.10000  0.10900  0.14000  1.0000
  P   P4        1.0  0.40000  0.60900  0.36000  1.0000
  P   P5        1.0  0.59400  0.10900  0.36200  1.0000
  P   P6        1.0  0.04300  0.25300  0.49700  1.0000
  P   P7        1.0  0.95700  0.74700  0.50300  1.0000
  P   P8        1.0  0.40600  0.89100  0.63800  1.0000
  P   P9        1.0  0.60000  0.39100  0.64000  1.0000
  P   P10       1.0  0.90000  0.89100  0.86000  1.0000
  P   P11       1.0  0.09420  0.39100  0.86200  1.0000
  P   P12       1.0  0.54300  0.24700  0.99700  1.0000
  V   V1        1.0  0.25400  0.45800  0.11300  1.0000
  V   V2        1.0  0.74900  0.96900  0.12200  1.0000
  V   V3        1.0  0.75100  0.46900  0.37800  1.0000
  V   V4        1.0  0.24600  0.95800  0.38700  1.0000
  V   V5        1.0  0.75400  0.04210  0.61300  1.0000
  V   V6        1.0  0.24900  0.53100  0.62200  1.0000
  V   V7        1.0  0.25100  0.03110  0.87800  1.0000
  V   V8        1.0  0.74600  0.54200  0.88700  1.0000
