data_image0
_chemical_formula_structural       Ba2O6Te2
_chemical_formula_sum              "Ba2 O6 Te2"
_cell_length_a       4.59626
_cell_length_b       5.94216
_cell_length_c       7.26274
_cell_angle_alpha    90
_cell_angle_beta     111.292
_cell_angle_gamma    90

_space_group_name_H-M_alt    "P 1"
_space_group_IT_number       1

loop_
  _space_group_symop_operation_xyz
  'x, y, z'

loop_
  _atom_site_type_symbol
  _atom_site_label
  _atom_site_symmetry_multiplicity
  _atom_site_fract_x
  _atom_site_fract_y
  _atom_site_fract_z
  _atom_site_occupancy
  Ba  Ba1       1.0  0.85100  0.75000  0.18900  1.0000
  Ba  Ba2       1.0  0.14900  0.25000  0.81100  1.0000
  O   O1        1.0  0.35100  0.01080  0.17300  1.0000
  O   O2        1.0  0.35100  0.48900  0.17300  1.0000
  O   O3        1.0  0.03800  0.25000  0.39100  1.0000
  O   O4        1.0  0.96200  0.75000  0.60900  1.0000
  O   O5        1.0  0.64900  0.51100  0.82700  1.0000
  O   O6        1.0  0.64900  0.98900  0.82700  1.0000
  Te  Te1       1.0  0.42700  0.25000  0.35500  1.0000
  Te  Te2       1.0  0.57300  0.75000  0.64500  1.0000
