data_image0
_chemical_formula_structural       CCuO3
_chemical_formula_sum              "C1 Cu1 O3"
_cell_length_a       3.34484
_cell_length_b       3.9295
_cell_length_c       3.9295
_cell_angle_alpha    72.9503
_cell_angle_beta     93.5404
_cell_angle_gamma    93.5404

_space_group_name_H-M_alt    "P 1"
_space_group_IT_number       1

loop_
  _space_group_symop_operation_xyz
  'x, y, z'

loop_
  _atom_site_type_symbol
  _atom_site_label
  _atom_site_symmetry_multiplicity
  _atom_site_fract_x
  _atom_site_fract_y
  _atom_site_fract_z
  _atom_site_occupancy
  C   C1        1.0  0.10700  0.98700  0.98700  1.0000
  Cu  Cu1       1.0  0.45400  0.53900  0.53900  1.0000
  O   O1        1.0  0.98200  0.81500  0.30100  1.0000
  O   O2        1.0  0.98200  0.30100  0.81500  1.0000
  O   O3        1.0  0.39000  0.86800  0.86800  1.0000
