data_image0
_chemical_formula_structural       Bi2Na2O6
_chemical_formula_sum              "Bi2 Na2 O6"
_cell_length_a       5.59143
_cell_length_b       5.59144
_cell_length_c       6.15444
_cell_angle_alpha    117.017
_cell_angle_beta     117.017
_cell_angle_gamma    60

_space_group_name_H-M_alt    "P 1"
_space_group_IT_number       1

loop_
  _space_group_symop_operation_xyz
  'x, y, z'

loop_
  _atom_site_type_symbol
  _atom_site_label
  _atom_site_symmetry_multiplicity
  _atom_site_fract_x
  _atom_site_fract_y
  _atom_site_fract_z
  _atom_site_occupancy
  Bi  Bi1       1.0  0.15500  0.15500  0.46600  1.0000
  Bi  Bi2       1.0  0.84500  0.84500  0.53400  1.0000
  Na  Na1       1.0  0.36100  0.36100  0.08410  1.0000
  Na  Na2       1.0  0.63900  0.63900  0.91600  1.0000
  O   O1        1.0  0.44200  0.79000  0.27100  1.0000
  O   O2        1.0  0.03810  0.44200  0.27100  1.0000
  O   O3        1.0  0.79000  0.03810  0.27100  1.0000
  O   O4        1.0  0.21000  0.96200  0.72900  1.0000
  O   O5        1.0  0.96200  0.55800  0.72900  1.0000
  O   O6        1.0  0.55800  0.21000  0.72900  1.0000
