data_image0
_chemical_formula_structural       Au3K2
_chemical_formula_sum              "Au3 K2"
_cell_length_a       4.96918
_cell_length_b       5.58765
_cell_length_c       6.31121
_cell_angle_alpha    116.275
_cell_angle_beta     113.184
_cell_angle_gamma    90

_space_group_name_H-M_alt    "P 1"
_space_group_IT_number       1

loop_
  _space_group_symop_operation_xyz
  'x, y, z'

loop_
  _atom_site_type_symbol
  _atom_site_label
  _atom_site_symmetry_multiplicity
  _atom_site_fract_x
  _atom_site_fract_y
  _atom_site_fract_z
  _atom_site_occupancy
  Au  Au1       1.0  0.00000  0.00000  0.00000  1.0000
  Au  Au2       1.0  0.50000  0.25400  0.00000  1.0000
  Au  Au3       1.0  0.50000  0.74600  0.00000  1.0000
  K   K1        1.0  0.19600  0.69600  0.39200  1.0000
  K   K2        1.0  0.80400  0.30400  0.60800  1.0000
