data_image0
_chemical_formula_structural       Te2Ti4
_chemical_formula_sum              "Te2 Ti4"
_cell_length_a       5.40852
_cell_length_b       5.40839
_cell_length_c       4.48594
_cell_angle_alpha    90
_cell_angle_beta     90
_cell_angle_gamma    60.0025

_space_group_name_H-M_alt    "P 1"
_space_group_IT_number       1

loop_
  _space_group_symop_operation_xyz
  'x, y, z'

loop_
  _atom_site_type_symbol
  _atom_site_label
  _atom_site_symmetry_multiplicity
  _atom_site_fract_x
  _atom_site_fract_y
  _atom_site_fract_z
  _atom_site_occupancy
  Te  Te1       1.0  0.00000  0.00000  0.00000  1.0000
  Te  Te2       1.0  0.33300  0.33300  0.00000  1.0000
  Ti  Ti1       1.0  0.66700  0.66700  0.00000  1.0000
  Ti  Ti2       1.0  0.98200  0.35100  0.50000  1.0000
  Ti  Ti3       1.0  0.35100  0.66700  0.50000  1.0000
  Ti  Ti4       1.0  0.66700  0.98200  0.50000  1.0000
