data_image0
_chemical_formula_structural       GaSe8V4
_chemical_formula_sum              "Ga1 Se8 V4"
_cell_length_a       7.18086
_cell_length_b       7.18125
_cell_length_c       7.18224
_cell_angle_alpha    119.998
_cell_angle_beta     90.0049
_cell_angle_gamma    119.992

_space_group_name_H-M_alt    "P 1"
_space_group_IT_number       1

loop_
  _space_group_symop_operation_xyz
  'x, y, z'

loop_
  _atom_site_type_symbol
  _atom_site_label
  _atom_site_symmetry_multiplicity
  _atom_site_fract_x
  _atom_site_fract_y
  _atom_site_fract_z
  _atom_site_occupancy
  Ga  Ga1       1.0  0.00003  0.00005  0.00004  1.0000
  Se  Se1       1.0  0.10600  0.73800  0.36900  1.0000
  Se  Se2       1.0  0.63100  0.73800  0.36900  1.0000
  Se  Se3       1.0  0.63100  0.26200  0.36900  1.0000
  Se  Se4       1.0  0.13800  0.27600  0.41500  1.0000
  Se  Se5       1.0  0.13800  0.72400  0.86200  1.0000
  Se  Se6       1.0  0.13800  0.27600  0.86200  1.0000
  Se  Se7       1.0  0.58500  0.72400  0.86200  1.0000
  Se  Se8       1.0  0.63100  0.26200  0.89400  1.0000
  V   V1        1.0  0.39800  0.79600  0.19400  1.0000
  V   V2        1.0  0.39800  0.20400  0.60200  1.0000
  V   V3        1.0  0.80600  0.20400  0.60200  1.0000
  V   V4        1.0  0.39800  0.79600  0.60200  1.0000
