data_image0
_chemical_formula_structural       PbPm3
_chemical_formula_sum              "Pb1 Pm3"
_cell_length_a       6.18441
_cell_length_b       6.18441
_cell_length_c       6.18441
_cell_angle_alpha    134.051
_cell_angle_beta     134.051
_cell_angle_gamma    67.0082

_space_group_name_H-M_alt    "P 1"
_space_group_IT_number       1

loop_
  _space_group_symop_operation_xyz
  'x, y, z'

loop_
  _atom_site_type_symbol
  _atom_site_label
  _atom_site_symmetry_multiplicity
  _atom_site_fract_x
  _atom_site_fract_y
  _atom_site_fract_z
  _atom_site_occupancy
  Pb  Pb1       1.0  0.00000  0.00000  0.00000  1.0000
  Pm  Pm1       1.0  0.75000  0.25000  0.50000  1.0000
  Pm  Pm2       1.0  0.25000  0.75000  0.50000  1.0000
  Pm  Pm3       1.0  0.50000  0.50000  0.00000  1.0000
