data_image0
_chemical_formula_structural       GdMgZn
_chemical_formula_sum              "Gd1 Mg1 Zn1"
_cell_length_a       3.40589
_cell_length_b       3.40589
_cell_length_c       7.19754
_cell_angle_alpha    90
_cell_angle_beta     90
_cell_angle_gamma    120

_space_group_name_H-M_alt    "P 1"
_space_group_IT_number       1

loop_
  _space_group_symop_operation_xyz
  'x, y, z'

loop_
  _atom_site_type_symbol
  _atom_site_label
  _atom_site_symmetry_multiplicity
  _atom_site_fract_x
  _atom_site_fract_y
  _atom_site_fract_z
  _atom_site_occupancy
  Gd  Gd1       1.0  0.33300  0.66700  0.96800  1.0000
  Mg  Mg1       1.0  0.00000  0.00000  0.58000  1.0000
  Zn  Zn1       1.0  0.66700  0.33300  0.29200  1.0000
