data_image0
_chemical_formula_structural       Cu2O6V2
_chemical_formula_sum              "Cu2 O6 V2"
_cell_length_a       4.94756
_cell_length_b       4.94756
_cell_length_c       5.48562
_cell_angle_alpha    63.1949
_cell_angle_beta     116.805
_cell_angle_gamma    120

_space_group_name_H-M_alt    "P 1"
_space_group_IT_number       1

loop_
  _space_group_symop_operation_xyz
  'x, y, z'

loop_
  _atom_site_type_symbol
  _atom_site_label
  _atom_site_symmetry_multiplicity
  _atom_site_fract_x
  _atom_site_fract_y
  _atom_site_fract_z
  _atom_site_occupancy
  Cu  Cu1       1.0  0.14100  0.85900  0.42200  1.0000
  Cu  Cu2       1.0  0.85900  0.14100  0.57800  1.0000
  O   O1        1.0  0.06820  0.28500  0.23000  1.0000
  O   O2        1.0  0.71500  0.55300  0.23000  1.0000
  O   O3        1.0  0.44700  0.93200  0.23000  1.0000
  O   O4        1.0  0.55300  0.06820  0.77000  1.0000
  O   O5        1.0  0.28500  0.44700  0.77000  1.0000
  O   O6        1.0  0.93200  0.71500  0.77000  1.0000
  V   V1        1.0  0.35200  0.64800  0.05700  1.0000
  V   V2        1.0  0.64800  0.35200  0.94300  1.0000
