data_image0
_chemical_formula_structural       Cu2HoS2
_chemical_formula_sum              "Cu2 Ho1 S2"
_cell_length_a       3.8505
_cell_length_b       3.8505
_cell_length_c       6.43995
_cell_angle_alpha    89.9992
_cell_angle_beta     90.0008
_cell_angle_gamma    119.998

_space_group_name_H-M_alt    "P 1"
_space_group_IT_number       1

loop_
  _space_group_symop_operation_xyz
  'x, y, z'

loop_
  _atom_site_type_symbol
  _atom_site_label
  _atom_site_symmetry_multiplicity
  _atom_site_fract_x
  _atom_site_fract_y
  _atom_site_fract_z
  _atom_site_occupancy
  Cu  Cu1       1.0  0.33300  0.66700  0.36400  1.0000
  Cu  Cu2       1.0  0.66700  0.33300  0.63600  1.0000
  Ho  Ho1       1.0  0.00000  0.00000  0.00000  1.0000
  S   S1        1.0  0.66700  0.33300  0.26100  1.0000
  S   S2        1.0  0.33300  0.66700  0.73900  1.0000
