data_image0
_chemical_formula_structural       Al2Zr2
_chemical_formula_sum              "Al2 Zr2"
_cell_length_a       3.36357
_cell_length_b       4.28661
_cell_length_c       5.72055
_cell_angle_alpha    90
_cell_angle_beta     72.903
_cell_angle_gamma    90

_space_group_name_H-M_alt    "P 1"
_space_group_IT_number       1

loop_
  _space_group_symop_operation_xyz
  'x, y, z'

loop_
  _atom_site_type_symbol
  _atom_site_label
  _atom_site_symmetry_multiplicity
  _atom_site_fract_x
  _atom_site_fract_y
  _atom_site_fract_z
  _atom_site_occupancy
  Al  Al1       1.0  0.42900  0.75000  0.14100  1.0000
  Al  Al2       1.0  0.57100  0.25000  0.85900  1.0000
  Zr  Zr1       1.0  0.84000  0.25000  0.32100  1.0000
  Zr  Zr2       1.0  0.16000  0.75000  0.67900  1.0000
