data_image0
_chemical_formula_structural       Ir2Na2O6
_chemical_formula_sum              "Ir2 Na2 O6"
_cell_length_a       3.07695
_cell_length_b       5.29484
_cell_length_c       7.1654
_cell_angle_alpha    90
_cell_angle_beta     90
_cell_angle_gamma    73.1084

_space_group_name_H-M_alt    "P 1"
_space_group_IT_number       1

loop_
  _space_group_symop_operation_xyz
  'x, y, z'

loop_
  _atom_site_type_symbol
  _atom_site_label
  _atom_site_symmetry_multiplicity
  _atom_site_fract_x
  _atom_site_fract_y
  _atom_site_fract_z
  _atom_site_occupancy
  Ir  Ir1       1.0  0.00000  0.00000  0.00000  1.0000
  Ir  Ir2       1.0  0.00000  0.00000  0.50000  1.0000
  Na  Na1       1.0  0.74800  0.50300  0.25000  1.0000
  Na  Na2       1.0  0.25200  0.49700  0.75000  1.0000
  O   O1        1.0  0.38300  0.23300  0.05940  1.0000
  O   O2        1.0  0.07550  0.84900  0.25000  1.0000
  O   O3        1.0  0.38300  0.23300  0.44100  1.0000
  O   O4        1.0  0.61700  0.76700  0.55900  1.0000
  O   O5        1.0  0.92400  0.15100  0.75000  1.0000
  O   O6        1.0  0.61700  0.76700  0.94100  1.0000
