data_image0
_chemical_formula_structural       Ge2Mn2Yb
_chemical_formula_sum              "Ge2 Mn2 Yb1"
_cell_length_a       3.9674
_cell_length_b       3.9674
_cell_length_c       6.12523
_cell_angle_alpha    108.896
_cell_angle_beta     108.896
_cell_angle_gamma    90

_space_group_name_H-M_alt    "P 1"
_space_group_IT_number       1

loop_
  _space_group_symop_operation_xyz
  'x, y, z'

loop_
  _atom_site_type_symbol
  _atom_site_label
  _atom_site_symmetry_multiplicity
  _atom_site_fract_x
  _atom_site_fract_y
  _atom_site_fract_z
  _atom_site_occupancy
  Ge  Ge1       1.0  0.62100  0.62100  0.24200  1.0000
  Ge  Ge2       1.0  0.37900  0.37900  0.75800  1.0000
  Mn  Mn1       1.0  0.75000  0.25000  0.50000  1.0000
  Mn  Mn2       1.0  0.25000  0.75000  0.50000  1.0000
  Yb  Yb1       1.0  0.00000  0.00000  0.00000  1.0000
