data_image0
_chemical_formula_structural       In4Zr8
_chemical_formula_sum              "In4 Zr8"
_cell_length_a       16.5456
_cell_length_b       3.33675
_cell_length_c       5.34893
_cell_angle_alpha    90
_cell_angle_beta     90
_cell_angle_gamma    90

_space_group_name_H-M_alt    "P 1"
_space_group_IT_number       1

loop_
  _space_group_symop_operation_xyz
  'x, y, z'

loop_
  _atom_site_type_symbol
  _atom_site_label
  _atom_site_symmetry_multiplicity
  _atom_site_fract_x
  _atom_site_fract_y
  _atom_site_fract_z
  _atom_site_occupancy
  In  In1       1.0  0.32700  0.00000  0.00000  1.0000
  In  In2       1.0  0.82700  0.50000  0.00000  1.0000
  In  In3       1.0  0.11800  0.00000  0.50000  1.0000
  In  In4       1.0  0.61800  0.50000  0.50000  1.0000
  Zr  Zr1       1.0  0.65700  0.00000  0.00000  1.0000
  Zr  Zr2       1.0  0.99000  0.00000  0.00000  1.0000
  Zr  Zr3       1.0  0.15700  0.50000  0.00000  1.0000
  Zr  Zr4       1.0  0.49000  0.50000  0.00000  1.0000
  Zr  Zr5       1.0  0.45400  0.00000  0.50000  1.0000
  Zr  Zr6       1.0  0.78700  0.00000  0.50000  1.0000
  Zr  Zr7       1.0  0.28700  0.50000  0.50000  1.0000
  Zr  Zr8       1.0  0.95400  0.50000  0.50000  1.0000
