data_image0
_chemical_formula_structural       Ni2Zr4
_chemical_formula_sum              "Ni2 Zr4"
_cell_length_a       5.21692
_cell_length_b       5.28052
_cell_length_c       5.28052
_cell_angle_alpha    104.124
_cell_angle_beta     60.3976
_cell_angle_gamma    119.602

_space_group_name_H-M_alt    "P 1"
_space_group_IT_number       1

loop_
  _space_group_symop_operation_xyz
  'x, y, z'

loop_
  _atom_site_type_symbol
  _atom_site_label
  _atom_site_symmetry_multiplicity
  _atom_site_fract_x
  _atom_site_fract_y
  _atom_site_fract_z
  _atom_site_occupancy
  Ni  Ni1       1.0  0.25000  0.00000  0.00000  1.0000
  Ni  Ni2       1.0  0.75000  0.00000  0.00000  1.0000
  Zr  Zr1       1.0  0.16300  0.50000  0.17400  1.0000
  Zr  Zr2       1.0  0.33700  0.17400  0.50000  1.0000
  Zr  Zr3       1.0  0.66300  0.82600  0.50000  1.0000
  Zr  Zr4       1.0  0.83700  0.50000  0.82600  1.0000
