data_image0
_chemical_formula_structural       Pt2Zr4
_chemical_formula_sum              "Pt2 Zr4"
_cell_length_a       5.23022
_cell_length_b       5.23021
_cell_length_c       4.95867
_cell_angle_alpha    90
_cell_angle_beta     90
_cell_angle_gamma    60.0018

_space_group_name_H-M_alt    "P 1"
_space_group_IT_number       1

loop_
  _space_group_symop_operation_xyz
  'x, y, z'

loop_
  _atom_site_type_symbol
  _atom_site_label
  _atom_site_symmetry_multiplicity
  _atom_site_fract_x
  _atom_site_fract_y
  _atom_site_fract_z
  _atom_site_occupancy
  Pt  Pt1       1.0  0.00000  0.00000  0.00000  1.0000
  Pt  Pt2       1.0  0.33300  0.33300  0.00000  1.0000
  Zr  Zr1       1.0  0.66700  0.66700  0.00000  1.0000
  Zr  Zr2       1.0  0.66700  0.02570  0.50000  1.0000
  Zr  Zr3       1.0  0.02570  0.30800  0.50000  1.0000
  Zr  Zr4       1.0  0.30800  0.66700  0.50000  1.0000
