data_image0
_chemical_formula_structural       AlNi2Tb2
_chemical_formula_sum              "Al1 Ni2 Tb2"
_cell_length_a       4.20117
_cell_length_b       5.40012
_cell_length_c       5.40012
_cell_angle_alpha    101.233
_cell_angle_beta     112.892
_cell_angle_gamma    112.892

_space_group_name_H-M_alt    "P 1"
_space_group_IT_number       1

loop_
  _space_group_symop_operation_xyz
  'x, y, z'

loop_
  _atom_site_type_symbol
  _atom_site_label
  _atom_site_symmetry_multiplicity
  _atom_site_fract_x
  _atom_site_fract_y
  _atom_site_fract_z
  _atom_site_occupancy
  Al  Al1       1.0  0.00000  0.00000  0.00000  1.0000
  Ni  Ni1       1.0  0.76600  0.26600  0.26600  1.0000
  Ni  Ni2       1.0  0.23400  0.73400  0.73400  1.0000
  Tb  Tb1       1.0  0.50000  0.70300  0.29700  1.0000
  Tb  Tb2       1.0  0.50000  0.29700  0.70300  1.0000
