data_image0
_chemical_formula_structural       Rh2Zr4
_chemical_formula_sum              "Rh2 Zr4"
_cell_length_a       5.39759
_cell_length_b       5.39759
_cell_length_c       5.39759
_cell_angle_alpha    105.663
_cell_angle_beta     117.39
_cell_angle_gamma    105.663

_space_group_name_H-M_alt    "P 1"
_space_group_IT_number       1

loop_
  _space_group_symop_operation_xyz
  'x, y, z'

loop_
  _atom_site_type_symbol
  _atom_site_label
  _atom_site_symmetry_multiplicity
  _atom_site_fract_x
  _atom_site_fract_y
  _atom_site_fract_z
  _atom_site_occupancy
  Rh  Rh1       1.0  0.25000  0.00000  0.25000  1.0000
  Rh  Rh2       1.0  0.75000  0.00000  0.75000  1.0000
  Zr  Zr1       1.0  0.66300  0.82700  0.16300  1.0000
  Zr  Zr2       1.0  0.16300  0.50000  0.33700  1.0000
  Zr  Zr3       1.0  0.83700  0.50000  0.66300  1.0000
  Zr  Zr4       1.0  0.33700  0.17300  0.83700  1.0000
