data_image0
_chemical_formula_structural       Si2Zr2
_chemical_formula_sum              "Si2 Zr2"
_cell_length_a       3.76945
_cell_length_b       3.77521
_cell_length_c       5.32704
_cell_angle_alpha    69.2467
_cell_angle_beta     90
_cell_angle_gamma    90

_space_group_name_H-M_alt    "P 1"
_space_group_IT_number       1

loop_
  _space_group_symop_operation_xyz
  'x, y, z'

loop_
  _atom_site_type_symbol
  _atom_site_label
  _atom_site_symmetry_multiplicity
  _atom_site_fract_x
  _atom_site_fract_y
  _atom_site_fract_z
  _atom_site_occupancy
  Si  Si1       1.0  0.75000  0.42200  0.15700  1.0000
  Si  Si2       1.0  0.25000  0.57800  0.84300  1.0000
  Zr  Zr1       1.0  0.25000  0.85500  0.29000  1.0000
  Zr  Zr2       1.0  0.75000  0.14500  0.71000  1.0000
