data_image0
_chemical_formula_structural       AlLu2Ni2
_chemical_formula_sum              "Al1 Lu2 Ni2"
_cell_length_a       4.12039
_cell_length_b       5.31387
_cell_length_c       5.27688
_cell_angle_alpha    120.232
_cell_angle_beta     112.981
_cell_angle_gamma    90

_space_group_name_H-M_alt    "P 1"
_space_group_IT_number       1

loop_
  _space_group_symop_operation_xyz
  'x, y, z'

loop_
  _atom_site_type_symbol
  _atom_site_label
  _atom_site_symmetry_multiplicity
  _atom_site_fract_x
  _atom_site_fract_y
  _atom_site_fract_z
  _atom_site_occupancy
  Al  Al1       1.0  0.00000  0.00000  0.00000  1.0000
  Lu  Lu1       1.0  0.20300  0.70300  0.40600  1.0000
  Lu  Lu2       1.0  0.79700  0.29700  0.59400  1.0000
  Ni  Ni1       1.0  0.50000  0.26900  0.00000  1.0000
  Ni  Ni2       1.0  0.50000  0.73100  0.00000  1.0000
