data_image0
_chemical_formula_structural       Fe2LuSi2
_chemical_formula_sum              "Fe2 Lu1 Si2"
_cell_length_a       3.90358
_cell_length_b       3.90358
_cell_length_c       5.47427
_cell_angle_alpha    110.888
_cell_angle_beta     110.888
_cell_angle_gamma    90

_space_group_name_H-M_alt    "P 1"
_space_group_IT_number       1

loop_
  _space_group_symop_operation_xyz
  'x, y, z'

loop_
  _atom_site_type_symbol
  _atom_site_label
  _atom_site_symmetry_multiplicity
  _atom_site_fract_x
  _atom_site_fract_y
  _atom_site_fract_z
  _atom_site_occupancy
  Fe  Fe1       1.0  0.75000  0.25000  0.50000  1.0000
  Fe  Fe2       1.0  0.25000  0.75000  0.50000  1.0000
  Lu  Lu1       1.0  0.00000  0.00000  0.00000  1.0000
  Si  Si1       1.0  0.63100  0.63100  0.26100  1.0000
  Si  Si2       1.0  0.36900  0.36900  0.73900  1.0000
