data_image0
_chemical_formula_structural       W8Zr16
_chemical_formula_sum              "W8 Zr16"
_cell_length_a       14.1324
_cell_length_b       7.47694
_cell_length_c       4.82478
_cell_angle_alpha    90
_cell_angle_beta     90
_cell_angle_gamma    72.7609

_space_group_name_H-M_alt    "P 1"
_space_group_IT_number       1

loop_
  _space_group_symop_operation_xyz
  'x, y, z'

loop_
  _atom_site_type_symbol
  _atom_site_label
  _atom_site_symmetry_multiplicity
  _atom_site_fract_x
  _atom_site_fract_y
  _atom_site_fract_z
  _atom_site_occupancy
  W   W1        1.0  0.75400  0.17100  0.00000  1.0000
  W   W2        1.0  0.32400  0.29300  0.00000  1.0000
  W   W3        1.0  0.83000  0.80100  0.00000  1.0000
  W   W4        1.0  0.98000  0.94800  0.00000  1.0000
  W   W5        1.0  0.87000  0.06760  0.50000  1.0000
  W   W6        1.0  0.44100  0.19000  0.50000  1.0000
  W   W7        1.0  0.21400  0.41300  0.50000  1.0000
  W   W8        1.0  0.36500  0.56000  0.50000  1.0000
  Zr  Zr1       1.0  0.57700  0.04840  0.00000  1.0000
  Zr  Zr2       1.0  0.15900  0.11500  0.00000  1.0000
  Zr  Zr3       1.0  0.90600  0.35900  0.00000  1.0000
  Zr  Zr4       1.0  0.48100  0.46200  0.00000  1.0000
  Zr  Zr5       1.0  0.08050  0.54100  0.00000  1.0000
  Zr  Zr6       1.0  0.66900  0.60300  0.00000  1.0000
  Zr  Zr7       1.0  0.25200  0.68300  0.00000  1.0000
  Zr  Zr8       1.0  0.40200  0.91000  0.00000  1.0000
  Zr  Zr9       1.0  0.28800  0.00208  0.50000  1.0000
  Zr  Zr10      1.0  0.03520  0.24600  0.50000  1.0000
  Zr  Zr11      1.0  0.61800  0.31300  0.50000  1.0000
  Zr  Zr12      1.0  0.79200  0.45200  0.50000  1.0000
  Zr  Zr13      1.0  0.94200  0.67800  0.50000  1.0000
  Zr  Zr14      1.0  0.52500  0.75800  0.50000  1.0000
  Zr  Zr15      1.0  0.11400  0.81900  0.50000  1.0000
  Zr  Zr16      1.0  0.71400  0.90000  0.50000  1.0000
