data_image0
_chemical_formula_structural       O24Tl16
_chemical_formula_sum              "O24 Tl16"
_cell_length_a       9.1076
_cell_length_b       9.1076
_cell_length_c       9.1076
_cell_angle_alpha    109.471
_cell_angle_beta     109.471
_cell_angle_gamma    109.471

_space_group_name_H-M_alt    "P 1"
_space_group_IT_number       1

loop_
  _space_group_symop_operation_xyz
  'x, y, z'

loop_
  _atom_site_type_symbol
  _atom_site_label
  _atom_site_symmetry_multiplicity
  _atom_site_fract_x
  _atom_site_fract_y
  _atom_site_fract_z
  _atom_site_occupancy
  O   O1        1.0  0.77300  0.54500  0.53600  1.0000
  O   O2        1.0  0.50900  0.23700  0.96400  1.0000
  O   O3        1.0  0.72700  0.26300  0.77200  1.0000
  O   O4        1.0  0.99100  0.95500  0.72800  1.0000
  O   O5        1.0  0.53600  0.77300  0.54500  1.0000
  O   O6        1.0  0.54500  0.53600  0.77300  1.0000
  O   O7        1.0  0.72800  0.99100  0.95500  1.0000
  O   O8        1.0  0.23700  0.96400  0.50900  1.0000
  O   O9        1.0  0.96400  0.50900  0.23700  1.0000
  O   O10       1.0  0.26300  0.77200  0.72700  1.0000
  O   O11       1.0  0.77200  0.72700  0.26300  1.0000
  O   O12       1.0  0.95500  0.72800  0.99100  1.0000
  O   O13       1.0  0.45500  0.46500  0.22800  1.0000
  O   O14       1.0  0.73600  0.22600  0.27200  1.0000
  O   O15       1.0  0.04540  0.27400  0.00998  1.0000
  O   O16       1.0  0.76400  0.03540  0.49000  1.0000
  O   O17       1.0  0.22800  0.45500  0.46500  1.0000
  O   O18       1.0  0.46500  0.22800  0.45500  1.0000
  O   O19       1.0  0.49000  0.76400  0.03540  1.0000
  O   O20       1.0  0.22600  0.27200  0.73600  1.0000
  O   O21       1.0  0.27200  0.73600  0.22600  1.0000
  O   O22       1.0  0.27400  0.00998  0.04540  1.0000
  O   O23       1.0  0.00998  0.04540  0.27400  1.0000
  O   O24       1.0  0.03540  0.49000  0.76400  1.0000
  Tl  Tl1       1.0  0.25000  0.71500  0.46500  1.0000
  Tl  Tl2       1.0  0.75000  0.78500  0.03470  1.0000
  Tl  Tl3       1.0  0.46500  0.25000  0.71500  1.0000
  Tl  Tl4       1.0  0.71500  0.46500  0.25000  1.0000
  Tl  Tl5       1.0  0.03470  0.75000  0.78500  1.0000
  Tl  Tl6       1.0  0.78500  0.03470  0.75000  1.0000
  Tl  Tl7       1.0  0.25000  0.21700  0.96700  1.0000
  Tl  Tl8       1.0  0.75000  0.28300  0.53300  1.0000
  Tl  Tl9       1.0  0.96700  0.25000  0.21700  1.0000
  Tl  Tl10      1.0  0.21700  0.96700  0.25000  1.0000
  Tl  Tl11      1.0  0.53300  0.75000  0.28300  1.0000
  Tl  Tl12      1.0  0.28300  0.53300  0.75000  1.0000
  Tl  Tl13      1.0  0.50200  0.50200  0.50200  1.0000
  Tl  Tl14      1.0  0.50000  0.00000  0.99800  1.0000
  Tl  Tl15      1.0  0.99800  0.50000  0.00000  1.0000
  Tl  Tl16      1.0  0.00000  0.99800  0.50000  1.0000
