data_image0
_chemical_formula_structural       AlNi2Tm2
_chemical_formula_sum              "Al1 Ni2 Tm2"
_cell_length_a       4.10812
_cell_length_b       5.49513
_cell_length_c       5.33023
_cell_angle_alpha    121.029
_cell_angle_beta     112.666
_cell_angle_gamma    90

_space_group_name_H-M_alt    "P 1"
_space_group_IT_number       1

loop_
  _space_group_symop_operation_xyz
  'x, y, z'

loop_
  _atom_site_type_symbol
  _atom_site_label
  _atom_site_symmetry_multiplicity
  _atom_site_fract_x
  _atom_site_fract_y
  _atom_site_fract_z
  _atom_site_occupancy
  Al  Al1       1.0  0.00000  0.00000  0.00000  1.0000
  Ni  Ni1       1.0  0.50000  0.27700  0.00000  1.0000
  Ni  Ni2       1.0  0.50000  0.72300  0.00000  1.0000
  Tm  Tm1       1.0  0.20600  0.70600  0.41200  1.0000
  Tm  Tm2       1.0  0.79400  0.29400  0.58800  1.0000
