data_image0
_chemical_formula_structural       F6Ga2
_chemical_formula_sum              "F6 Ga2"
_cell_length_a       5.10903
_cell_length_b       5.10903
_cell_length_c       5.10903
_cell_angle_alpha    55.1772
_cell_angle_beta     55.1772
_cell_angle_gamma    55.1772

_space_group_name_H-M_alt    "P 1"
_space_group_IT_number       1

loop_
  _space_group_symop_operation_xyz
  'x, y, z'

loop_
  _atom_site_type_symbol
  _atom_site_label
  _atom_site_symmetry_multiplicity
  _atom_site_fract_x
  _atom_site_fract_y
  _atom_site_fract_z
  _atom_site_occupancy
  F   F1        1.0  0.40700  0.75000  0.09270  1.0000
  F   F2        1.0  0.90700  0.59300  0.25000  1.0000
  F   F3        1.0  0.75000  0.09270  0.40700  1.0000
  F   F4        1.0  0.25000  0.90700  0.59300  1.0000
  F   F5        1.0  0.09270  0.40700  0.75000  1.0000
  F   F6        1.0  0.59300  0.25000  0.90700  1.0000
  Ga  Ga1       1.0  0.00000  0.00000  0.00000  1.0000
  Ga  Ga2       1.0  0.50000  0.50000  0.50000  1.0000
