data_image0
_chemical_formula_structural       Ag4Lu
_chemical_formula_sum              "Ag4 Lu1"
_cell_length_a       4.15969
_cell_length_b       5.17419
_cell_length_c       5.17419
_cell_angle_alpha    99.2984
_cell_angle_beta     66.2989
_cell_angle_gamma    113.701

_space_group_name_H-M_alt    "P 1"
_space_group_IT_number       1

loop_
  _space_group_symop_operation_xyz
  'x, y, z'

loop_
  _atom_site_type_symbol
  _atom_site_label
  _atom_site_symmetry_multiplicity
  _atom_site_fract_x
  _atom_site_fract_y
  _atom_site_fract_z
  _atom_site_occupancy
  Ag  Ag1       1.0  0.59900  0.40100  0.20300  1.0000
  Ag  Ag2       1.0  0.19800  0.79700  0.40100  1.0000
  Ag  Ag3       1.0  0.80200  0.20300  0.59900  1.0000
  Ag  Ag4       1.0  0.40100  0.59900  0.79700  1.0000
  Lu  Lu1       1.0  0.00000  0.00000  0.00000  1.0000
