data_image0
_chemical_formula_structural       Ba2Zn4
_chemical_formula_sum              "Ba2 Zn4"
_cell_length_a       5.01719
_cell_length_b       6.15111
_cell_length_c       6.15111
_cell_angle_alpha    101.474
_cell_angle_beta     114.069
_cell_angle_gamma    65.9315

_space_group_name_H-M_alt    "P 1"
_space_group_IT_number       1

loop_
  _space_group_symop_operation_xyz
  'x, y, z'

loop_
  _atom_site_type_symbol
  _atom_site_label
  _atom_site_symmetry_multiplicity
  _atom_site_fract_x
  _atom_site_fract_y
  _atom_site_fract_z
  _atom_site_occupancy
  Ba  Ba1       1.0  0.75000  0.69100  0.19100  1.0000
  Ba  Ba2       1.0  0.25000  0.30900  0.80900  1.0000
  Zn  Zn1       1.0  0.07770  0.08210  0.23800  1.0000
  Zn  Zn2       1.0  0.57800  0.26200  0.41800  1.0000
  Zn  Zn3       1.0  0.42200  0.73800  0.58200  1.0000
  Zn  Zn4       1.0  0.92200  0.91800  0.76200  1.0000
