data_image0
_chemical_formula_structural       As2I6
_chemical_formula_sum              "As2 I6"
_cell_length_a       7.31973
_cell_length_b       7.31973
_cell_length_c       8.3566
_cell_angle_alpha    64.0261
_cell_angle_beta     115.974
_cell_angle_gamma    120

_space_group_name_H-M_alt    "P 1"
_space_group_IT_number       1

loop_
  _space_group_symop_operation_xyz
  'x, y, z'

loop_
  _atom_site_type_symbol
  _atom_site_label
  _atom_site_symmetry_multiplicity
  _atom_site_fract_x
  _atom_site_fract_y
  _atom_site_fract_z
  _atom_site_occupancy
  As  As1       1.0  0.82300  0.17700  0.47000  1.0000
  As  As2       1.0  0.17700  0.82300  0.53000  1.0000
  I   I1        1.0  0.77400  0.93800  0.26300  1.0000
  I   I2        1.0  0.42800  0.22600  0.26300  1.0000
  I   I3        1.0  0.06210  0.57200  0.26300  1.0000
  I   I4        1.0  0.93800  0.42800  0.73700  1.0000
  I   I5        1.0  0.57200  0.77400  0.73700  1.0000
  I   I6        1.0  0.22600  0.06210  0.73700  1.0000
