data_image0
_chemical_formula_structural       Li2P2Pr
_chemical_formula_sum              "Li2 P2 Pr1"
_cell_length_a       4.16602
_cell_length_b       4.16592
_cell_length_c       6.81207
_cell_angle_alpha    90
_cell_angle_beta     89.9982
_cell_angle_gamma    119.999

_space_group_name_H-M_alt    "P 1"
_space_group_IT_number       1

loop_
  _space_group_symop_operation_xyz
  'x, y, z'

loop_
  _atom_site_type_symbol
  _atom_site_label
  _atom_site_symmetry_multiplicity
  _atom_site_fract_x
  _atom_site_fract_y
  _atom_site_fract_z
  _atom_site_occupancy
  Li  Li1       1.0  0.66700  0.33300  0.37800  1.0000
  Li  Li2       1.0  0.33300  0.66700  0.62200  1.0000
  P   P1        1.0  0.33300  0.66700  0.24700  1.0000
  P   P2        1.0  0.66700  0.33300  0.75300  1.0000
  Pr  Pr1       1.0  0.00000  0.00000  0.00000  1.0000
