data_image0
_chemical_formula_structural       La2Zn4
_chemical_formula_sum              "La2 Zn4"
_cell_length_a       4.66609
_cell_length_b       5.83367
_cell_length_c       5.83367
_cell_angle_alpha    99.5136
_cell_angle_beta     66.4264
_cell_angle_gamma    113.574

_space_group_name_H-M_alt    "P 1"
_space_group_IT_number       1

loop_
  _space_group_symop_operation_xyz
  'x, y, z'

loop_
  _atom_site_type_symbol
  _atom_site_label
  _atom_site_symmetry_multiplicity
  _atom_site_fract_x
  _atom_site_fract_y
  _atom_site_fract_z
  _atom_site_occupancy
  La  La1       1.0  0.46000  0.21000  0.29000  1.0000
  La  La2       1.0  0.54000  0.79000  0.71000  1.0000
  Zn  Zn1       1.0  0.83500  0.77600  0.10600  1.0000
  Zn  Zn2       1.0  0.16500  0.60600  0.27600  1.0000
  Zn  Zn3       1.0  0.83500  0.39400  0.72400  1.0000
  Zn  Zn4       1.0  0.16500  0.22400  0.89400  1.0000
