data_image0
_chemical_formula_structural       F6Sn2
_chemical_formula_sum              "F6 Sn2"
_cell_length_a       5.96011
_cell_length_b       5.96011
_cell_length_c       5.96011
_cell_angle_alpha    120
_cell_angle_beta     90
_cell_angle_gamma    120

_space_group_name_H-M_alt    "P 1"
_space_group_IT_number       1

loop_
  _space_group_symop_operation_xyz
  'x, y, z'

loop_
  _atom_site_type_symbol
  _atom_site_label
  _atom_site_symmetry_multiplicity
  _atom_site_fract_x
  _atom_site_fract_y
  _atom_site_fract_z
  _atom_site_occupancy
  F   F1        1.0  0.26600  0.00000  0.26600  1.0000
  F   F2        1.0  0.73400  0.00000  0.26600  1.0000
  F   F3        1.0  0.26600  0.53200  0.26600  1.0000
  F   F4        1.0  0.26600  0.00000  0.73400  1.0000
  F   F5        1.0  0.73400  0.00000  0.73400  1.0000
  F   F6        1.0  0.73400  0.46800  0.73400  1.0000
  Sn  Sn1       1.0  0.00000  0.00000  0.00000  1.0000
  Sn  Sn2       1.0  0.50000  0.00000  0.50000  1.0000
