data_image0
_chemical_formula_structural       Nd2Zn4
_chemical_formula_sum              "Nd2 Zn4"
_cell_length_a       4.60095
_cell_length_b       5.76153
_cell_length_c       5.76153
_cell_angle_alpha    98.5074
_cell_angle_beta     113.533
_cell_angle_gamma    66.4667

_space_group_name_H-M_alt    "P 1"
_space_group_IT_number       1

loop_
  _space_group_symop_operation_xyz
  'x, y, z'

loop_
  _atom_site_type_symbol
  _atom_site_label
  _atom_site_symmetry_multiplicity
  _atom_site_fract_x
  _atom_site_fract_y
  _atom_site_fract_z
  _atom_site_occupancy
  Nd  Nd1       1.0  0.75000  0.71000  0.21000  1.0000
  Nd  Nd2       1.0  0.25000  0.29000  0.79000  1.0000
  Zn  Zn1       1.0  0.05620  0.10900  0.22100  1.0000
  Zn  Zn2       1.0  0.55600  0.27900  0.39100  1.0000
  Zn  Zn3       1.0  0.44400  0.72100  0.60900  1.0000
  Zn  Zn4       1.0  0.94400  0.89100  0.77900  1.0000
