data_image0
_chemical_formula_structural       Ni8Zn16
_chemical_formula_sum              "Ni8 Zn16"
_cell_length_a       11.4263
_cell_length_b       6.92259
_cell_length_c       4.26497
_cell_angle_alpha    90
_cell_angle_beta     90
_cell_angle_gamma    64.1957

_space_group_name_H-M_alt    "P 1"
_space_group_IT_number       1

loop_
  _space_group_symop_operation_xyz
  'x, y, z'

loop_
  _atom_site_type_symbol
  _atom_site_label
  _atom_site_symmetry_multiplicity
  _atom_site_fract_x
  _atom_site_fract_y
  _atom_site_fract_z
  _atom_site_occupancy
  Ni  Ni1       1.0  0.75200  0.23800  0.00000  1.0000
  Ni  Ni2       1.0  0.33100  0.33800  0.00000  1.0000
  Ni  Ni3       1.0  0.83500  0.83300  0.00000  1.0000
  Ni  Ni4       1.0  0.99800  0.00000  0.00000  1.0000
  Ni  Ni5       1.0  0.86300  0.02320  0.50000  1.0000
  Ni  Ni6       1.0  0.44300  0.12300  0.50000  1.0000
  Ni  Ni7       1.0  0.19700  0.36100  0.50000  1.0000
  Ni  Ni8       1.0  0.36000  0.52800  0.50000  1.0000
  Zn  Zn1       1.0  0.58400  0.08620  0.00000  1.0000
  Zn  Zn2       1.0  0.16700  0.17600  0.00000  1.0000
  Zn  Zn3       1.0  0.91400  0.40900  0.00000  1.0000
  Zn  Zn4       1.0  0.49400  0.49800  0.00000  1.0000
  Zn  Zn5       1.0  0.08370  0.58500  0.00000  1.0000
  Zn  Zn6       1.0  0.67100  0.65800  0.00000  1.0000
  Zn  Zn7       1.0  0.25100  0.74100  0.00000  1.0000
  Zn  Zn8       1.0  0.41700  0.94000  0.00000  1.0000
  Zn  Zn9       1.0  0.02750  0.18500  0.50000  1.0000
  Zn  Zn10      1.0  0.61000  0.27500  0.50000  1.0000
  Zn  Zn11      1.0  0.77800  0.42100  0.50000  1.0000
  Zn  Zn12      1.0  0.94300  0.62000  0.50000  1.0000
  Zn  Zn13      1.0  0.52300  0.70300  0.50000  1.0000
  Zn  Zn14      1.0  0.11100  0.77600  0.50000  1.0000
  Zn  Zn15      1.0  0.70000  0.86400  0.50000  1.0000
  Zn  Zn16      1.0  0.28100  0.95200  0.50000  1.0000
