data_image0
_chemical_formula_structural       BaCO3
_chemical_formula_sum              "Ba1 C1 O3"
_cell_length_a       4.32181
_cell_length_b       4.32181
_cell_length_c       4.32181
_cell_angle_alpha    103.874
_cell_angle_beta     76.1257
_cell_angle_gamma    103.874

_space_group_name_H-M_alt    "P 1"
_space_group_IT_number       1

loop_
  _space_group_symop_operation_xyz
  'x, y, z'

loop_
  _atom_site_type_symbol
  _atom_site_label
  _atom_site_symmetry_multiplicity
  _atom_site_fract_x
  _atom_site_fract_y
  _atom_site_fract_z
  _atom_site_occupancy
  Ba  Ba1       1.0  0.02430  0.97600  0.02430  1.0000
  C   C1        1.0  0.46800  0.53200  0.46800  1.0000
  O   O1        1.0  0.60600  0.39400  0.18400  1.0000
  O   O2        1.0  0.18400  0.39400  0.60600  1.0000
  O   O3        1.0  0.60600  0.81600  0.60600  1.0000
