data_image0
_chemical_formula_structural       HgO2Rb2
_chemical_formula_sum              "Hg1 O2 Rb2"
_cell_length_a       4.11232
_cell_length_b       4.11232
_cell_length_c       7.74272
_cell_angle_alpha    105.4
_cell_angle_beta     105.4
_cell_angle_gamma    90

_space_group_name_H-M_alt    "P 1"
_space_group_IT_number       1

loop_
  _space_group_symop_operation_xyz
  'x, y, z'

loop_
  _atom_site_type_symbol
  _atom_site_label
  _atom_site_symmetry_multiplicity
  _atom_site_fract_x
  _atom_site_fract_y
  _atom_site_fract_z
  _atom_site_occupancy
  Hg  Hg1       1.0  0.00000  0.00000  0.00000  1.0000
  O   O1        1.0  0.13900  0.13900  0.27800  1.0000
  O   O2        1.0  0.86100  0.86100  0.72200  1.0000
  Rb  Rb1       1.0  0.66700  0.66700  0.33400  1.0000
  Rb  Rb2       1.0  0.33300  0.33300  0.66600  1.0000
