data_image0
_chemical_formula_structural       F6In2
_chemical_formula_sum              "F6 In2"
_cell_length_a       5.85501
_cell_length_b       5.85502
_cell_length_c       5.85502
_cell_angle_alpha    48.4339
_cell_angle_beta     48.4338
_cell_angle_gamma    48.4339

_space_group_name_H-M_alt    "P 1"
_space_group_IT_number       1

loop_
  _space_group_symop_operation_xyz
  'x, y, z'

loop_
  _atom_site_type_symbol
  _atom_site_label
  _atom_site_symmetry_multiplicity
  _atom_site_fract_x
  _atom_site_fract_y
  _atom_site_fract_z
  _atom_site_occupancy
  F   F1        1.0  0.42900  0.75000  0.07120  1.0000
  F   F2        1.0  0.92900  0.57100  0.25000  1.0000
  F   F3        1.0  0.75000  0.07120  0.42900  1.0000
  F   F4        1.0  0.25000  0.92900  0.57100  1.0000
  F   F5        1.0  0.07120  0.42900  0.75000  1.0000
  F   F6        1.0  0.57100  0.25000  0.92900  1.0000
  In  In1       1.0  0.00000  0.00000  0.00000  1.0000
  In  In2       1.0  0.50000  0.50000  0.50000  1.0000
