data_image0
_chemical_formula_structural       BrKO3
_chemical_formula_sum              "Br1 K1 O3"
_cell_length_a       4.3403
_cell_length_b       4.3403
_cell_length_c       4.3403
_cell_angle_alpha    86.018
_cell_angle_beta     86.018
_cell_angle_gamma    86.018

_space_group_name_H-M_alt    "P 1"
_space_group_IT_number       1

loop_
  _space_group_symop_operation_xyz
  'x, y, z'

loop_
  _atom_site_type_symbol
  _atom_site_label
  _atom_site_symmetry_multiplicity
  _atom_site_fract_x
  _atom_site_fract_y
  _atom_site_fract_z
  _atom_site_occupancy
  Br  Br1       1.0  0.50500  0.50500  0.50500  1.0000
  K   K1        1.0  0.02640  0.02640  0.02640  1.0000
  O   O1        1.0  0.56800  0.56800  0.11800  1.0000
  O   O2        1.0  0.56800  0.11800  0.56800  1.0000
  O   O3        1.0  0.11800  0.56800  0.56800  1.0000
