data_image0
_chemical_formula_structural       Nb7Ni6
_chemical_formula_sum              "Nb7 Ni6"
_cell_length_a       4.92596
_cell_length_b       4.92596
_cell_length_c       9.42861
_cell_angle_alpha    74.8573
_cell_angle_beta     90
_cell_angle_gamma    120

_space_group_name_H-M_alt    "P 1"
_space_group_IT_number       1

loop_
  _space_group_symop_operation_xyz
  'x, y, z'

loop_
  _atom_site_type_symbol
  _atom_site_label
  _atom_site_symmetry_multiplicity
  _atom_site_fract_x
  _atom_site_fract_y
  _atom_site_fract_z
  _atom_site_occupancy
  Nb  Nb1       1.0  0.00000  0.00000  0.00000  1.0000
  Nb  Nb2       1.0  0.65300  0.30600  0.04070  1.0000
  Nb  Nb3       1.0  0.54900  0.09730  0.35400  1.0000
  Nb  Nb4       1.0  0.83600  0.67200  0.49300  1.0000
  Nb  Nb5       1.0  0.16400  0.32800  0.50700  1.0000
  Nb  Nb6       1.0  0.45100  0.90300  0.64600  1.0000
  Nb  Nb7       1.0  0.34700  0.69400  0.95900  1.0000
  Ni  Ni1       1.0  0.09090  0.18200  0.23600  1.0000
  Ni  Ni2       1.0  0.58300  0.67300  0.23600  1.0000
  Ni  Ni3       1.0  0.09090  0.67300  0.23600  1.0000
  Ni  Ni4       1.0  0.90900  0.32700  0.76400  1.0000
  Ni  Ni5       1.0  0.41700  0.32700  0.76400  1.0000
  Ni  Ni6       1.0  0.90900  0.81800  0.76400  1.0000
