data_image0
_chemical_formula_structural       MgNd5
_chemical_formula_sum              "Mg1 Nd5"
_cell_length_a       6.32041
_cell_length_b       6.32041
_cell_length_c       6.82018
_cell_angle_alpha    117.604
_cell_angle_beta     62.3958
_cell_angle_gamma    120

_space_group_name_H-M_alt    "P 1"
_space_group_IT_number       1

loop_
  _space_group_symop_operation_xyz
  'x, y, z'

loop_
  _atom_site_type_symbol
  _atom_site_label
  _atom_site_symmetry_multiplicity
  _atom_site_fract_x
  _atom_site_fract_y
  _atom_site_fract_z
  _atom_site_occupancy
  Mg  Mg1       1.0  0.83300  0.50000  0.50000  1.0000
  Nd  Nd1       1.0  0.98400  0.00000  0.00000  1.0000
  Nd  Nd2       1.0  0.68300  0.34900  0.00000  1.0000
  Nd  Nd3       1.0  0.33300  0.65100  0.00000  1.0000
  Nd  Nd4       1.0  0.16700  0.16600  0.49900  1.0000
  Nd  Nd5       1.0  0.50000  0.83400  0.50100  1.0000
