data_image0
_chemical_formula_structural       Ca2F8H4
_chemical_formula_sum              "Ca2 F8 H4"
_cell_length_a       5.51231
_cell_length_b       5.66539
_cell_length_c       5.71006
_cell_angle_alpha    103.581
_cell_angle_beta     118.861
_cell_angle_gamma    60.8898

_space_group_name_H-M_alt    "P 1"
_space_group_IT_number       1

loop_
  _space_group_symop_operation_xyz
  'x, y, z'

loop_
  _atom_site_type_symbol
  _atom_site_label
  _atom_site_symmetry_multiplicity
  _atom_site_fract_x
  _atom_site_fract_y
  _atom_site_fract_z
  _atom_site_occupancy
  Ca  Ca1       1.0  0.87500  0.25000  0.25000  1.0000
  Ca  Ca2       1.0  0.12500  0.75000  0.75000  1.0000
  F   F1        1.0  0.34700  0.39300  0.01640  1.0000
  F   F2        1.0  0.16900  0.10700  0.01640  1.0000
  F   F3        1.0  0.72400  0.10700  0.48400  1.0000
  F   F4        1.0  0.26000  0.39300  0.48400  1.0000
  F   F5        1.0  0.74000  0.60700  0.51600  1.0000
  F   F6        1.0  0.27600  0.89300  0.51600  1.0000
  F   F7        1.0  0.83100  0.89300  0.98400  1.0000
  F   F8        1.0  0.65300  0.60700  0.98400  1.0000
  H   H1        1.0  0.25600  0.25000  0.01210  1.0000
  H   H2        1.0  0.49400  0.25000  0.48800  1.0000
  H   H3        1.0  0.50600  0.75000  0.51200  1.0000
  H   H4        1.0  0.74400  0.75000  0.98800  1.0000
