data_image0
_chemical_formula_structural       Np8Zn16
_chemical_formula_sum              "Np8 Zn16"
_cell_length_a       12.0742
_cell_length_b       8.46316
_cell_length_c       4.49152
_cell_angle_alpha    90
_cell_angle_beta     90
_cell_angle_gamma    67.8804

_space_group_name_H-M_alt    "P 1"
_space_group_IT_number       1

loop_
  _space_group_symop_operation_xyz
  'x, y, z'

loop_
  _atom_site_type_symbol
  _atom_site_label
  _atom_site_symmetry_multiplicity
  _atom_site_fract_x
  _atom_site_fract_y
  _atom_site_fract_z
  _atom_site_occupancy
  Np  Np1       1.0  0.00423  0.00435  0.00000  1.0000
  Np  Np2       1.0  0.80500  0.21800  0.00000  1.0000
  Np  Np3       1.0  0.40500  0.28200  0.00000  1.0000
  Np  Np4       1.0  0.89300  0.81200  0.00000  1.0000
  Np  Np5       1.0  0.79000  0.07890  0.50000  1.0000
  Np  Np6       1.0  0.39000  0.14300  0.50000  1.0000
  Np  Np7       1.0  0.19100  0.35700  0.50000  1.0000
  Np  Np8       1.0  0.30100  0.54900  0.50000  1.0000
  Zn  Zn1       1.0  0.63900  0.01660  0.00000  1.0000
  Zn  Zn2       1.0  0.22200  0.11200  0.00000  1.0000
  Zn  Zn3       1.0  0.00158  0.39700  0.00000  1.0000
  Zn  Zn4       1.0  0.53000  0.53600  0.00000  1.0000
  Zn  Zn5       1.0  0.14300  0.59800  0.00000  1.0000
  Zn  Zn6       1.0  0.72800  0.62000  0.00000  1.0000
  Zn  Zn7       1.0  0.30000  0.78200  0.00000  1.0000
  Zn  Zn8       1.0  0.48400  0.88600  0.00000  1.0000
  Zn  Zn9       1.0  0.97300  0.24800  0.50000  1.0000
  Zn  Zn10      1.0  0.55500  0.34500  0.50000  1.0000
  Zn  Zn11      1.0  0.71000  0.47500  0.50000  1.0000
  Zn  Zn12      1.0  0.89500  0.57900  0.50000  1.0000
  Zn  Zn13      1.0  0.46700  0.74100  0.50000  1.0000
  Zn  Zn14      1.0  0.05070  0.76300  0.50000  1.0000
  Zn  Zn15      1.0  0.66500  0.82500  0.50000  1.0000
  Zn  Zn16      1.0  0.19300  0.96300  0.50000  1.0000
