data_image0
_chemical_formula_structural       Ru2Zn4
_chemical_formula_sum              "Ru2 Zn4"
_cell_length_a       4.74599
_cell_length_b       4.74599
_cell_length_c       4.31644
_cell_angle_alpha    90
_cell_angle_beta     90
_cell_angle_gamma    60.0001

_space_group_name_H-M_alt    "P 1"
_space_group_IT_number       1

loop_
  _space_group_symop_operation_xyz
  'x, y, z'

loop_
  _atom_site_type_symbol
  _atom_site_label
  _atom_site_symmetry_multiplicity
  _atom_site_fract_x
  _atom_site_fract_y
  _atom_site_fract_z
  _atom_site_occupancy
  Ru  Ru1       1.0  0.00000  0.00000  0.00000  1.0000
  Ru  Ru2       1.0  0.33300  0.33300  0.00000  1.0000
  Zn  Zn1       1.0  0.66700  0.66700  0.00000  1.0000
  Zn  Zn2       1.0  0.66700  0.02020  0.50000  1.0000
  Zn  Zn3       1.0  0.02020  0.31300  0.50000  1.0000
  Zn  Zn4       1.0  0.31300  0.66700  0.50000  1.0000
