data_image0
_chemical_formula_structural       Sr2Zn4
_chemical_formula_sum              "Sr2 Zn4"
_cell_length_a       4.76364
_cell_length_b       5.98712
_cell_length_c       5.98712
_cell_angle_alpha    98.8835
_cell_angle_beta     113.442
_cell_angle_gamma    66.5578

_space_group_name_H-M_alt    "P 1"
_space_group_IT_number       1

loop_
  _space_group_symop_operation_xyz
  'x, y, z'

loop_
  _atom_site_type_symbol
  _atom_site_label
  _atom_site_symmetry_multiplicity
  _atom_site_fract_x
  _atom_site_fract_y
  _atom_site_fract_z
  _atom_site_occupancy
  Sr  Sr1       1.0  0.25000  0.70000  0.20000  1.0000
  Sr  Sr2       1.0  0.75000  0.30000  0.80000  1.0000
  Zn  Zn1       1.0  0.56300  0.10100  0.22800  1.0000
  Zn  Zn2       1.0  0.06350  0.27200  0.39900  1.0000
  Zn  Zn3       1.0  0.93700  0.72800  0.60100  1.0000
  Zn  Zn4       1.0  0.43700  0.89900  0.77200  1.0000
