data_image0
_chemical_formula_structural       Eu2Hg2Sn2
_chemical_formula_sum              "Eu2 Hg2 Sn2"
_cell_length_a       4.90967
_cell_length_b       4.90957
_cell_length_c       7.83809
_cell_angle_alpha    90
_cell_angle_beta     90
_cell_angle_gamma    120.001

_space_group_name_H-M_alt    "P 1"
_space_group_IT_number       1

loop_
  _space_group_symop_operation_xyz
  'x, y, z'

loop_
  _atom_site_type_symbol
  _atom_site_label
  _atom_site_symmetry_multiplicity
  _atom_site_fract_x
  _atom_site_fract_y
  _atom_site_fract_z
  _atom_site_occupancy
  Eu  Eu1       1.0  0.00000  0.00000  0.25000  1.0000
  Eu  Eu2       1.0  0.00000  0.00000  0.75000  1.0000
  Hg  Hg1       1.0  0.33300  0.66700  0.05690  1.0000
  Hg  Hg2       1.0  0.66700  0.33300  0.55700  1.0000
  Sn  Sn1       1.0  0.33300  0.66700  0.46300  1.0000
  Sn  Sn2       1.0  0.66700  0.33300  0.96300  1.0000
