data_image0
_chemical_formula_structural       Br2O2Sc2
_chemical_formula_sum              "Br2 O2 Sc2"
_cell_length_a       3.55976
_cell_length_b       3.96049
_cell_length_c       8.72688
_cell_angle_alpha    90
_cell_angle_beta     90
_cell_angle_gamma    90

_space_group_name_H-M_alt    "P 1"
_space_group_IT_number       1

loop_
  _space_group_symop_operation_xyz
  'x, y, z'

loop_
  _atom_site_type_symbol
  _atom_site_label
  _atom_site_symmetry_multiplicity
  _atom_site_fract_x
  _atom_site_fract_y
  _atom_site_fract_z
  _atom_site_occupancy
  Br  Br1       1.0  0.25000  0.25000  0.16700  1.0000
  Br  Br2       1.0  0.75000  0.75000  0.83300  1.0000
  O   O1        1.0  0.75000  0.75000  0.46800  1.0000
  O   O2        1.0  0.25000  0.25000  0.53200  1.0000
  Sc  Sc1       1.0  0.75000  0.25000  0.39400  1.0000
  Sc  Sc2       1.0  0.25000  0.75000  0.60600  1.0000
