data_image0
_chemical_formula_structural       Sm2Zn4
_chemical_formula_sum              "Sm2 Zn4"
_cell_length_a       4.55593
_cell_length_b       5.72119
_cell_length_c       5.72119
_cell_angle_alpha    97.4964
_cell_angle_beta     113.463
_cell_angle_gamma    66.5366

_space_group_name_H-M_alt    "P 1"
_space_group_IT_number       1

loop_
  _space_group_symop_operation_xyz
  'x, y, z'

loop_
  _atom_site_type_symbol
  _atom_site_label
  _atom_site_symmetry_multiplicity
  _atom_site_fract_x
  _atom_site_fract_y
  _atom_site_fract_z
  _atom_site_occupancy
  Sm  Sm1       1.0  0.75000  0.71400  0.21400  1.0000
  Sm  Sm2       1.0  0.25000  0.28600  0.78600  1.0000
  Zn  Zn1       1.0  0.05170  0.11400  0.21700  1.0000
  Zn  Zn2       1.0  0.55200  0.28300  0.38600  1.0000
  Zn  Zn3       1.0  0.44800  0.71700  0.61400  1.0000
  Zn  Zn4       1.0  0.94800  0.88600  0.78300  1.0000
