data_image0
_chemical_formula_structural       Mg3Pm
_chemical_formula_sum              "Mg3 Pm1"
_cell_length_a       4.09138
_cell_length_b       5.06047
_cell_length_c       5.05526
_cell_angle_alpha    90
_cell_angle_beta     90
_cell_angle_gamma    90

_space_group_name_H-M_alt    "P 1"
_space_group_IT_number       1

loop_
  _space_group_symop_operation_xyz
  'x, y, z'

loop_
  _atom_site_type_symbol
  _atom_site_label
  _atom_site_symmetry_multiplicity
  _atom_site_fract_x
  _atom_site_fract_y
  _atom_site_fract_z
  _atom_site_occupancy
  Mg  Mg1       1.0  0.00000  0.08220  0.00000  1.0000
  Mg  Mg2       1.0  0.50000  0.58300  0.00000  1.0000
  Mg  Mg3       1.0  0.50000  0.08470  0.50000  1.0000
  Pm  Pm1       1.0  0.00000  0.58400  0.50000  1.0000
