data_image0
_chemical_formula_structural       MgTe3
_chemical_formula_sum              "Mg1 Te3"
_cell_length_a       4.25627
_cell_length_b       6.68181
_cell_length_c       5.14275
_cell_angle_alpha    67.3667
_cell_angle_beta     90
_cell_angle_gamma    71.4279

_space_group_name_H-M_alt    "P 1"
_space_group_IT_number       1

loop_
  _space_group_symop_operation_xyz
  'x, y, z'

loop_
  _atom_site_type_symbol
  _atom_site_label
  _atom_site_symmetry_multiplicity
  _atom_site_fract_x
  _atom_site_fract_y
  _atom_site_fract_z
  _atom_site_occupancy
  Mg  Mg1       1.0  0.75000  0.50000  0.05980  1.0000
  Te  Te1       1.0  0.08300  0.83400  0.06180  1.0000
  Te  Te2       1.0  0.41700  0.16600  0.39600  1.0000
  Te  Te3       1.0  0.25000  0.50000  0.64900  1.0000
