data_image0
_chemical_formula_structural       Mg3Tm
_chemical_formula_sum              "Mg3 Tm1"
_cell_length_a       3.26584
_cell_length_b       6.34302
_cell_length_c       5.74083
_cell_angle_alpha    63.0939
_cell_angle_beta     90
_cell_angle_gamma    75.0821

_space_group_name_H-M_alt    "P 1"
_space_group_IT_number       1

loop_
  _space_group_symop_operation_xyz
  'x, y, z'

loop_
  _atom_site_type_symbol
  _atom_site_label
  _atom_site_symmetry_multiplicity
  _atom_site_fract_x
  _atom_site_fract_y
  _atom_site_fract_z
  _atom_site_occupancy
  Mg  Mg1       1.0  0.99600  0.00859  0.99500  1.0000
  Mg  Mg2       1.0  0.50400  0.99100  0.50400  1.0000
  Mg  Mg3       1.0  0.25000  0.50000  0.58100  1.0000
  Tm  Tm1       1.0  0.75000  0.50000  0.08750  1.0000
