data_image0
_chemical_formula_structural       Ce3Mg
_chemical_formula_sum              "Ce3 Mg1"
_cell_length_a       3.6841
_cell_length_b       3.6841
_cell_length_c       11.8064
_cell_angle_alpha    90
_cell_angle_beta     90
_cell_angle_gamma    120

_space_group_name_H-M_alt    "P 1"
_space_group_IT_number       1

loop_
  _space_group_symop_operation_xyz
  'x, y, z'

loop_
  _atom_site_type_symbol
  _atom_site_label
  _atom_site_symmetry_multiplicity
  _atom_site_fract_x
  _atom_site_fract_y
  _atom_site_fract_z
  _atom_site_occupancy
  Ce  Ce1       1.0  0.00000  0.00000  0.98600  1.0000
  Ce  Ce2       1.0  0.66700  0.33300  0.25000  1.0000
  Ce  Ce3       1.0  0.00000  0.00000  0.51400  1.0000
  Mg  Mg1       1.0  0.66700  0.33300  0.75000  1.0000
