data_image0
_chemical_formula_structural       Fe2Sn4
_chemical_formula_sum              "Fe2 Sn4"
_cell_length_a       5.31216
_cell_length_b       5.34088
_cell_length_c       5.34088
_cell_angle_alpha    104.319
_cell_angle_beta     60.1777
_cell_angle_gamma    119.822

_space_group_name_H-M_alt    "P 1"
_space_group_IT_number       1

loop_
  _space_group_symop_operation_xyz
  'x, y, z'

loop_
  _atom_site_type_symbol
  _atom_site_label
  _atom_site_symmetry_multiplicity
  _atom_site_fract_x
  _atom_site_fract_y
  _atom_site_fract_z
  _atom_site_occupancy
  Fe  Fe1       1.0  0.25000  0.00000  0.00000  1.0000
  Fe  Fe2       1.0  0.75000  0.00000  0.00000  1.0000
  Sn  Sn1       1.0  0.16200  0.50000  0.17600  1.0000
  Sn  Sn2       1.0  0.33800  0.17600  0.50000  1.0000
  Sn  Sn3       1.0  0.66200  0.82400  0.50000  1.0000
  Sn  Sn4       1.0  0.83800  0.50000  0.82400  1.0000
