data_image0
_chemical_formula_structural       B6Mg8
_chemical_formula_sum              "B6 Mg8"
_cell_length_a       8.7339
_cell_length_b       8.7339
_cell_length_c       3.20847
_cell_angle_alpha    90
_cell_angle_beta     90
_cell_angle_gamma    60.0002

_space_group_name_H-M_alt    "P 1"
_space_group_IT_number       1

loop_
  _space_group_symop_operation_xyz
  'x, y, z'

loop_
  _atom_site_type_symbol
  _atom_site_label
  _atom_site_symmetry_multiplicity
  _atom_site_fract_x
  _atom_site_fract_y
  _atom_site_fract_z
  _atom_site_occupancy
  B   B1        1.0  0.60100  0.50600  0.00000  1.0000
  B   B2        1.0  0.36300  0.60800  0.00000  1.0000
  B   B3        1.0  0.46500  0.74300  0.00000  1.0000
  B   B4        1.0  0.48700  0.49500  0.50000  1.0000
  B   B5        1.0  0.59000  0.63000  0.50000  1.0000
  B   B6        1.0  0.35200  0.73300  0.50000  1.0000
  Mg  Mg1       1.0  0.50400  0.27300  0.00000  1.0000
  Mg  Mg2       1.0  0.14300  0.28600  0.00000  1.0000
  Mg  Mg3       1.0  0.79400  0.64700  0.00000  1.0000
  Mg  Mg4       1.0  0.13000  0.93700  0.00000  1.0000
  Mg  Mg5       1.0  0.82200  0.30100  0.50000  1.0000
  Mg  Mg6       1.0  0.15800  0.59100  0.50000  1.0000
  Mg  Mg7       1.0  0.81000  0.95200  0.50000  1.0000
  Mg  Mg8       1.0  0.44800  0.96500  0.50000  1.0000
