data_image0
_chemical_formula_structural       Ac6Mg8
_chemical_formula_sum              "Ac6 Mg8"
_cell_length_a       9.71776
_cell_length_b       9.71752
_cell_length_c       5.7653
_cell_angle_alpha    90
_cell_angle_beta     90
_cell_angle_gamma    59.9883

_space_group_name_H-M_alt    "P 1"
_space_group_IT_number       1

loop_
  _space_group_symop_operation_xyz
  'x, y, z'

loop_
  _atom_site_type_symbol
  _atom_site_label
  _atom_site_symmetry_multiplicity
  _atom_site_fract_x
  _atom_site_fract_y
  _atom_site_fract_z
  _atom_site_occupancy
  Ac  Ac1       1.0  0.75100  0.42500  0.00000  1.0000
  Ac  Ac2       1.0  0.28200  0.53900  0.00000  1.0000
  Ac  Ac3       1.0  0.39600  0.89400  0.00000  1.0000
  Ac  Ac4       1.0  0.55600  0.34400  0.50000  1.0000
  Ac  Ac5       1.0  0.67100  0.69900  0.50000  1.0000
  Ac  Ac6       1.0  0.20200  0.81400  0.50000  1.0000
  Mg  Mg1       1.0  0.97200  0.00945  0.00000  1.0000
  Mg  Mg2       1.0  0.59000  0.11500  0.00000  1.0000
  Mg  Mg3       1.0  0.14300  0.28600  0.00000  1.0000
  Mg  Mg4       1.0  0.86700  0.73300  0.00000  1.0000
  Mg  Mg5       1.0  0.36200  0.12300  0.50000  1.0000
  Mg  Mg6       1.0  0.98100  0.22900  0.50000  1.0000
  Mg  Mg7       1.0  0.08570  0.50500  0.50000  1.0000
  Mg  Mg8       1.0  0.81000  0.95200  0.50000  1.0000
