data_image0
_chemical_formula_structural       W8Zn16
_chemical_formula_sum              "W8 Zn16"
_cell_length_a       11.3148
_cell_length_b       8.00726
_cell_length_c       4.33985
_cell_angle_alpha    90
_cell_angle_beta     90
_cell_angle_gamma    65.7535

_space_group_name_H-M_alt    "P 1"
_space_group_IT_number       1

loop_
  _space_group_symop_operation_xyz
  'x, y, z'

loop_
  _atom_site_type_symbol
  _atom_site_label
  _atom_site_symmetry_multiplicity
  _atom_site_fract_x
  _atom_site_fract_y
  _atom_site_fract_z
  _atom_site_occupancy
  W   W1        1.0  0.02430  0.00103  0.00000  1.0000
  W   W2        1.0  0.79400  0.23700  0.00000  1.0000
  W   W3        1.0  0.37500  0.32100  0.00000  1.0000
  W   W4        1.0  0.87800  0.82300  0.00000  1.0000
  W   W5        1.0  0.81900  0.03970  0.50000  1.0000
  W   W6        1.0  0.40100  0.12400  0.50000  1.0000
  W   W7        1.0  0.17000  0.36000  0.50000  1.0000
  W   W8        1.0  0.31600  0.53800  0.50000  1.0000
  Zn  Zn1       1.0  0.62700  0.07410  0.00000  1.0000
  Zn  Zn2       1.0  0.22500  0.12800  0.00000  1.0000
  Zn  Zn3       1.0  0.98700  0.39900  0.00000  1.0000
  Zn  Zn4       1.0  0.53100  0.51200  0.00000  1.0000
  Zn  Zn5       1.0  0.13500  0.59200  0.00000  1.0000
  Zn  Zn6       1.0  0.73600  0.61200  0.00000  1.0000
  Zn  Zn7       1.0  0.29600  0.76100  0.00000  1.0000
  Zn  Zn8       1.0  0.48700  0.89800  0.00000  1.0000
  Zn  Zn9       1.0  0.96900  0.23300  0.50000  1.0000
  Zn  Zn10      1.0  0.56800  0.28700  0.50000  1.0000
  Zn  Zn11      1.0  0.70700  0.46300  0.50000  1.0000
  Zn  Zn12      1.0  0.89800  0.60000  0.50000  1.0000
  Zn  Zn13      1.0  0.45900  0.75000  0.50000  1.0000
  Zn  Zn14      1.0  0.05960  0.76900  0.50000  1.0000
  Zn  Zn15      1.0  0.66400  0.84900  0.50000  1.0000
  Zn  Zn16      1.0  0.20800  0.96200  0.50000  1.0000
