data_image0
_chemical_formula_structural       Be6Mg8
_chemical_formula_sum              "Be6 Mg8"
_cell_length_a       8.04577
_cell_length_b       8.04579
_cell_length_c       4.12149
_cell_angle_alpha    90
_cell_angle_beta     90
_cell_angle_gamma    60

_space_group_name_H-M_alt    "P 1"
_space_group_IT_number       1

loop_
  _space_group_symop_operation_xyz
  'x, y, z'

loop_
  _atom_site_type_symbol
  _atom_site_label
  _atom_site_symmetry_multiplicity
  _atom_site_fract_x
  _atom_site_fract_y
  _atom_site_fract_z
  _atom_site_occupancy
  Be  Be1       1.0  0.18200  0.23700  0.00000  1.0000
  Be  Be2       1.0  0.29500  0.61100  0.00000  1.0000
  Be  Be3       1.0  0.80800  0.72400  0.00000  1.0000
  Be  Be4       1.0  0.34200  0.14400  0.50000  1.0000
  Be  Be5       1.0  0.71600  0.65700  0.50000  1.0000
  Be  Be6       1.0  0.22900  0.77000  0.50000  1.0000
  Mg  Mg1       1.0  0.49700  0.21700  0.00000  1.0000
  Mg  Mg2       1.0  0.78800  0.42900  0.00000  1.0000
  Mg  Mg3       1.0  0.42900  0.85700  0.00000  1.0000
  Mg  Mg4       1.0  1.00000  0.92600  0.00000  1.0000
  Mg  Mg5       1.0  0.02640  0.16400  0.50000  1.0000
  Mg  Mg6       1.0  0.52400  0.45500  0.50000  1.0000
  Mg  Mg7       1.0  0.09520  0.52400  0.50000  1.0000
  Mg  Mg8       1.0  0.73500  0.95200  0.50000  1.0000
