data_image0
_chemical_formula_structural       As6Mg8
_chemical_formula_sum              "As6 Mg8"
_cell_length_a       8.22812
_cell_length_b       8.22816
_cell_length_c       5.58128
_cell_angle_alpha    90
_cell_angle_beta     90
_cell_angle_gamma    60.0002

_space_group_name_H-M_alt    "P 1"
_space_group_IT_number       1

loop_
  _space_group_symop_operation_xyz
  'x, y, z'

loop_
  _atom_site_type_symbol
  _atom_site_label
  _atom_site_symmetry_multiplicity
  _atom_site_fract_x
  _atom_site_fract_y
  _atom_site_fract_z
  _atom_site_occupancy
  As  As1       1.0  0.83300  0.28100  0.00000  1.0000
  As  As2       1.0  0.13800  0.60100  0.00000  1.0000
  As  As3       1.0  0.45800  0.97600  0.00000  1.0000
  As  As4       1.0  0.49500  0.26200  0.50000  1.0000
  As  As5       1.0  0.81400  0.63700  0.50000  1.0000
  As  As6       1.0  0.12000  0.95700  0.50000  1.0000
  Mg  Mg1       1.0  0.14300  0.28600  0.00000  1.0000
  Mg  Mg2       1.0  0.50600  0.29400  0.00000  1.0000
  Mg  Mg3       1.0  0.77100  0.64900  0.00000  1.0000
  Mg  Mg4       1.0  0.15100  0.91400  0.00000  1.0000
  Mg  Mg5       1.0  0.80100  0.32400  0.50000  1.0000
  Mg  Mg6       1.0  0.18100  0.58900  0.50000  1.0000
  Mg  Mg7       1.0  0.44600  0.94400  0.50000  1.0000
  Mg  Mg8       1.0  0.81000  0.95200  0.50000  1.0000
