data_image0
_chemical_formula_structural       Ba6Mg8
_chemical_formula_sum              "Ba6 Mg8"
_cell_length_a       10.5777
_cell_length_b       10.5769
_cell_length_c       5.39049
_cell_angle_alpha    90
_cell_angle_beta     90
_cell_angle_gamma    60.0012

_space_group_name_H-M_alt    "P 1"
_space_group_IT_number       1

loop_
  _space_group_symop_operation_xyz
  'x, y, z'

loop_
  _atom_site_type_symbol
  _atom_site_label
  _atom_site_symmetry_multiplicity
  _atom_site_fract_x
  _atom_site_fract_y
  _atom_site_fract_z
  _atom_site_occupancy
  Ba  Ba1       1.0  0.32300  0.46500  0.00000  1.0000
  Ba  Ba2       1.0  0.78300  0.46600  0.00000  1.0000
  Ba  Ba3       1.0  0.32300  0.92500  0.00000  1.0000
  Ba  Ba4       1.0  0.63000  0.31300  0.50000  1.0000
  Ba  Ba5       1.0  0.17000  0.77200  0.50000  1.0000
  Ba  Ba6       1.0  0.62900  0.77300  0.50000  1.0000
  Mg  Mg1       1.0  0.60000  0.05660  0.00000  1.0000
  Mg  Mg2       1.0  0.91400  0.05740  0.00000  1.0000
  Mg  Mg3       1.0  0.14300  0.28600  0.00000  1.0000
  Mg  Mg4       1.0  0.91500  0.74300  0.00000  1.0000
  Mg  Mg5       1.0  0.03860  0.18100  0.50000  1.0000
  Mg  Mg6       1.0  0.35200  0.18100  0.50000  1.0000
  Mg  Mg7       1.0  0.03780  0.49500  0.50000  1.0000
  Mg  Mg8       1.0  0.81000  0.95200  0.50000  1.0000
