data_image0
_chemical_formula_structural       Al6Mg8
_chemical_formula_sum              "Al6 Mg8"
_cell_length_a       8.0436
_cell_length_b       8.04356
_cell_length_c       4.95405
_cell_angle_alpha    90
_cell_angle_beta     90
_cell_angle_gamma    59.9998

_space_group_name_H-M_alt    "P 1"
_space_group_IT_number       1

loop_
  _space_group_symop_operation_xyz
  'x, y, z'

loop_
  _atom_site_type_symbol
  _atom_site_label
  _atom_site_symmetry_multiplicity
  _atom_site_fract_x
  _atom_site_fract_y
  _atom_site_fract_z
  _atom_site_occupancy
  Al  Al1       1.0  0.14800  0.28800  0.00000  1.0000
  Al  Al2       1.0  0.27900  0.57700  0.00000  1.0000
  Al  Al3       1.0  0.85900  0.70700  0.00000  1.0000
  Al  Al4       1.0  0.37600  0.09340  0.50000  1.0000
  Al  Al5       1.0  0.66500  0.67400  0.50000  1.0000
  Al  Al6       1.0  0.24500  0.80400  0.50000  1.0000
  Mg  Mg1       1.0  0.55800  0.15300  0.00000  1.0000
  Mg  Mg2       1.0  0.72500  0.43100  0.00000  1.0000
  Mg  Mg3       1.0  0.42900  0.85700  0.00000  1.0000
  Mg  Mg4       1.0  0.00235  0.98700  0.00000  1.0000
  Mg  Mg5       1.0  0.96500  0.22700  0.50000  1.0000
  Mg  Mg6       1.0  0.52100  0.39400  0.50000  1.0000
  Mg  Mg7       1.0  0.09520  0.52400  0.50000  1.0000
  Mg  Mg8       1.0  0.79900  0.95000  0.50000  1.0000
