data_image0
_chemical_formula_structural       Au6Mg8
_chemical_formula_sum              "Au6 Mg8"
_cell_length_a       7.79127
_cell_length_b       7.79115
_cell_length_c       4.92632
_cell_angle_alpha    90
_cell_angle_beta     90
_cell_angle_gamma    60.0002

_space_group_name_H-M_alt    "P 1"
_space_group_IT_number       1

loop_
  _space_group_symop_operation_xyz
  'x, y, z'

loop_
  _atom_site_type_symbol
  _atom_site_label
  _atom_site_symmetry_multiplicity
  _atom_site_fract_x
  _atom_site_fract_y
  _atom_site_fract_z
  _atom_site_occupancy
  Au  Au1       1.0  0.74200  0.40600  0.00000  1.0000
  Au  Au2       1.0  0.26300  0.56600  0.00000  1.0000
  Au  Au3       1.0  0.42400  0.88500  0.00000  1.0000
  Au  Au4       1.0  0.52900  0.35300  0.50000  1.0000
  Au  Au5       1.0  0.68900  0.67200  0.50000  1.0000
  Au  Au6       1.0  0.21000  0.83200  0.50000  1.0000
  Mg  Mg1       1.0  0.56700  0.17200  0.00000  1.0000
  Mg  Mg2       1.0  0.14300  0.28600  0.00000  1.0000
  Mg  Mg3       1.0  0.83200  0.71000  0.00000  1.0000
  Mg  Mg4       1.0  0.02940  0.97500  0.00000  1.0000
  Mg  Mg5       1.0  0.38500  0.06590  0.50000  1.0000
  Mg  Mg6       1.0  0.92300  0.26300  0.50000  1.0000
  Mg  Mg7       1.0  0.12100  0.52800  0.50000  1.0000
  Mg  Mg8       1.0  0.81000  0.95200  0.50000  1.0000
