data_image0
_chemical_formula_structural       Ca6Mg8
_chemical_formula_sum              "Ca6 Mg8"
_cell_length_a       9.43804
_cell_length_b       9.43869
_cell_length_c       5.50962
_cell_angle_alpha    90
_cell_angle_beta     90
_cell_angle_gamma    60.0028

_space_group_name_H-M_alt    "P 1"
_space_group_IT_number       1

loop_
  _space_group_symop_operation_xyz
  'x, y, z'

loop_
  _atom_site_type_symbol
  _atom_site_label
  _atom_site_symmetry_multiplicity
  _atom_site_fract_x
  _atom_site_fract_y
  _atom_site_fract_z
  _atom_site_occupancy
  Ca  Ca1       1.0  0.12200  0.28200  0.00000  1.0000
  Ca  Ca2       1.0  0.31000  0.55100  0.00000  1.0000
  Ca  Ca3       1.0  0.85300  0.73800  0.00000  1.0000
  Ca  Ca4       1.0  0.40100  0.09910  0.50000  1.0000
  Ca  Ca5       1.0  0.67000  0.64200  0.50000  1.0000
  Ca  Ca6       1.0  0.21400  0.83000  0.50000  1.0000
  Mg  Mg1       1.0  0.98200  0.01580  0.00000  1.0000
  Mg  Mg2       1.0  0.58700  0.14500  0.00000  1.0000
  Mg  Mg3       1.0  0.71600  0.41100  0.00000  1.0000
  Mg  Mg4       1.0  0.42900  0.85700  0.00000  1.0000
  Mg  Mg5       1.0  0.93700  0.23600  0.50000  1.0000
  Mg  Mg6       1.0  0.54200  0.36500  0.50000  1.0000
  Mg  Mg7       1.0  0.09520  0.52400  0.50000  1.0000
  Mg  Mg8       1.0  0.80800  0.97000  0.50000  1.0000
