data_image0
_chemical_formula_structural       Ce6Mg8
_chemical_formula_sum              "Ce6 Mg8"
_cell_length_a       9.33138
_cell_length_b       9.33138
_cell_length_c       5.52612
_cell_angle_alpha    90
_cell_angle_beta     90
_cell_angle_gamma    59.9997

_space_group_name_H-M_alt    "P 1"
_space_group_IT_number       1

loop_
  _space_group_symop_operation_xyz
  'x, y, z'

loop_
  _atom_site_type_symbol
  _atom_site_label
  _atom_site_symmetry_multiplicity
  _atom_site_fract_x
  _atom_site_fract_y
  _atom_site_fract_z
  _atom_site_occupancy
  Ce  Ce1       1.0  0.74400  0.42700  0.00000  1.0000
  Ce  Ce2       1.0  0.28400  0.54300  0.00000  1.0000
  Ce  Ce3       1.0  0.40100  0.88700  0.00000  1.0000
  Ce  Ce4       1.0  0.55200  0.35200  0.50000  1.0000
  Ce  Ce5       1.0  0.66800  0.69500  0.50000  1.0000
  Ce  Ce6       1.0  0.20900  0.81100  0.50000  1.0000
  Mg  Mg1       1.0  0.97700  0.01040  0.00000  1.0000
  Mg  Mg2       1.0  0.58400  0.12000  0.00000  1.0000
  Mg  Mg3       1.0  0.14300  0.28600  0.00000  1.0000
  Mg  Mg4       1.0  0.86800  0.72600  0.00000  1.0000
  Mg  Mg5       1.0  0.36900  0.11800  0.50000  1.0000
  Mg  Mg6       1.0  0.97500  0.22800  0.50000  1.0000
  Mg  Mg7       1.0  0.08480  0.51200  0.50000  1.0000
  Mg  Mg8       1.0  0.81000  0.95200  0.50000  1.0000
