data_image0
_chemical_formula_structural       Bi6Mg8
_chemical_formula_sum              "Bi6 Mg8"
_cell_length_a       8.8318
_cell_length_b       8.8316
_cell_length_c       5.47927
_cell_angle_alpha    90
_cell_angle_beta     90
_cell_angle_gamma    60.0001

_space_group_name_H-M_alt    "P 1"
_space_group_IT_number       1

loop_
  _space_group_symop_operation_xyz
  'x, y, z'

loop_
  _atom_site_type_symbol
  _atom_site_label
  _atom_site_symmetry_multiplicity
  _atom_site_fract_x
  _atom_site_fract_y
  _atom_site_fract_z
  _atom_site_occupancy
  Bi  Bi1       1.0  0.76100  0.40100  0.00000  1.0000
  Bi  Bi2       1.0  0.25800  0.55200  0.00000  1.0000
  Bi  Bi3       1.0  0.40900  0.90400  0.00000  1.0000
  Bi  Bi4       1.0  0.54300  0.33400  0.50000  1.0000
  Bi  Bi5       1.0  0.69400  0.68600  0.50000  1.0000
  Bi  Bi6       1.0  0.19100  0.83700  0.50000  1.0000
  Mg  Mg1       1.0  0.58200  0.13900  0.00000  1.0000
  Mg  Mg2       1.0  0.14300  0.28600  0.00000  1.0000
  Mg  Mg3       1.0  0.85000  0.72500  0.00000  1.0000
  Mg  Mg4       1.0  0.99600  0.99300  0.00000  1.0000
  Mg  Mg5       1.0  0.37100  0.09890  0.50000  1.0000
  Mg  Mg6       1.0  0.95600  0.24500  0.50000  1.0000
  Mg  Mg7       1.0  0.10200  0.51300  0.50000  1.0000
  Mg  Mg8       1.0  0.81000  0.95200  0.50000  1.0000
