data_image0
_chemical_formula_structural       Sn4Th2
_chemical_formula_sum              "Sn4 Th2"
_cell_length_a       4.4225
_cell_length_b       4.52274
_cell_length_c       8.82336
_cell_angle_alpha    75.1497
_cell_angle_beta     90
_cell_angle_gamma    90

_space_group_name_H-M_alt    "P 1"
_space_group_IT_number       1

loop_
  _space_group_symop_operation_xyz
  'x, y, z'

loop_
  _atom_site_type_symbol
  _atom_site_label
  _atom_site_symmetry_multiplicity
  _atom_site_fract_x
  _atom_site_fract_y
  _atom_site_fract_z
  _atom_site_occupancy
  Sn  Sn1       1.0  0.75000  0.43900  0.12200  1.0000
  Sn  Sn2       1.0  0.25000  0.25000  0.49900  1.0000
  Sn  Sn3       1.0  0.75000  0.75000  0.50100  1.0000
  Sn  Sn4       1.0  0.25000  0.56100  0.87800  1.0000
  Th  Th1       1.0  0.25000  0.89700  0.20500  1.0000
  Th  Th2       1.0  0.75000  0.10300  0.79500  1.0000
