data_image0
_chemical_formula_structural       Dy6Mg8
_chemical_formula_sum              "Dy6 Mg8"
_cell_length_a       8.97899
_cell_length_b       8.97871
_cell_length_c       5.39839
_cell_angle_alpha    90
_cell_angle_beta     90
_cell_angle_gamma    60.0011

_space_group_name_H-M_alt    "P 1"
_space_group_IT_number       1

loop_
  _space_group_symop_operation_xyz
  'x, y, z'

loop_
  _atom_site_type_symbol
  _atom_site_label
  _atom_site_symmetry_multiplicity
  _atom_site_fract_x
  _atom_site_fract_y
  _atom_site_fract_z
  _atom_site_occupancy
  Dy  Dy1       1.0  0.73000  0.43300  0.00000  1.0000
  Dy  Dy2       1.0  0.29000  0.55200  0.00000  1.0000
  Dy  Dy3       1.0  0.40900  0.87300  0.00000  1.0000
  Dy  Dy4       1.0  0.54400  0.36500  0.50000  1.0000
  Dy  Dy5       1.0  0.66300  0.68700  0.50000  1.0000
  Dy  Dy6       1.0  0.22200  0.80600  0.50000  1.0000
  Mg  Mg1       1.0  0.98800  0.00564  0.00000  1.0000
  Mg  Mg2       1.0  0.57800  0.13100  0.00000  1.0000
  Mg  Mg3       1.0  0.14300  0.28600  0.00000  1.0000
  Mg  Mg4       1.0  0.86300  0.72100  0.00000  1.0000
  Mg  Mg5       1.0  0.37500  0.10700  0.50000  1.0000
  Mg  Mg6       1.0  0.96400  0.23200  0.50000  1.0000
  Mg  Mg7       1.0  0.08960  0.51800  0.50000  1.0000
  Mg  Mg8       1.0  0.81000  0.95200  0.50000  1.0000
