data_image0
_chemical_formula_structural       Er6Mg8
_chemical_formula_sum              "Er6 Mg8"
_cell_length_a       8.99769
_cell_length_b       8.99777
_cell_length_c       5.29868
_cell_angle_alpha    90
_cell_angle_beta     90
_cell_angle_gamma    60.0005

_space_group_name_H-M_alt    "P 1"
_space_group_IT_number       1

loop_
  _space_group_symop_operation_xyz
  'x, y, z'

loop_
  _atom_site_type_symbol
  _atom_site_label
  _atom_site_symmetry_multiplicity
  _atom_site_fract_x
  _atom_site_fract_y
  _atom_site_fract_z
  _atom_site_occupancy
  Er  Er1       1.0  0.13100  0.28900  0.00000  1.0000
  Er  Er2       1.0  0.29400  0.56000  0.00000  1.0000
  Er  Er3       1.0  0.86100  0.72200  0.00000  1.0000
  Er  Er4       1.0  0.39200  0.09170  0.50000  1.0000
  Er  Er5       1.0  0.66300  0.65900  0.50000  1.0000
  Er  Er6       1.0  0.23000  0.82100  0.50000  1.0000
  Mg  Mg1       1.0  0.99600  0.00368  0.00000  1.0000
  Mg  Mg2       1.0  0.57500  0.14300  0.00000  1.0000
  Mg  Mg3       1.0  0.71400  0.42500  0.00000  1.0000
  Mg  Mg4       1.0  0.42900  0.85700  0.00000  1.0000
  Mg  Mg5       1.0  0.94900  0.23800  0.50000  1.0000
  Mg  Mg6       1.0  0.52700  0.37700  0.50000  1.0000
  Mg  Mg7       1.0  0.09520  0.52400  0.50000  1.0000
  Mg  Mg8       1.0  0.81000  0.95600  0.50000  1.0000
