data_image0
_chemical_formula_structural       Gd6Mg8
_chemical_formula_sum              "Gd6 Mg8"
_cell_length_a       9.03823
_cell_length_b       9.03825
_cell_length_c       5.42417
_cell_angle_alpha    90
_cell_angle_beta     90
_cell_angle_gamma    59.9997

_space_group_name_H-M_alt    "P 1"
_space_group_IT_number       1

loop_
  _space_group_symop_operation_xyz
  'x, y, z'

loop_
  _atom_site_type_symbol
  _atom_site_label
  _atom_site_symmetry_multiplicity
  _atom_site_fract_x
  _atom_site_fract_y
  _atom_site_fract_z
  _atom_site_occupancy
  Gd  Gd1       1.0  0.73300  0.43100  0.00000  1.0000
  Gd  Gd2       1.0  0.28800  0.55000  0.00000  1.0000
  Gd  Gd3       1.0  0.40700  0.87600  0.00000  1.0000
  Gd  Gd4       1.0  0.54500  0.36200  0.50000  1.0000
  Gd  Gd5       1.0  0.66400  0.68800  0.50000  1.0000
  Gd  Gd6       1.0  0.21900  0.80700  0.50000  1.0000
  Mg  Mg1       1.0  0.98600  0.00607  0.00000  1.0000
  Mg  Mg2       1.0  0.57900  0.12900  0.00000  1.0000
  Mg  Mg3       1.0  0.14300  0.28600  0.00000  1.0000
  Mg  Mg4       1.0  0.86300  0.72200  0.00000  1.0000
  Mg  Mg5       1.0  0.37300  0.10900  0.50000  1.0000
  Mg  Mg6       1.0  0.96600  0.23200  0.50000  1.0000
  Mg  Mg7       1.0  0.08920  0.51600  0.50000  1.0000
  Mg  Mg8       1.0  0.81000  0.95200  0.50000  1.0000
