data_image0
_chemical_formula_structural       Gd2Pd2Sb2
_chemical_formula_sum              "Gd2 Pd2 Sb2"
_cell_length_a       4.6063
_cell_length_b       4.60673
_cell_length_c       7.4642
_cell_angle_alpha    90
_cell_angle_beta     90
_cell_angle_gamma    119.997

_space_group_name_H-M_alt    "P 1"
_space_group_IT_number       1

loop_
  _space_group_symop_operation_xyz
  'x, y, z'

loop_
  _atom_site_type_symbol
  _atom_site_label
  _atom_site_symmetry_multiplicity
  _atom_site_fract_x
  _atom_site_fract_y
  _atom_site_fract_z
  _atom_site_occupancy
  Gd  Gd1       1.0  0.00000  0.00000  0.99600  1.0000
  Gd  Gd2       1.0  0.00001  0.00002  0.49600  1.0000
  Pd  Pd1       1.0  0.33300  0.66700  0.32600  1.0000
  Pd  Pd2       1.0  0.66700  0.33300  0.82600  1.0000
  Sb  Sb1       1.0  0.66700  0.33300  0.22300  1.0000
  Sb  Sb2       1.0  0.33300  0.66700  0.72300  1.0000
