data_image0
_chemical_formula_structural       Cd6Mg8
_chemical_formula_sum              "Cd6 Mg8"
_cell_length_a       8.26524
_cell_length_b       8.26525
_cell_length_c       5.02452
_cell_angle_alpha    90
_cell_angle_beta     90
_cell_angle_gamma    60

_space_group_name_H-M_alt    "P 1"
_space_group_IT_number       1

loop_
  _space_group_symop_operation_xyz
  'x, y, z'

loop_
  _atom_site_type_symbol
  _atom_site_label
  _atom_site_symmetry_multiplicity
  _atom_site_fract_x
  _atom_site_fract_y
  _atom_site_fract_z
  _atom_site_occupancy
  Cd  Cd1       1.0  0.14100  0.28100  0.00000  1.0000
  Cd  Cd2       1.0  0.29300  0.57000  0.00000  1.0000
  Cd  Cd3       1.0  0.85200  0.72100  0.00000  1.0000
  Cd  Cd4       1.0  0.38300  0.10000  0.50000  1.0000
  Cd  Cd5       1.0  0.67200  0.66000  0.50000  1.0000
  Cd  Cd6       1.0  0.23100  0.81100  0.50000  1.0000
  Mg  Mg1       1.0  0.56300  0.15300  0.00000  1.0000
  Mg  Mg2       1.0  0.72400  0.42700  0.00000  1.0000
  Mg  Mg3       1.0  0.42900  0.85700  0.00000  1.0000
  Mg  Mg4       1.0  0.99900  0.99100  0.00000  1.0000
  Mg  Mg5       1.0  0.96100  0.22800  0.50000  1.0000
  Mg  Mg6       1.0  0.52500  0.39000  0.50000  1.0000
  Mg  Mg7       1.0  0.09520  0.52400  0.50000  1.0000
  Mg  Mg8       1.0  0.79900  0.95400  0.50000  1.0000
