data_image0
_chemical_formula_structural       Ag6Mg8
_chemical_formula_sum              "Ag6 Mg8"
_cell_length_a       7.91492
_cell_length_b       7.91491
_cell_length_c       4.90677
_cell_angle_alpha    90
_cell_angle_beta     90
_cell_angle_gamma    59.9993

_space_group_name_H-M_alt    "P 1"
_space_group_IT_number       1

loop_
  _space_group_symop_operation_xyz
  'x, y, z'

loop_
  _atom_site_type_symbol
  _atom_site_label
  _atom_site_symmetry_multiplicity
  _atom_site_fract_x
  _atom_site_fract_y
  _atom_site_fract_z
  _atom_site_occupancy
  Ag  Ag1       1.0  0.72000  0.42300  0.00000  1.0000
  Ag  Ag2       1.0  0.28000  0.57100  0.00000  1.0000
  Ag  Ag3       1.0  0.42800  0.86300  0.00000  1.0000
  Ag  Ag4       1.0  0.52400  0.37500  0.50000  1.0000
  Ag  Ag5       1.0  0.67200  0.66700  0.50000  1.0000
  Ag  Ag6       1.0  0.23200  0.81500  0.50000  1.0000
  Mg  Mg1       1.0  0.56800  0.16600  0.00000  1.0000
  Mg  Mg2       1.0  0.14300  0.28600  0.00000  1.0000
  Mg  Mg3       1.0  0.83700  0.71100  0.00000  1.0000
  Mg  Mg4       1.0  0.02360  0.98000  0.00000  1.0000
  Mg  Mg5       1.0  0.38400  0.07170  0.50000  1.0000
  Mg  Mg6       1.0  0.92900  0.25800  0.50000  1.0000
  Mg  Mg7       1.0  0.11600  0.52700  0.50000  1.0000
  Mg  Mg8       1.0  0.81000  0.95200  0.50000  1.0000
