data_image0
_chemical_formula_structural       Cr6Mg8
_chemical_formula_sum              "Cr6 Mg8"
_cell_length_a       7.99106
_cell_length_b       7.99039
_cell_length_c       4.3991
_cell_angle_alpha    90
_cell_angle_beta     90
_cell_angle_gamma    60.0081

_space_group_name_H-M_alt    "P 1"
_space_group_IT_number       1

loop_
  _space_group_symop_operation_xyz
  'x, y, z'

loop_
  _atom_site_type_symbol
  _atom_site_label
  _atom_site_symmetry_multiplicity
  _atom_site_fract_x
  _atom_site_fract_y
  _atom_site_fract_z
  _atom_site_occupancy
  Cr  Cr1       1.0  0.65300  0.47400  0.00000  1.0000
  Cr  Cr2       1.0  0.33100  0.58700  0.00000  1.0000
  Cr  Cr3       1.0  0.44500  0.79600  0.00000  1.0000
  Cr  Cr4       1.0  0.50800  0.44200  0.50000  1.0000
  Cr  Cr5       1.0  0.62100  0.65100  0.50000  1.0000
  Cr  Cr6       1.0  0.30000  0.76400  0.50000  1.0000
  Mg  Mg1       1.0  0.55900  0.18400  0.00000  1.0000
  Mg  Mg2       1.0  0.14300  0.28600  0.00000  1.0000
  Mg  Mg3       1.0  0.82800  0.70200  0.00000  1.0000
  Mg  Mg4       1.0  0.04140  0.97100  0.00000  1.0000
  Mg  Mg5       1.0  0.39300  0.05400  0.50000  1.0000
  Mg  Mg6       1.0  0.91100  0.26700  0.50000  1.0000
  Mg  Mg7       1.0  0.12400  0.53600  0.50000  1.0000
  Mg  Mg8       1.0  0.80900  0.95200  0.50000  1.0000
