data_image0
_chemical_formula_structural       Ga6Mg8
_chemical_formula_sum              "Ga6 Mg8"
_cell_length_a       8.05829
_cell_length_b       8.05837
_cell_length_c       4.9395
_cell_angle_alpha    90
_cell_angle_beta     90
_cell_angle_gamma    59.9992

_space_group_name_H-M_alt    "P 1"
_space_group_IT_number       1

loop_
  _space_group_symop_operation_xyz
  'x, y, z'

loop_
  _atom_site_type_symbol
  _atom_site_label
  _atom_site_symmetry_multiplicity
  _atom_site_fract_x
  _atom_site_fract_y
  _atom_site_fract_z
  _atom_site_occupancy
  Ga  Ga1       1.0  0.14200  0.28200  0.00000  1.0000
  Ga  Ga2       1.0  0.29000  0.57100  0.00000  1.0000
  Ga  Ga3       1.0  0.85300  0.71900  0.00000  1.0000
  Ga  Ga4       1.0  0.38100  0.09930  0.50000  1.0000
  Ga  Ga5       1.0  0.67100  0.66200  0.50000  1.0000
  Ga  Ga6       1.0  0.23400  0.81000  0.50000  1.0000
  Mg  Mg1       1.0  0.55200  0.15900  0.00000  1.0000
  Mg  Mg2       1.0  0.73100  0.43100  0.00000  1.0000
  Mg  Mg3       1.0  0.42900  0.85700  0.00000  1.0000
  Mg  Mg4       1.0  0.00276  0.98100  0.00000  1.0000
  Mg  Mg5       1.0  0.97200  0.22200  0.50000  1.0000
  Mg  Mg6       1.0  0.52100  0.40000  0.50000  1.0000
  Mg  Mg7       1.0  0.09530  0.52400  0.50000  1.0000
  Mg  Mg8       1.0  0.79300  0.95000  0.50000  1.0000
