data_image0
_chemical_formula_structural       Ho6Mg8
_chemical_formula_sum              "Ho6 Mg8"
_cell_length_a       9.03133
_cell_length_b       9.03141
_cell_length_c       5.30434
_cell_angle_alpha    90
_cell_angle_beta     90
_cell_angle_gamma    60.0008

_space_group_name_H-M_alt    "P 1"
_space_group_IT_number       1

loop_
  _space_group_symop_operation_xyz
  'x, y, z'

loop_
  _atom_site_type_symbol
  _atom_site_label
  _atom_site_symmetry_multiplicity
  _atom_site_fract_x
  _atom_site_fract_y
  _atom_site_fract_z
  _atom_site_occupancy
  Ho  Ho1       1.0  0.13000  0.28900  0.00000  1.0000
  Ho  Ho2       1.0  0.29500  0.55900  0.00000  1.0000
  Ho  Ho3       1.0  0.86100  0.72300  0.00000  1.0000
  Ho  Ho4       1.0  0.39300  0.09180  0.50000  1.0000
  Ho  Ho5       1.0  0.66300  0.65800  0.50000  1.0000
  Ho  Ho6       1.0  0.22900  0.82200  0.50000  1.0000
  Mg  Mg1       1.0  0.99600  0.00413  0.00000  1.0000
  Mg  Mg2       1.0  0.57600  0.14300  0.00000  1.0000
  Mg  Mg3       1.0  0.71400  0.42400  0.00000  1.0000
  Mg  Mg4       1.0  0.42900  0.85700  0.00000  1.0000
  Mg  Mg5       1.0  0.94800  0.23800  0.50000  1.0000
  Mg  Mg6       1.0  0.52800  0.37700  0.50000  1.0000
  Mg  Mg7       1.0  0.09520  0.52400  0.50000  1.0000
  Mg  Mg8       1.0  0.80900  0.95700  0.50000  1.0000
