data_image0
_chemical_formula_structural       Co9Er3
_chemical_formula_sum              "Co9 Er3"
_cell_length_a       8.39721
_cell_length_b       8.39721
_cell_length_c       8.39721
_cell_angle_alpha    33.4813
_cell_angle_beta     33.4813
_cell_angle_gamma    33.4813

_space_group_name_H-M_alt    "P 1"
_space_group_IT_number       1

loop_
  _space_group_symop_operation_xyz
  'x, y, z'

loop_
  _atom_site_type_symbol
  _atom_site_label
  _atom_site_symmetry_multiplicity
  _atom_site_fract_x
  _atom_site_fract_y
  _atom_site_fract_z
  _atom_site_occupancy
  Co  Co1       1.0  0.58000  0.08250  0.58000  1.0000
  Co  Co2       1.0  0.58000  0.58000  0.08240  1.0000
  Co  Co3       1.0  0.08250  0.58000  0.58000  1.0000
  Co  Co4       1.0  0.91800  0.42000  0.42000  1.0000
  Co  Co5       1.0  0.42000  0.42000  0.91800  1.0000
  Co  Co6       1.0  0.42000  0.91800  0.42000  1.0000
  Co  Co7       1.0  0.50000  0.50000  0.50000  1.0000
  Co  Co8       1.0  0.33300  0.33300  0.33300  1.0000
  Co  Co9       1.0  0.66700  0.66700  0.66700  1.0000
  Er  Er1       1.0  0.14000  0.14000  0.14000  1.0000
  Er  Er2       1.0  0.86000  0.86000  0.86000  1.0000
  Er  Er3       1.0  0.00000  0.00000  0.00000  1.0000
