data_image0
_chemical_formula_structural       Cu6Mg8
_chemical_formula_sum              "Cu6 Mg8"
_cell_length_a       7.69714
_cell_length_b       7.69731
_cell_length_c       4.54784
_cell_angle_alpha    90
_cell_angle_beta     90
_cell_angle_gamma    59.998

_space_group_name_H-M_alt    "P 1"
_space_group_IT_number       1

loop_
  _space_group_symop_operation_xyz
  'x, y, z'

loop_
  _atom_site_type_symbol
  _atom_site_label
  _atom_site_symmetry_multiplicity
  _atom_site_fract_x
  _atom_site_fract_y
  _atom_site_fract_z
  _atom_site_occupancy
  Cu  Cu1       1.0  0.69000  0.45100  0.00000  1.0000
  Cu  Cu2       1.0  0.30800  0.57300  0.00000  1.0000
  Cu  Cu3       1.0  0.43000  0.83300  0.00000  1.0000
  Cu  Cu4       1.0  0.52200  0.40500  0.50000  1.0000
  Cu  Cu5       1.0  0.64400  0.66500  0.50000  1.0000
  Cu  Cu6       1.0  0.26200  0.78700  0.50000  1.0000
  Mg  Mg1       1.0  0.56700  0.18600  0.00000  1.0000
  Mg  Mg2       1.0  0.14300  0.28600  0.00000  1.0000
  Mg  Mg3       1.0  0.81800  0.71000  0.00000  1.0000
  Mg  Mg4       1.0  0.04340  0.96100  0.00000  1.0000
  Mg  Mg5       1.0  0.38500  0.05180  0.50000  1.0000
  Mg  Mg6       1.0  0.90900  0.27800  0.50000  1.0000
  Mg  Mg7       1.0  0.13500  0.52800  0.50000  1.0000
  Mg  Mg8       1.0  0.81000  0.95200  0.50000  1.0000
