data_image0
_chemical_formula_structural       Hg6Mg8
_chemical_formula_sum              "Hg6 Mg8"
_cell_length_a       8.26201
_cell_length_b       8.26197
_cell_length_c       4.95868
_cell_angle_alpha    90
_cell_angle_beta     90
_cell_angle_gamma    60.0002

_space_group_name_H-M_alt    "P 1"
_space_group_IT_number       1

loop_
  _space_group_symop_operation_xyz
  'x, y, z'

loop_
  _atom_site_type_symbol
  _atom_site_label
  _atom_site_symmetry_multiplicity
  _atom_site_fract_x
  _atom_site_fract_y
  _atom_site_fract_z
  _atom_site_occupancy
  Hg  Hg1       1.0  0.12900  0.27400  0.00000  1.0000
  Hg  Hg2       1.0  0.31100  0.55800  0.00000  1.0000
  Hg  Hg3       1.0  0.84500  0.74000  0.00000  1.0000
  Hg  Hg4       1.0  0.39500  0.10700  0.50000  1.0000
  Hg  Hg5       1.0  0.67800  0.64100  0.50000  1.0000
  Hg  Hg6       1.0  0.21300  0.82300  0.50000  1.0000
  Mg  Mg1       1.0  0.55400  0.16000  0.00000  1.0000
  Mg  Mg2       1.0  0.73100  0.43000  0.00000  1.0000
  Mg  Mg3       1.0  0.42900  0.85700  0.00000  1.0000
  Mg  Mg4       1.0  0.00098  0.98200  0.00000  1.0000
  Mg  Mg5       1.0  0.97000  0.22100  0.50000  1.0000
  Mg  Mg6       1.0  0.52300  0.39900  0.50000  1.0000
  Mg  Mg7       1.0  0.09520  0.52400  0.50000  1.0000
  Mg  Mg8       1.0  0.79300  0.95100  0.50000  1.0000
