data_image0
_chemical_formula_structural       Hf6Mg8
_chemical_formula_sum              "Hf6 Mg8"
_cell_length_a       8.44756
_cell_length_b       8.44752
_cell_length_c       5.05454
_cell_angle_alpha    90
_cell_angle_beta     90
_cell_angle_gamma    60.0024

_space_group_name_H-M_alt    "P 1"
_space_group_IT_number       1

loop_
  _space_group_symop_operation_xyz
  'x, y, z'

loop_
  _atom_site_type_symbol
  _atom_site_label
  _atom_site_symmetry_multiplicity
  _atom_site_fract_x
  _atom_site_fract_y
  _atom_site_fract_z
  _atom_site_occupancy
  Hf  Hf1       1.0  0.70500  0.43800  0.00000  1.0000
  Hf  Hf2       1.0  0.29500  0.57200  0.00000  1.0000
  Hf  Hf3       1.0  0.42900  0.84700  0.00000  1.0000
  Hf  Hf4       1.0  0.52300  0.39100  0.50000  1.0000
  Hf  Hf5       1.0  0.65800  0.66600  0.50000  1.0000
  Hf  Hf6       1.0  0.24800  0.80000  0.50000  1.0000
  Mg  Mg1       1.0  0.00423  0.00000  0.00000  1.0000
  Mg  Mg2       1.0  0.56700  0.14700  0.00000  1.0000
  Mg  Mg3       1.0  0.14300  0.28600  0.00000  1.0000
  Mg  Mg4       1.0  0.85700  0.71000  0.00000  1.0000
  Mg  Mg5       1.0  0.38500  0.09100  0.50000  1.0000
  Mg  Mg6       1.0  0.94800  0.23800  0.50000  1.0000
  Mg  Mg7       1.0  0.09530  0.52800  0.50000  1.0000
  Mg  Mg8       1.0  0.80900  0.95200  0.50000  1.0000
