data_image0
_chemical_formula_structural       Eu6Mg8
_chemical_formula_sum              "Eu6 Mg8"
_cell_length_a       9.50157
_cell_length_b       9.50144
_cell_length_c       5.57309
_cell_angle_alpha    90
_cell_angle_beta     90
_cell_angle_gamma    59.9996

_space_group_name_H-M_alt    "P 1"
_space_group_IT_number       1

loop_
  _space_group_symop_operation_xyz
  'x, y, z'

loop_
  _atom_site_type_symbol
  _atom_site_label
  _atom_site_symmetry_multiplicity
  _atom_site_fract_x
  _atom_site_fract_y
  _atom_site_fract_z
  _atom_site_occupancy
  Eu  Eu1       1.0  0.74700  0.42300  0.00000  1.0000
  Eu  Eu2       1.0  0.28000  0.54400  0.00000  1.0000
  Eu  Eu3       1.0  0.40100  0.89000  0.00000  1.0000
  Eu  Eu4       1.0  0.55100  0.34800  0.50000  1.0000
  Eu  Eu5       1.0  0.67200  0.69400  0.50000  1.0000
  Eu  Eu6       1.0  0.20500  0.81500  0.50000  1.0000
  Mg  Mg1       1.0  0.97200  0.01110  0.00000  1.0000
  Mg  Mg2       1.0  0.58900  0.11400  0.00000  1.0000
  Mg  Mg3       1.0  0.14300  0.28600  0.00000  1.0000
  Mg  Mg4       1.0  0.86800  0.73200  0.00000  1.0000
  Mg  Mg5       1.0  0.36400  0.12400  0.50000  1.0000
  Mg  Mg6       1.0  0.98100  0.22700  0.50000  1.0000
  Mg  Mg7       1.0  0.08410  0.50700  0.50000  1.0000
  Mg  Mg8       1.0  0.81000  0.95200  0.50000  1.0000
