data_image0
_chemical_formula_structural       K6Mg8
_chemical_formula_sum              "K6 Mg8"
_cell_length_a       10.8327
_cell_length_b       10.8335
_cell_length_c       5.1864
_cell_angle_alpha    90
_cell_angle_beta     90
_cell_angle_gamma    59.9967

_space_group_name_H-M_alt    "P 1"
_space_group_IT_number       1

loop_
  _space_group_symop_operation_xyz
  'x, y, z'

loop_
  _atom_site_type_symbol
  _atom_site_label
  _atom_site_symmetry_multiplicity
  _atom_site_fract_x
  _atom_site_fract_y
  _atom_site_fract_z
  _atom_site_occupancy
  K   K1        1.0  0.32500  0.46600  0.00000  1.0000
  K   K2        1.0  0.78000  0.46800  0.00000  1.0000
  K   K3        1.0  0.32300  0.92300  0.00000  1.0000
  K   K4        1.0  0.62900  0.31500  0.50000  1.0000
  K   K5        1.0  0.17200  0.77000  0.50000  1.0000
  K   K6        1.0  0.62700  0.77200  0.50000  1.0000
  Mg  Mg1       1.0  0.60200  0.05610  0.00000  1.0000
  Mg  Mg2       1.0  0.91300  0.05650  0.00000  1.0000
  Mg  Mg3       1.0  0.14300  0.28600  0.00000  1.0000
  Mg  Mg4       1.0  0.91400  0.74500  0.00000  1.0000
  Mg  Mg5       1.0  0.03920  0.18200  0.50000  1.0000
  Mg  Mg6       1.0  0.35100  0.18200  0.50000  1.0000
  Mg  Mg7       1.0  0.03880  0.49300  0.50000  1.0000
  Mg  Mg8       1.0  0.80900  0.95200  0.50000  1.0000
