data_image0
_chemical_formula_structural       Ge6Mg8
_chemical_formula_sum              "Ge6 Mg8"
_cell_length_a       8.02915
_cell_length_b       8.03011
_cell_length_c       5.10709
_cell_angle_alpha    90
_cell_angle_beta     90
_cell_angle_gamma    60.0025

_space_group_name_H-M_alt    "P 1"
_space_group_IT_number       1

loop_
  _space_group_symop_operation_xyz
  'x, y, z'

loop_
  _atom_site_type_symbol
  _atom_site_label
  _atom_site_symmetry_multiplicity
  _atom_site_fract_x
  _atom_site_fract_y
  _atom_site_fract_z
  _atom_site_occupancy
  Ge  Ge1       1.0  0.72300  0.42100  0.00000  1.0000
  Ge  Ge2       1.0  0.27800  0.57000  0.00000  1.0000
  Ge  Ge3       1.0  0.42700  0.86600  0.00000  1.0000
  Ge  Ge4       1.0  0.52600  0.37200  0.50000  1.0000
  Ge  Ge5       1.0  0.67400  0.66900  0.50000  1.0000
  Ge  Ge6       1.0  0.22900  0.81700  0.50000  1.0000
  Mg  Mg1       1.0  0.57000  0.16400  0.00000  1.0000
  Mg  Mg2       1.0  0.14300  0.28600  0.00000  1.0000
  Mg  Mg3       1.0  0.83700  0.71300  0.00000  1.0000
  Mg  Mg4       1.0  0.02120  0.98000  0.00000  1.0000
  Mg  Mg5       1.0  0.38200  0.07410  0.50000  1.0000
  Mg  Mg6       1.0  0.93100  0.25800  0.50000  1.0000
  Mg  Mg7       1.0  0.11600  0.52500  0.50000  1.0000
  Mg  Mg8       1.0  0.81000  0.95200  0.50000  1.0000
