data_image0
_chemical_formula_structural       In6Mg8
_chemical_formula_sum              "In6 Mg8"
_cell_length_a       8.43344
_cell_length_b       8.43356
_cell_length_c       5.35351
_cell_angle_alpha    90
_cell_angle_beta     90
_cell_angle_gamma    59.9989

_space_group_name_H-M_alt    "P 1"
_space_group_IT_number       1

loop_
  _space_group_symop_operation_xyz
  'x, y, z'

loop_
  _atom_site_type_symbol
  _atom_site_label
  _atom_site_symmetry_multiplicity
  _atom_site_fract_x
  _atom_site_fract_y
  _atom_site_fract_z
  _atom_site_occupancy
  In  In1       1.0  0.72800  0.42000  0.00000  1.0000
  In  In2       1.0  0.27700  0.56600  0.00000  1.0000
  In  In3       1.0  0.42300  0.87100  0.00000  1.0000
  In  In4       1.0  0.52900  0.36700  0.50000  1.0000
  In  In5       1.0  0.67500  0.67200  0.50000  1.0000
  In  In6       1.0  0.22400  0.81800  0.50000  1.0000
  Mg  Mg1       1.0  0.57500  0.14200  0.00000  1.0000
  Mg  Mg2       1.0  0.14300  0.28600  0.00000  1.0000
  Mg  Mg3       1.0  0.85400  0.71800  0.00000  1.0000
  Mg  Mg4       1.0  1.00000  0.99700  0.00000  1.0000
  Mg  Mg5       1.0  0.37800  0.09560  0.50000  1.0000
  Mg  Mg6       1.0  0.95300  0.24100  0.50000  1.0000
  Mg  Mg7       1.0  0.09820  0.52000  0.50000  1.0000
  Mg  Mg8       1.0  0.81000  0.95200  0.50000  1.0000
