data_image0
_chemical_formula_structural       Lu6Mg8
_chemical_formula_sum              "Lu6 Mg8"
_cell_length_a       8.87037
_cell_length_b       8.87033
_cell_length_c       5.33703
_cell_angle_alpha    90
_cell_angle_beta     90
_cell_angle_gamma    60.0003

_space_group_name_H-M_alt    "P 1"
_space_group_IT_number       1

loop_
  _space_group_symop_operation_xyz
  'x, y, z'

loop_
  _atom_site_type_symbol
  _atom_site_label
  _atom_site_symmetry_multiplicity
  _atom_site_fract_x
  _atom_site_fract_y
  _atom_site_fract_z
  _atom_site_occupancy
  Lu  Lu1       1.0  0.72200  0.43200  0.00000  1.0000
  Lu  Lu2       1.0  0.28900  0.56000  0.00000  1.0000
  Lu  Lu3       1.0  0.41700  0.86500  0.00000  1.0000
  Lu  Lu4       1.0  0.53500  0.37300  0.50000  1.0000
  Lu  Lu5       1.0  0.66300  0.67800  0.50000  1.0000
  Lu  Lu6       1.0  0.23000  0.80600  0.50000  1.0000
  Mg  Mg1       1.0  0.99500  0.00277  0.00000  1.0000
  Mg  Mg2       1.0  0.57400  0.13700  0.00000  1.0000
  Mg  Mg3       1.0  0.14300  0.28600  0.00000  1.0000
  Mg  Mg4       1.0  0.86000  0.71700  0.00000  1.0000
  Mg  Mg5       1.0  0.37800  0.10100  0.50000  1.0000
  Mg  Mg6       1.0  0.95800  0.23500  0.50000  1.0000
  Mg  Mg7       1.0  0.09240  0.52100  0.50000  1.0000
  Mg  Mg8       1.0  0.81000  0.95200  0.50000  1.0000
