data_image0
_chemical_formula_structural       Co6H2
_chemical_formula_sum              "Co6 H2"
_cell_length_a       2.53016
_cell_length_b       2.53021
_cell_length_c       12.2205
_cell_angle_alpha    90
_cell_angle_beta     90
_cell_angle_gamma    120.001

_space_group_name_H-M_alt    "P 1"
_space_group_IT_number       1

loop_
  _space_group_symop_operation_xyz
  'x, y, z'

loop_
  _atom_site_type_symbol
  _atom_site_label
  _atom_site_symmetry_multiplicity
  _atom_site_fract_x
  _atom_site_fract_y
  _atom_site_fract_z
  _atom_site_occupancy
  Co  Co1       1.0  0.33300  0.66700  0.08310  1.0000
  Co  Co2       1.0  0.66700  0.33300  0.24400  1.0000
  Co  Co3       1.0  0.33300  0.66700  0.42200  1.0000
  Co  Co4       1.0  0.66700  0.33300  0.58300  1.0000
  Co  Co5       1.0  0.33300  0.66700  0.74400  1.0000
  Co  Co6       1.0  0.66700  0.33300  0.92200  1.0000
  H   H1        1.0  0.00000  0.00000  0.33300  1.0000
  H   H2        1.0  0.00000  0.00000  0.83300  1.0000
