data_image0
_chemical_formula_structural       Mg8Mo6
_chemical_formula_sum              "Mg8 Mo6"
_cell_length_a       7.79399
_cell_length_b       7.79393
_cell_length_c       4.75819
_cell_angle_alpha    90
_cell_angle_beta     90
_cell_angle_gamma    59.9985

_space_group_name_H-M_alt    "P 1"
_space_group_IT_number       1

loop_
  _space_group_symop_operation_xyz
  'x, y, z'

loop_
  _atom_site_type_symbol
  _atom_site_label
  _atom_site_symmetry_multiplicity
  _atom_site_fract_x
  _atom_site_fract_y
  _atom_site_fract_z
  _atom_site_occupancy
  Mg  Mg1       1.0  0.01760  0.01170  0.00000  1.0000
  Mg  Mg2       1.0  0.58300  0.11300  0.00000  1.0000
  Mg  Mg3       1.0  0.68500  0.44600  0.00000  1.0000
  Mg  Mg4       1.0  0.42900  0.85700  0.00000  1.0000
  Mg  Mg5       1.0  0.94100  0.26700  0.50000  1.0000
  Mg  Mg6       1.0  0.50600  0.36900  0.50000  1.0000
  Mg  Mg7       1.0  0.09530  0.52400  0.50000  1.0000
  Mg  Mg8       1.0  0.83900  0.93500  0.50000  1.0000
  Mo  Mo1       1.0  0.16900  0.30100  0.00000  1.0000
  Mo  Mo2       1.0  0.24400  0.59800  0.00000  1.0000
  Mo  Mo3       1.0  0.87200  0.67300  0.00000  1.0000
  Mo  Mo4       1.0  0.35500  0.08010  0.50000  1.0000
  Mo  Mo5       1.0  0.65200  0.70800  0.50000  1.0000
  Mo  Mo6       1.0  0.28000  0.78300  0.50000  1.0000
