data_image0
_chemical_formula_structural       La6Mg8
_chemical_formula_sum              "La6 Mg8"
_cell_length_a       9.38386
_cell_length_b       9.38438
_cell_length_c       5.37524
_cell_angle_alpha    90
_cell_angle_beta     90
_cell_angle_gamma    59.9947

_space_group_name_H-M_alt    "P 1"
_space_group_IT_number       1

loop_
  _space_group_symop_operation_xyz
  'x, y, z'

loop_
  _atom_site_type_symbol
  _atom_site_label
  _atom_site_symmetry_multiplicity
  _atom_site_fract_x
  _atom_site_fract_y
  _atom_site_fract_z
  _atom_site_occupancy
  La  La1       1.0  0.14000  0.27600  0.00000  1.0000
  La  La2       1.0  0.29800  0.56800  0.00000  1.0000
  La  La3       1.0  0.84800  0.72700  0.00000  1.0000
  La  La4       1.0  0.38400  0.10500  0.50000  1.0000
  La  La5       1.0  0.67600  0.65400  0.50000  1.0000
  La  La6       1.0  0.22500  0.81300  0.50000  1.0000
  Mg  Mg1       1.0  0.98200  0.01320  0.00000  1.0000
  Mg  Mg2       1.0  0.58500  0.14700  0.00000  1.0000
  Mg  Mg3       1.0  0.71900  0.41100  0.00000  1.0000
  Mg  Mg4       1.0  0.42900  0.85700  0.00000  1.0000
  Mg  Mg5       1.0  0.93900  0.23300  0.50000  1.0000
  Mg  Mg6       1.0  0.54200  0.36800  0.50000  1.0000
  Mg  Mg7       1.0  0.09520  0.52400  0.50000  1.0000
  Mg  Mg8       1.0  0.80500  0.97000  0.50000  1.0000
