data_image0
_chemical_formula_structural       Li6Mg8
_chemical_formula_sum              "Li6 Mg8"
_cell_length_a       8.16509
_cell_length_b       8.1648
_cell_length_c       4.98355
_cell_angle_alpha    90
_cell_angle_beta     90
_cell_angle_gamma    59.9982

_space_group_name_H-M_alt    "P 1"
_space_group_IT_number       1

loop_
  _space_group_symop_operation_xyz
  'x, y, z'

loop_
  _atom_site_type_symbol
  _atom_site_label
  _atom_site_symmetry_multiplicity
  _atom_site_fract_x
  _atom_site_fract_y
  _atom_site_fract_z
  _atom_site_occupancy
  Li  Li1       1.0  0.71100  0.43200  0.00000  1.0000
  Li  Li2       1.0  0.28900  0.57200  0.00000  1.0000
  Li  Li3       1.0  0.42900  0.85300  0.00000  1.0000
  Li  Li4       1.0  0.52300  0.38500  0.50000  1.0000
  Li  Li5       1.0  0.66400  0.66600  0.50000  1.0000
  Li  Li6       1.0  0.24200  0.80700  0.50000  1.0000
  Mg  Mg1       1.0  0.56900  0.15400  0.00000  1.0000
  Mg  Mg2       1.0  0.14300  0.28600  0.00000  1.0000
  Mg  Mg3       1.0  0.84900  0.71200  0.00000  1.0000
  Mg  Mg4       1.0  0.01130  0.99100  0.00000  1.0000
  Mg  Mg5       1.0  0.38400  0.08400  0.50000  1.0000
  Mg  Mg6       1.0  0.94100  0.24700  0.50000  1.0000
  Mg  Mg7       1.0  0.10400  0.52700  0.50000  1.0000
  Mg  Mg8       1.0  0.81000  0.95200  0.50000  1.0000
