data_image0
_chemical_formula_structural       Fe6Mg8
_chemical_formula_sum              "Fe6 Mg8"
_cell_length_a       7.75165
_cell_length_b       7.77393
_cell_length_c       4.46155
_cell_angle_alpha    90
_cell_angle_beta     90
_cell_angle_gamma    59.8146

_space_group_name_H-M_alt    "P 1"
_space_group_IT_number       1

loop_
  _space_group_symop_operation_xyz
  'x, y, z'

loop_
  _atom_site_type_symbol
  _atom_site_label
  _atom_site_symmetry_multiplicity
  _atom_site_fract_x
  _atom_site_fract_y
  _atom_site_fract_z
  _atom_site_occupancy
  Fe  Fe1       1.0  0.67200  0.46200  0.00000  1.0000
  Fe  Fe2       1.0  0.31800  0.58100  0.00000  1.0000
  Fe  Fe3       1.0  0.43900  0.81100  0.00000  1.0000
  Fe  Fe4       1.0  0.51400  0.42600  0.50000  1.0000
  Fe  Fe5       1.0  0.63500  0.65600  0.50000  1.0000
  Fe  Fe6       1.0  0.28200  0.77400  0.50000  1.0000
  Mg  Mg1       1.0  0.56100  0.18700  0.00000  1.0000
  Mg  Mg2       1.0  0.14100  0.28800  0.00000  1.0000
  Mg  Mg3       1.0  0.82400  0.70700  0.00000  1.0000
  Mg  Mg4       1.0  0.04320  0.96700  0.00000  1.0000
  Mg  Mg5       1.0  0.38900  0.05110  0.50000  1.0000
  Mg  Mg6       1.0  0.91100  0.27000  0.50000  1.0000
  Mg  Mg7       1.0  0.12900  0.53300  0.50000  1.0000
  Mg  Mg8       1.0  0.80900  0.95300  0.50000  1.0000
