data_image0
_chemical_formula_structural       Cs6Mg8
_chemical_formula_sum              "Cs6 Mg8"
_cell_length_a       12.9181
_cell_length_b       12.9176
_cell_length_c       5.37172
_cell_angle_alpha    90
_cell_angle_beta     90
_cell_angle_gamma    59.9871

_space_group_name_H-M_alt    "P 1"
_space_group_IT_number       1

loop_
  _space_group_symop_operation_xyz
  'x, y, z'

loop_
  _atom_site_type_symbol
  _atom_site_label
  _atom_site_symmetry_multiplicity
  _atom_site_fract_x
  _atom_site_fract_y
  _atom_site_fract_z
  _atom_site_occupancy
  Cs  Cs1       1.0  0.08300  0.27700  0.00000  1.0000
  Cs  Cs2       1.0  0.35400  0.51200  0.00000  1.0000
  Cs  Cs3       1.0  0.84800  0.78300  0.00000  1.0000
  Cs  Cs4       1.0  0.44100  0.10400  0.50000  1.0000
  Cs  Cs5       1.0  0.67500  0.59800  0.50000  1.0000
  Cs  Cs6       1.0  0.17000  0.86900  0.50000  1.0000
  Mg  Mg1       1.0  0.91400  0.07140  0.00000  1.0000
  Mg  Mg2       1.0  0.64300  0.15700  0.00000  1.0000
  Mg  Mg3       1.0  0.72800  0.34300  0.00000  1.0000
  Mg  Mg4       1.0  0.42900  0.85700  0.00000  1.0000
  Mg  Mg5       1.0  0.79600  0.03790  0.50000  1.0000
  Mg  Mg6       1.0  0.88100  0.22400  0.50000  1.0000
  Mg  Mg7       1.0  0.60900  0.30900  0.50000  1.0000
  Mg  Mg8       1.0  0.09530  0.52400  0.50000  1.0000
