data_image0
_chemical_formula_structural       Ir6Mg8
_chemical_formula_sum              "Ir6 Mg8"
_cell_length_a       7.45225
_cell_length_b       7.45196
_cell_length_c       4.66402
_cell_angle_alpha    90
_cell_angle_beta     90
_cell_angle_gamma    60.0003

_space_group_name_H-M_alt    "P 1"
_space_group_IT_number       1

loop_
  _space_group_symop_operation_xyz
  'x, y, z'

loop_
  _atom_site_type_symbol
  _atom_site_label
  _atom_site_symmetry_multiplicity
  _atom_site_fract_x
  _atom_site_fract_y
  _atom_site_fract_z
  _atom_site_occupancy
  Ir  Ir1       1.0  0.71800  0.41500  0.00000  1.0000
  Ir  Ir2       1.0  0.27200  0.58200  0.00000  1.0000
  Ir  Ir3       1.0  0.43900  0.86000  0.00000  1.0000
  Ir  Ir4       1.0  0.51400  0.37800  0.50000  1.0000
  Ir  Ir5       1.0  0.68000  0.65700  0.50000  1.0000
  Ir  Ir6       1.0  0.23500  0.82300  0.50000  1.0000
  Mg  Mg1       1.0  0.55300  0.17400  0.00000  1.0000
  Mg  Mg2       1.0  0.14300  0.28600  0.00000  1.0000
  Mg  Mg3       1.0  0.84500  0.69600  0.00000  1.0000
  Mg  Mg4       1.0  0.03080  0.98800  0.00000  1.0000
  Mg  Mg5       1.0  0.40000  0.06440  0.50000  1.0000
  Mg  Mg6       1.0  0.92200  0.25000  0.50000  1.0000
  Mg  Mg7       1.0  0.10700  0.54300  0.50000  1.0000
  Mg  Mg8       1.0  0.81000  0.95200  0.50000  1.0000
