data_image0
_chemical_formula_structural       Mg8Rb6
_chemical_formula_sum              "Mg8 Rb6"
_cell_length_a       11.3948
_cell_length_b       11.3963
_cell_length_c       5.25296
_cell_angle_alpha    90
_cell_angle_beta     90
_cell_angle_gamma    59.9983

_space_group_name_H-M_alt    "P 1"
_space_group_IT_number       1

loop_
  _space_group_symop_operation_xyz
  'x, y, z'

loop_
  _atom_site_type_symbol
  _atom_site_label
  _atom_site_symmetry_multiplicity
  _atom_site_fract_x
  _atom_site_fract_y
  _atom_site_fract_z
  _atom_site_occupancy
  Mg  Mg1       1.0  0.90900  0.05130  0.00000  1.0000
  Mg  Mg2       1.0  0.61100  0.05210  0.00000  1.0000
  Mg  Mg3       1.0  0.14300  0.28600  0.00000  1.0000
  Mg  Mg4       1.0  0.90800  0.75400  0.00000  1.0000
  Mg  Mg5       1.0  0.34200  0.18600  0.50000  1.0000
  Mg  Mg6       1.0  0.04320  0.18700  0.50000  1.0000
  Mg  Mg7       1.0  0.04390  0.48400  0.50000  1.0000
  Mg  Mg8       1.0  0.80900  0.95200  0.50000  1.0000
  Rb  Rb1       1.0  0.32200  0.46200  0.00000  1.0000
  Rb  Rb2       1.0  0.78700  0.46500  0.00000  1.0000
  Rb  Rb3       1.0  0.32000  0.93000  0.00000  1.0000
  Rb  Rb4       1.0  0.63300  0.30900  0.50000  1.0000
  Rb  Rb5       1.0  0.16600  0.77300  0.50000  1.0000
  Rb  Rb6       1.0  0.63000  0.77600  0.50000  1.0000
