data_image0
_chemical_formula_structural       Co4Ho12
_chemical_formula_sum              "Co4 Ho12"
_cell_length_a       6.89466
_cell_length_b       9.34744
_cell_length_c       6.18279
_cell_angle_alpha    90
_cell_angle_beta     90
_cell_angle_gamma    90

_space_group_name_H-M_alt    "P 1"
_space_group_IT_number       1

loop_
  _space_group_symop_operation_xyz
  'x, y, z'

loop_
  _atom_site_type_symbol
  _atom_site_label
  _atom_site_symmetry_multiplicity
  _atom_site_fract_x
  _atom_site_fract_y
  _atom_site_fract_z
  _atom_site_occupancy
  Co  Co1       1.0  0.88700  0.25000  0.04830  1.0000
  Co  Co2       1.0  0.38700  0.25000  0.45200  1.0000
  Co  Co3       1.0  0.61300  0.75000  0.54800  1.0000
  Co  Co4       1.0  0.11300  0.75000  0.95200  1.0000
  Ho  Ho1       1.0  0.45700  0.75000  0.14100  1.0000
  Ho  Ho2       1.0  0.17500  0.06710  0.17600  1.0000
  Ho  Ho3       1.0  0.17500  0.43300  0.17600  1.0000
  Ho  Ho4       1.0  0.67500  0.06710  0.32400  1.0000
  Ho  Ho5       1.0  0.67500  0.43300  0.32400  1.0000
  Ho  Ho6       1.0  0.95700  0.75000  0.35900  1.0000
  Ho  Ho7       1.0  0.04260  0.25000  0.64100  1.0000
  Ho  Ho8       1.0  0.32500  0.56700  0.67600  1.0000
  Ho  Ho9       1.0  0.32500  0.93300  0.67600  1.0000
  Ho  Ho10      1.0  0.82500  0.56700  0.82400  1.0000
  Ho  Ho11      1.0  0.82500  0.93300  0.82400  1.0000
  Ho  Ho12      1.0  0.54300  0.25000  0.85900  1.0000
