data_image0
_chemical_formula_structural       Mg8Si6
_chemical_formula_sum              "Mg8 Si6"
_cell_length_a       7.97422
_cell_length_b       7.97417
_cell_length_c       4.8398
_cell_angle_alpha    90
_cell_angle_beta     90
_cell_angle_gamma    60.0002

_space_group_name_H-M_alt    "P 1"
_space_group_IT_number       1

loop_
  _space_group_symop_operation_xyz
  'x, y, z'

loop_
  _atom_site_type_symbol
  _atom_site_label
  _atom_site_symmetry_multiplicity
  _atom_site_fract_x
  _atom_site_fract_y
  _atom_site_fract_z
  _atom_site_occupancy
  Mg  Mg1       1.0  0.53500  0.16100  0.00000  1.0000
  Mg  Mg2       1.0  0.73200  0.44700  0.00000  1.0000
  Mg  Mg3       1.0  0.42900  0.85700  0.00000  1.0000
  Mg  Mg4       1.0  0.01870  0.96300  0.00000  1.0000
  Mg  Mg5       1.0  0.98900  0.22000  0.50000  1.0000
  Mg  Mg6       1.0  0.50500  0.41800  0.50000  1.0000
  Mg  Mg7       1.0  0.09520  0.52400  0.50000  1.0000
  Mg  Mg8       1.0  0.79100  0.93400  0.50000  1.0000
  Si  Si1       1.0  0.11600  0.32800  0.00000  1.0000
  Si  Si2       1.0  0.27000  0.54500  0.00000  1.0000
  Si  Si3       1.0  0.89900  0.69900  0.00000  1.0000
  Si  Si4       1.0  0.40800  0.05310  0.50000  1.0000
  Si  Si5       1.0  0.62500  0.68200  0.50000  1.0000
  Si  Si6       1.0  0.25300  0.83600  0.50000  1.0000
