data_image0
_chemical_formula_structural       Mg8Pb6
_chemical_formula_sum              "Mg8 Pb6"
_cell_length_a       8.75856
_cell_length_b       8.7586
_cell_length_c       5.38535
_cell_angle_alpha    90
_cell_angle_beta     90
_cell_angle_gamma    60.0007

_space_group_name_H-M_alt    "P 1"
_space_group_IT_number       1

loop_
  _space_group_symop_operation_xyz
  'x, y, z'

loop_
  _atom_site_type_symbol
  _atom_site_label
  _atom_site_symmetry_multiplicity
  _atom_site_fract_x
  _atom_site_fract_y
  _atom_site_fract_z
  _atom_site_occupancy
  Mg  Mg1       1.0  0.99100  0.00542  0.00000  1.0000
  Mg  Mg2       1.0  0.57700  0.14600  0.00000  1.0000
  Mg  Mg3       1.0  0.71700  0.42000  0.00000  1.0000
  Mg  Mg4       1.0  0.42900  0.85700  0.00000  1.0000
  Mg  Mg5       1.0  0.94700  0.23500  0.50000  1.0000
  Mg  Mg6       1.0  0.53200  0.37600  0.50000  1.0000
  Mg  Mg7       1.0  0.09520  0.52400  0.50000  1.0000
  Mg  Mg8       1.0  0.80600  0.96100  0.50000  1.0000
  Pb  Pb1       1.0  0.12700  0.27800  0.00000  1.0000
  Pb  Pb2       1.0  0.30900  0.55600  0.00000  1.0000
  Pb  Pb3       1.0  0.84900  0.73800  0.00000  1.0000
  Pb  Pb4       1.0  0.39600  0.10300  0.50000  1.0000
  Pb  Pb5       1.0  0.67500  0.64300  0.50000  1.0000
  Pb  Pb6       1.0  0.21500  0.82500  0.50000  1.0000
