data_image0
_chemical_formula_structural       Mg8Pd6
_chemical_formula_sum              "Mg8 Pd6"
_cell_length_a       7.59034
_cell_length_b       7.59038
_cell_length_c       4.80175
_cell_angle_alpha    90
_cell_angle_beta     90
_cell_angle_gamma    60.0008

_space_group_name_H-M_alt    "P 1"
_space_group_IT_number       1

loop_
  _space_group_symop_operation_xyz
  'x, y, z'

loop_
  _atom_site_type_symbol
  _atom_site_label
  _atom_site_symmetry_multiplicity
  _atom_site_fract_x
  _atom_site_fract_y
  _atom_site_fract_z
  _atom_site_occupancy
  Mg  Mg1       1.0  0.56000  0.18100  0.00000  1.0000
  Mg  Mg2       1.0  0.14300  0.28600  0.00000  1.0000
  Mg  Mg3       1.0  0.83100  0.70200  0.00000  1.0000
  Mg  Mg4       1.0  0.03800  0.97400  0.00000  1.0000
  Mg  Mg5       1.0  0.39300  0.05730  0.50000  1.0000
  Mg  Mg6       1.0  0.91400  0.26400  0.50000  1.0000
  Mg  Mg7       1.0  0.12100  0.53600  0.50000  1.0000
  Mg  Mg8       1.0  0.81000  0.95200  0.50000  1.0000
  Pd  Pd1       1.0  0.73000  0.41100  0.00000  1.0000
  Pd  Pd2       1.0  0.26800  0.57300  0.00000  1.0000
  Pd  Pd3       1.0  0.43000  0.87300  0.00000  1.0000
  Pd  Pd4       1.0  0.52200  0.36500  0.50000  1.0000
  Pd  Pd5       1.0  0.68400  0.66500  0.50000  1.0000
  Pd  Pd6       1.0  0.22200  0.82700  0.50000  1.0000
