data_image0
_chemical_formula_structural       Mg8Sb6
_chemical_formula_sum              "Mg8 Sb6"
_cell_length_a       8.78829
_cell_length_b       8.78562
_cell_length_c       6.11996
_cell_angle_alpha    90
_cell_angle_beta     90
_cell_angle_gamma    60.0467

_space_group_name_H-M_alt    "P 1"
_space_group_IT_number       1

loop_
  _space_group_symop_operation_xyz
  'x, y, z'

loop_
  _atom_site_type_symbol
  _atom_site_label
  _atom_site_symmetry_multiplicity
  _atom_site_fract_x
  _atom_site_fract_y
  _atom_site_fract_z
  _atom_site_occupancy
  Mg  Mg1       1.0  0.14300  0.28600  0.00000  1.0000
  Mg  Mg2       1.0  0.49800  0.29000  0.00000  1.0000
  Mg  Mg3       1.0  0.78400  0.64000  0.00000  1.0000
  Mg  Mg4       1.0  0.14700  0.92700  0.00000  1.0000
  Mg  Mg5       1.0  0.80500  0.31100  0.50000  1.0000
  Mg  Mg6       1.0  0.16800  0.59800  0.50000  1.0000
  Mg  Mg7       1.0  0.45500  0.94800  0.50000  1.0000
  Mg  Mg8       1.0  0.81000  0.95200  0.50000  1.0000
  Sb  Sb1       1.0  0.82700  0.28200  0.00000  1.0000
  Sb  Sb2       1.0  0.13900  0.60400  0.00000  1.0000
  Sb  Sb3       1.0  0.46200  0.97000  0.00000  1.0000
  Sb  Sb4       1.0  0.49000  0.26800  0.50000  1.0000
  Sb  Sb5       1.0  0.81300  0.63400  0.50000  1.0000
  Sb  Sb6       1.0  0.12500  0.95600  0.50000  1.0000
