data_image0
_chemical_formula_structural       Mg8Pr6
_chemical_formula_sum              "Mg8 Pr6"
_cell_length_a       9.26059
_cell_length_b       9.26061
_cell_length_c       5.50957
_cell_angle_alpha    90
_cell_angle_beta     90
_cell_angle_gamma    59.9994

_space_group_name_H-M_alt    "P 1"
_space_group_IT_number       1

loop_
  _space_group_symop_operation_xyz
  'x, y, z'

loop_
  _atom_site_type_symbol
  _atom_site_label
  _atom_site_symmetry_multiplicity
  _atom_site_fract_x
  _atom_site_fract_y
  _atom_site_fract_z
  _atom_site_occupancy
  Mg  Mg1       1.0  0.98000  0.00847  0.00000  1.0000
  Mg  Mg2       1.0  0.58300  0.12300  0.00000  1.0000
  Mg  Mg3       1.0  0.14300  0.28600  0.00000  1.0000
  Mg  Mg4       1.0  0.86600  0.72600  0.00000  1.0000
  Mg  Mg5       1.0  0.36900  0.11600  0.50000  1.0000
  Mg  Mg6       1.0  0.97300  0.23000  0.50000  1.0000
  Mg  Mg7       1.0  0.08680  0.51200  0.50000  1.0000
  Mg  Mg8       1.0  0.81000  0.95200  0.50000  1.0000
  Pr  Pr1       1.0  0.74100  0.42700  0.00000  1.0000
  Pr  Pr2       1.0  0.28500  0.54500  0.00000  1.0000
  Pr  Pr3       1.0  0.40300  0.88400  0.00000  1.0000
  Pr  Pr4       1.0  0.55000  0.35400  0.50000  1.0000
  Pr  Pr5       1.0  0.66800  0.69300  0.50000  1.0000
  Pr  Pr6       1.0  0.21100  0.81100  0.50000  1.0000
