data_image0
_chemical_formula_structural       Mg8Nd6
_chemical_formula_sum              "Mg8 Nd6"
_cell_length_a       9.20487
_cell_length_b       9.20488
_cell_length_c       5.48776
_cell_angle_alpha    90
_cell_angle_beta     90
_cell_angle_gamma    59.9993

_space_group_name_H-M_alt    "P 1"
_space_group_IT_number       1

loop_
  _space_group_symop_operation_xyz
  'x, y, z'

loop_
  _atom_site_type_symbol
  _atom_site_label
  _atom_site_symmetry_multiplicity
  _atom_site_fract_x
  _atom_site_fract_y
  _atom_site_fract_z
  _atom_site_occupancy
  Mg  Mg1       1.0  0.98100  0.00822  0.00000  1.0000
  Mg  Mg2       1.0  0.58200  0.12400  0.00000  1.0000
  Mg  Mg3       1.0  0.14300  0.28600  0.00000  1.0000
  Mg  Mg4       1.0  0.86500  0.72500  0.00000  1.0000
  Mg  Mg5       1.0  0.37000  0.11400  0.50000  1.0000
  Mg  Mg6       1.0  0.97100  0.23000  0.50000  1.0000
  Mg  Mg7       1.0  0.08700  0.51300  0.50000  1.0000
  Mg  Mg8       1.0  0.81000  0.95200  0.50000  1.0000
  Nd  Nd1       1.0  0.74000  0.42800  0.00000  1.0000
  Nd  Nd2       1.0  0.28500  0.54600  0.00000  1.0000
  Nd  Nd3       1.0  0.40400  0.88200  0.00000  1.0000
  Nd  Nd4       1.0  0.54900  0.35600  0.50000  1.0000
  Nd  Nd5       1.0  0.66700  0.69200  0.50000  1.0000
  Nd  Nd6       1.0  0.21300  0.81000  0.50000  1.0000
