data_image0
_chemical_formula_structural       Mg8Mn6
_chemical_formula_sum              "Mg8 Mn6"
_cell_length_a       7.42989
_cell_length_b       7.42759
_cell_length_c       4.45029
_cell_angle_alpha    90
_cell_angle_beta     90
_cell_angle_gamma    60.0515

_space_group_name_H-M_alt    "P 1"
_space_group_IT_number       1

loop_
  _space_group_symop_operation_xyz
  'x, y, z'

loop_
  _atom_site_type_symbol
  _atom_site_label
  _atom_site_symmetry_multiplicity
  _atom_site_fract_x
  _atom_site_fract_y
  _atom_site_fract_z
  _atom_site_occupancy
  Mg  Mg1       1.0  0.03430  0.04740  0.00000  1.0000
  Mg  Mg2       1.0  0.61900  0.06130  0.00000  1.0000
  Mg  Mg3       1.0  0.63300  0.46300  0.00000  1.0000
  Mg  Mg4       1.0  0.42900  0.85700  0.00000  1.0000
  Mg  Mg5       1.0  0.90500  0.31900  0.50000  1.0000
  Mg  Mg6       1.0  0.48900  0.33400  0.50000  1.0000
  Mg  Mg7       1.0  0.09490  0.52400  0.50000  1.0000
  Mg  Mg8       1.0  0.89100  0.91800  0.50000  1.0000
  Mn  Mn1       1.0  0.19700  0.31600  0.00000  1.0000
  Mn  Mn2       1.0  0.20200  0.62400  0.00000  1.0000
  Mn  Mn3       1.0  0.88700  0.63100  0.00000  1.0000
  Mn  Mn4       1.0  0.32800  0.06540  0.50000  1.0000
  Mn  Mn5       1.0  0.63700  0.74900  0.50000  1.0000
  Mn  Mn6       1.0  0.32100  0.75700  0.50000  1.0000
