data_image0
_chemical_formula_structural       Mg8Rh6
_chemical_formula_sum              "Mg8 Rh6"
_cell_length_a       7.47232
_cell_length_b       7.47244
_cell_length_c       4.69109
_cell_angle_alpha    90
_cell_angle_beta     90
_cell_angle_gamma    60.0001

_space_group_name_H-M_alt    "P 1"
_space_group_IT_number       1

loop_
  _space_group_symop_operation_xyz
  'x, y, z'

loop_
  _atom_site_type_symbol
  _atom_site_label
  _atom_site_symmetry_multiplicity
  _atom_site_fract_x
  _atom_site_fract_y
  _atom_site_fract_z
  _atom_site_occupancy
  Mg  Mg1       1.0  0.55400  0.17800  0.00000  1.0000
  Mg  Mg2       1.0  0.14300  0.28600  0.00000  1.0000
  Mg  Mg3       1.0  0.83900  0.69700  0.00000  1.0000
  Mg  Mg4       1.0  0.03540  0.98200  0.00000  1.0000
  Mg  Mg5       1.0  0.39900  0.05980  0.50000  1.0000
  Mg  Mg6       1.0  0.91700  0.25600  0.50000  1.0000
  Mg  Mg7       1.0  0.11300  0.54100  0.50000  1.0000
  Mg  Mg8       1.0  0.81000  0.95200  0.50000  1.0000
  Rh  Rh1       1.0  0.71900  0.41500  0.00000  1.0000
  Rh  Rh2       1.0  0.27200  0.58000  0.00000  1.0000
  Rh  Rh3       1.0  0.43700  0.86200  0.00000  1.0000
  Rh  Rh4       1.0  0.51500  0.37600  0.50000  1.0000
  Rh  Rh5       1.0  0.68100  0.65800  0.50000  1.0000
  Rh  Rh6       1.0  0.23300  0.82300  0.50000  1.0000
