data_image0
_chemical_formula_structural       Mg8Tm6
_chemical_formula_sum              "Mg8 Tm6"
_cell_length_a       8.90791
_cell_length_b       8.9078
_cell_length_c       5.36205
_cell_angle_alpha    90
_cell_angle_beta     90
_cell_angle_gamma    60

_space_group_name_H-M_alt    "P 1"
_space_group_IT_number       1

loop_
  _space_group_symop_operation_xyz
  'x, y, z'

loop_
  _atom_site_type_symbol
  _atom_site_label
  _atom_site_symmetry_multiplicity
  _atom_site_fract_x
  _atom_site_fract_y
  _atom_site_fract_z
  _atom_site_occupancy
  Mg  Mg1       1.0  0.99200  0.00386  0.00000  1.0000
  Mg  Mg2       1.0  0.57600  0.13500  0.00000  1.0000
  Mg  Mg3       1.0  0.14300  0.28600  0.00000  1.0000
  Mg  Mg4       1.0  0.86100  0.71900  0.00000  1.0000
  Mg  Mg5       1.0  0.37700  0.10300  0.50000  1.0000
  Mg  Mg6       1.0  0.96100  0.23400  0.50000  1.0000
  Mg  Mg7       1.0  0.09140  0.51900  0.50000  1.0000
  Mg  Mg8       1.0  0.81000  0.95200  0.50000  1.0000
  Tm  Tm1       1.0  0.72500  0.43300  0.00000  1.0000
  Tm  Tm2       1.0  0.29000  0.55600  0.00000  1.0000
  Tm  Tm3       1.0  0.41300  0.86800  0.00000  1.0000
  Tm  Tm4       1.0  0.53900  0.37000  0.50000  1.0000
  Tm  Tm5       1.0  0.66200  0.68200  0.50000  1.0000
  Tm  Tm6       1.0  0.22700  0.80500  0.50000  1.0000
