data_image0
_chemical_formula_structural       Mg8Yb6
_chemical_formula_sum              "Mg8 Yb6"
_cell_length_a       9.35031
_cell_length_b       9.35026
_cell_length_c       5.57742
_cell_angle_alpha    90
_cell_angle_beta     90
_cell_angle_gamma    59.9981

_space_group_name_H-M_alt    "P 1"
_space_group_IT_number       1

loop_
  _space_group_symop_operation_xyz
  'x, y, z'

loop_
  _atom_site_type_symbol
  _atom_site_label
  _atom_site_symmetry_multiplicity
  _atom_site_fract_x
  _atom_site_fract_y
  _atom_site_fract_z
  _atom_site_occupancy
  Mg  Mg1       1.0  0.98600  0.01380  0.00000  1.0000
  Mg  Mg2       1.0  0.58500  0.14300  0.00000  1.0000
  Mg  Mg3       1.0  0.71500  0.41500  0.00000  1.0000
  Mg  Mg4       1.0  0.42900  0.85700  0.00000  1.0000
  Mg  Mg5       1.0  0.93900  0.23800  0.50000  1.0000
  Mg  Mg6       1.0  0.53800  0.36700  0.50000  1.0000
  Mg  Mg7       1.0  0.09520  0.52400  0.50000  1.0000
  Mg  Mg8       1.0  0.80900  0.96600  0.50000  1.0000
  Yb  Yb1       1.0  0.13000  0.28100  0.00000  1.0000
  Yb  Yb2       1.0  0.30400  0.55800  0.00000  1.0000
  Yb  Yb3       1.0  0.85200  0.73200  0.00000  1.0000
  Yb  Yb4       1.0  0.39400  0.10000  0.50000  1.0000
  Yb  Yb5       1.0  0.67200  0.64900  0.50000  1.0000
  Yb  Yb6       1.0  0.22000  0.82300  0.50000  1.0000
