data_image0
_chemical_formula_structural       Mg8Sr6
_chemical_formula_sum              "Mg8 Sr6"
_cell_length_a       9.82279
_cell_length_b       9.82277
_cell_length_c       5.72554
_cell_angle_alpha    90
_cell_angle_beta     90
_cell_angle_gamma    59.9975

_space_group_name_H-M_alt    "P 1"
_space_group_IT_number       1

loop_
  _space_group_symop_operation_xyz
  'x, y, z'

loop_
  _atom_site_type_symbol
  _atom_site_label
  _atom_site_symmetry_multiplicity
  _atom_site_fract_x
  _atom_site_fract_y
  _atom_site_fract_z
  _atom_site_occupancy
  Mg  Mg1       1.0  0.96400  0.01110  0.00000  1.0000
  Mg  Mg2       1.0  0.59600  0.10700  0.00000  1.0000
  Mg  Mg3       1.0  0.14300  0.28600  0.00000  1.0000
  Mg  Mg4       1.0  0.86800  0.73900  0.00000  1.0000
  Mg  Mg5       1.0  0.35700  0.13100  0.50000  1.0000
  Mg  Mg6       1.0  0.98800  0.22700  0.50000  1.0000
  Mg  Mg7       1.0  0.08410  0.49900  0.50000  1.0000
  Mg  Mg8       1.0  0.81000  0.95200  0.50000  1.0000
  Sr  Sr1       1.0  0.75800  0.42100  0.00000  1.0000
  Sr  Sr2       1.0  0.27800  0.53600  0.00000  1.0000
  Sr  Sr3       1.0  0.39300  0.90000  0.00000  1.0000
  Sr  Sr4       1.0  0.56000  0.33800  0.50000  1.0000
  Sr  Sr5       1.0  0.67400  0.70200  0.50000  1.0000
  Sr  Sr6       1.0  0.19500  0.81700  0.50000  1.0000
