data_image0
_chemical_formula_structural       Mg8Ti6
_chemical_formula_sum              "Mg8 Ti6"
_cell_length_a       8.1676
_cell_length_b       8.16915
_cell_length_c       4.89188
_cell_angle_alpha    90
_cell_angle_beta     90
_cell_angle_gamma    59.9741

_space_group_name_H-M_alt    "P 1"
_space_group_IT_number       1

loop_
  _space_group_symop_operation_xyz
  'x, y, z'

loop_
  _atom_site_type_symbol
  _atom_site_label
  _atom_site_symmetry_multiplicity
  _atom_site_fract_x
  _atom_site_fract_y
  _atom_site_fract_z
  _atom_site_occupancy
  Mg  Mg1       1.0  0.56400  0.15800  0.00000  1.0000
  Mg  Mg2       1.0  0.14300  0.28600  0.00000  1.0000
  Mg  Mg3       1.0  0.84900  0.70700  0.00000  1.0000
  Mg  Mg4       1.0  0.01540  0.99200  0.00000  1.0000
  Mg  Mg5       1.0  0.38800  0.07990  0.50000  1.0000
  Mg  Mg6       1.0  0.93700  0.24700  0.50000  1.0000
  Mg  Mg7       1.0  0.10400  0.53100  0.50000  1.0000
  Mg  Mg8       1.0  0.81000  0.95200  0.50000  1.0000
  Ti  Ti1       1.0  0.68400  0.45000  0.00000  1.0000
  Ti  Ti2       1.0  0.30700  0.58000  0.00000  1.0000
  Ti  Ti3       1.0  0.43700  0.82700  0.00000  1.0000
  Ti  Ti4       1.0  0.51500  0.41100  0.50000  1.0000
  Ti  Ti5       1.0  0.64500  0.65800  0.50000  1.0000
  Ti  Ti6       1.0  0.26800  0.78800  0.50000  1.0000
