data_image0
_chemical_formula_structural       Mg8Ru6
_chemical_formula_sum              "Mg8 Ru6"
_cell_length_a       7.58949
_cell_length_b       7.59041
_cell_length_c       4.66747
_cell_angle_alpha    90
_cell_angle_beta     90
_cell_angle_gamma    59.9988

_space_group_name_H-M_alt    "P 1"
_space_group_IT_number       1

loop_
  _space_group_symop_operation_xyz
  'x, y, z'

loop_
  _atom_site_type_symbol
  _atom_site_label
  _atom_site_symmetry_multiplicity
  _atom_site_fract_x
  _atom_site_fract_y
  _atom_site_fract_z
  _atom_site_occupancy
  Mg  Mg1       1.0  0.55800  0.17200  0.00000  1.0000
  Mg  Mg2       1.0  0.14300  0.28600  0.00000  1.0000
  Mg  Mg3       1.0  0.84100  0.70100  0.00000  1.0000
  Mg  Mg4       1.0  0.02960  0.98400  0.00000  1.0000
  Mg  Mg5       1.0  0.39500  0.06560  0.50000  1.0000
  Mg  Mg6       1.0  0.92300  0.25400  0.50000  1.0000
  Mg  Mg7       1.0  0.11100  0.53800  0.50000  1.0000
  Mg  Mg8       1.0  0.80900  0.95200  0.50000  1.0000
  Ru  Ru1       1.0  0.69300  0.43900  0.00000  1.0000
  Ru  Ru2       1.0  0.29600  0.58300  0.00000  1.0000
  Ru  Ru3       1.0  0.44000  0.83600  0.00000  1.0000
  Ru  Ru4       1.0  0.51300  0.40200  0.50000  1.0000
  Ru  Ru5       1.0  0.65600  0.65500  0.50000  1.0000
  Ru  Ru6       1.0  0.25900  0.79900  0.50000  1.0000
