data_image0
_chemical_formula_structural       As12Co4
_chemical_formula_sum              "As12 Co4"
_cell_length_a       7.14795
_cell_length_b       7.14795
_cell_length_c       7.14795
_cell_angle_alpha    109.471
_cell_angle_beta     109.471
_cell_angle_gamma    109.471

_space_group_name_H-M_alt    "P 1"
_space_group_IT_number       1

loop_
  _space_group_symop_operation_xyz
  'x, y, z'

loop_
  _atom_site_type_symbol
  _atom_site_label
  _atom_site_symmetry_multiplicity
  _atom_site_fract_x
  _atom_site_fract_y
  _atom_site_fract_z
  _atom_site_occupancy
  As  As1       1.0  0.34100  0.49300  0.15200  1.0000
  As  As2       1.0  0.65900  0.81100  0.15200  1.0000
  As  As3       1.0  0.84800  0.34100  0.18900  1.0000
  As  As4       1.0  0.49300  0.15200  0.34100  1.0000
  As  As5       1.0  0.18900  0.84800  0.34100  1.0000
  As  As6       1.0  0.15200  0.34100  0.49300  1.0000
  As  As7       1.0  0.84800  0.65900  0.50700  1.0000
  As  As8       1.0  0.50700  0.84800  0.65900  1.0000
  As  As9       1.0  0.81100  0.15200  0.65900  1.0000
  As  As10      1.0  0.15200  0.65900  0.81100  1.0000
  As  As11      1.0  0.34100  0.18900  0.84800  1.0000
  As  As12      1.0  0.65900  0.50700  0.84800  1.0000
  Co  Co1       1.0  0.50000  0.00000  0.00000  1.0000
  Co  Co2       1.0  0.00000  0.50000  0.00000  1.0000
  Co  Co3       1.0  0.00000  0.00000  0.50000  1.0000
  Co  Co4       1.0  0.50000  0.50000  0.50000  1.0000
