data_image0
_chemical_formula_structural       Mg8Pt6
_chemical_formula_sum              "Mg8 Pt6"
_cell_length_a       7.61124
_cell_length_b       7.61126
_cell_length_c       4.64469
_cell_angle_alpha    90
_cell_angle_beta     90
_cell_angle_gamma    60.0003

_space_group_name_H-M_alt    "P 1"
_space_group_IT_number       1

loop_
  _space_group_symop_operation_xyz
  'x, y, z'

loop_
  _atom_site_type_symbol
  _atom_site_label
  _atom_site_symmetry_multiplicity
  _atom_site_fract_x
  _atom_site_fract_y
  _atom_site_fract_z
  _atom_site_occupancy
  Mg  Mg1       1.0  0.54200  0.15400  0.00000  1.0000
  Mg  Mg2       1.0  0.72500  0.44700  0.00000  1.0000
  Mg  Mg3       1.0  0.42900  0.85700  0.00000  1.0000
  Mg  Mg4       1.0  0.01870  0.97000  0.00000  1.0000
  Mg  Mg5       1.0  0.98200  0.22700  0.50000  1.0000
  Mg  Mg6       1.0  0.50500  0.41100  0.50000  1.0000
  Mg  Mg7       1.0  0.09520  0.52400  0.50000  1.0000
  Mg  Mg8       1.0  0.79800  0.93400  0.50000  1.0000
  Pt  Pt1       1.0  0.13200  0.28300  0.00000  1.0000
  Pt  Pt2       1.0  0.29900  0.56100  0.00000  1.0000
  Pt  Pt3       1.0  0.85500  0.72700  0.00000  1.0000
  Pt  Pt4       1.0  0.39200  0.09760  0.50000  1.0000
  Pt  Pt5       1.0  0.66900  0.65400  0.50000  1.0000
  Pt  Pt6       1.0  0.22500  0.82000  0.50000  1.0000
