data_image0
_chemical_formula_structural       Mg8Sm6
_chemical_formula_sum              "Mg8 Sm6"
_cell_length_a       9.11695
_cell_length_b       9.1169
_cell_length_c       5.45135
_cell_angle_alpha    90
_cell_angle_beta     90
_cell_angle_gamma    59.9994

_space_group_name_H-M_alt    "P 1"
_space_group_IT_number       1

loop_
  _space_group_symop_operation_xyz
  'x, y, z'

loop_
  _atom_site_type_symbol
  _atom_site_label
  _atom_site_symmetry_multiplicity
  _atom_site_fract_x
  _atom_site_fract_y
  _atom_site_fract_z
  _atom_site_occupancy
  Mg  Mg1       1.0  0.98300  0.00808  0.00000  1.0000
  Mg  Mg2       1.0  0.58100  0.12500  0.00000  1.0000
  Mg  Mg3       1.0  0.14300  0.28600  0.00000  1.0000
  Mg  Mg4       1.0  0.86500  0.72400  0.00000  1.0000
  Mg  Mg5       1.0  0.37200  0.11300  0.50000  1.0000
  Mg  Mg6       1.0  0.97000  0.23000  0.50000  1.0000
  Mg  Mg7       1.0  0.08710  0.51400  0.50000  1.0000
  Mg  Mg8       1.0  0.81000  0.95200  0.50000  1.0000
  Sm  Sm1       1.0  0.73700  0.43000  0.00000  1.0000
  Sm  Sm2       1.0  0.28700  0.54700  0.00000  1.0000
  Sm  Sm3       1.0  0.40500  0.87900  0.00000  1.0000
  Sm  Sm4       1.0  0.54800  0.35900  0.50000  1.0000
  Sm  Sm5       1.0  0.66500  0.69100  0.50000  1.0000
  Sm  Sm6       1.0  0.21600  0.80800  0.50000  1.0000
