data_image0
_chemical_formula_structural       Mg8Te6
_chemical_formula_sum              "Mg8 Te6"
_cell_length_a       9.40569
_cell_length_b       9.40589
_cell_length_c       4.82784
_cell_angle_alpha    90
_cell_angle_beta     90
_cell_angle_gamma    60

_space_group_name_H-M_alt    "P 1"
_space_group_IT_number       1

loop_
  _space_group_symop_operation_xyz
  'x, y, z'

loop_
  _atom_site_type_symbol
  _atom_site_label
  _atom_site_symmetry_multiplicity
  _atom_site_fract_x
  _atom_site_fract_y
  _atom_site_fract_z
  _atom_site_occupancy
  Mg  Mg1       1.0  0.98500  0.02100  0.00000  1.0000
  Mg  Mg2       1.0  0.59200  0.13700  0.00000  1.0000
  Mg  Mg3       1.0  0.70800  0.41400  0.00000  1.0000
  Mg  Mg4       1.0  0.42900  0.85700  0.00000  1.0000
  Mg  Mg5       1.0  0.93100  0.24400  0.50000  1.0000
  Mg  Mg6       1.0  0.53900  0.36000  0.50000  1.0000
  Mg  Mg7       1.0  0.09520  0.52400  0.50000  1.0000
  Mg  Mg8       1.0  0.81600  0.96700  0.50000  1.0000
  Te  Te1       1.0  0.06780  0.29800  0.00000  1.0000
  Te  Te2       1.0  0.34900  0.49600  0.00000  1.0000
  Te  Te3       1.0  0.86900  0.77800  0.00000  1.0000
  Te  Te4       1.0  0.45600  0.08340  0.50000  1.0000
  Te  Te5       1.0  0.65500  0.60300  0.50000  1.0000
  Te  Te6       1.0  0.17500  0.88500  0.50000  1.0000
