data_image0
_chemical_formula_structural       Mg8Tl6
_chemical_formula_sum              "Mg8 Tl6"
_cell_length_a       8.54063
_cell_length_b       8.54081
_cell_length_c       5.45285
_cell_angle_alpha    90
_cell_angle_beta     90
_cell_angle_gamma    59.9989

_space_group_name_H-M_alt    "P 1"
_space_group_IT_number       1

loop_
  _space_group_symop_operation_xyz
  'x, y, z'

loop_
  _atom_site_type_symbol
  _atom_site_label
  _atom_site_symmetry_multiplicity
  _atom_site_fract_x
  _atom_site_fract_y
  _atom_site_fract_z
  _atom_site_occupancy
  Mg  Mg1       1.0  0.57600  0.14200  0.00000  1.0000
  Mg  Mg2       1.0  0.14300  0.28600  0.00000  1.0000
  Mg  Mg3       1.0  0.85300  0.71900  0.00000  1.0000
  Mg  Mg4       1.0  1.00000  0.99600  0.00000  1.0000
  Mg  Mg5       1.0  0.37600  0.09560  0.50000  1.0000
  Mg  Mg6       1.0  0.95300  0.24300  0.50000  1.0000
  Mg  Mg7       1.0  0.09970  0.51900  0.50000  1.0000
  Mg  Mg8       1.0  0.81000  0.95200  0.50000  1.0000
  Tl  Tl1       1.0  0.73400  0.41300  0.00000  1.0000
  Tl  Tl2       1.0  0.27000  0.56800  0.00000  1.0000
  Tl  Tl3       1.0  0.42500  0.87700  0.00000  1.0000
  Tl  Tl4       1.0  0.52800  0.36100  0.50000  1.0000
  Tl  Tl5       1.0  0.68200  0.67000  0.50000  1.0000
  Tl  Tl6       1.0  0.21900  0.82500  0.50000  1.0000
