data_image0
_chemical_formula_structural       Mg8Os6
_chemical_formula_sum              "Mg8 Os6"
_cell_length_a       7.61881
_cell_length_b       7.61615
_cell_length_c       4.61543
_cell_angle_alpha    90
_cell_angle_beta     90
_cell_angle_gamma    59.985

_space_group_name_H-M_alt    "P 1"
_space_group_IT_number       1

loop_
  _space_group_symop_operation_xyz
  'x, y, z'

loop_
  _atom_site_type_symbol
  _atom_site_label
  _atom_site_symmetry_multiplicity
  _atom_site_fract_x
  _atom_site_fract_y
  _atom_site_fract_z
  _atom_site_occupancy
  Mg  Mg1       1.0  0.55600  0.16800  0.00000  1.0000
  Mg  Mg2       1.0  0.14300  0.28600  0.00000  1.0000
  Mg  Mg3       1.0  0.84800  0.69900  0.00000  1.0000
  Mg  Mg4       1.0  0.02490  0.99000  0.00000  1.0000
  Mg  Mg5       1.0  0.39600  0.07030  0.50000  1.0000
  Mg  Mg6       1.0  0.92700  0.24800  0.50000  1.0000
  Mg  Mg7       1.0  0.10500  0.53900  0.50000  1.0000
  Mg  Mg8       1.0  0.81000  0.95200  0.50000  1.0000
  Os  Os1       1.0  0.69500  0.43500  0.00000  1.0000
  Os  Os2       1.0  0.29200  0.58400  0.00000  1.0000
  Os  Os3       1.0  0.44100  0.83800  0.00000  1.0000
  Os  Os4       1.0  0.51100  0.40000  0.50000  1.0000
  Os  Os5       1.0  0.66000  0.65400  0.50000  1.0000
  Os  Os6       1.0  0.25700  0.80300  0.50000  1.0000
