data_image0
_chemical_formula_structural       Mg8Ni6
_chemical_formula_sum              "Mg8 Ni6"
_cell_length_a       7.42184
_cell_length_b       7.42108
_cell_length_c       4.44468
_cell_angle_alpha    90
_cell_angle_beta     90
_cell_angle_gamma    60.005

_space_group_name_H-M_alt    "P 1"
_space_group_IT_number       1

loop_
  _space_group_symop_operation_xyz
  'x, y, z'

loop_
  _atom_site_type_symbol
  _atom_site_label
  _atom_site_symmetry_multiplicity
  _atom_site_fract_x
  _atom_site_fract_y
  _atom_site_fract_z
  _atom_site_occupancy
  Mg  Mg1       1.0  0.53000  0.16700  0.00000  1.0000
  Mg  Mg2       1.0  0.73800  0.44500  0.00000  1.0000
  Mg  Mg3       1.0  0.42900  0.85700  0.00000  1.0000
  Mg  Mg4       1.0  0.01680  0.95900  0.00000  1.0000
  Mg  Mg5       1.0  0.99300  0.21400  0.50000  1.0000
  Mg  Mg6       1.0  0.50700  0.42200  0.50000  1.0000
  Mg  Mg7       1.0  0.09520  0.52400  0.50000  1.0000
  Mg  Mg8       1.0  0.78500  0.93600  0.50000  1.0000
  Ni  Ni1       1.0  0.14300  0.29600  0.00000  1.0000
  Ni  Ni2       1.0  0.27600  0.57200  0.00000  1.0000
  Ni  Ni3       1.0  0.86700  0.70400  0.00000  1.0000
  Ni  Ni4       1.0  0.38100  0.08530  0.50000  1.0000
  Ni  Ni5       1.0  0.65700  0.67700  0.50000  1.0000
  Ni  Ni6       1.0  0.24800  0.80900  0.50000  1.0000
