data_image0
_chemical_formula_structural       Mg8Ta6
_chemical_formula_sum              "Mg8 Ta6"
_cell_length_a       8.15603
_cell_length_b       8.15689
_cell_length_c       4.9083
_cell_angle_alpha    90
_cell_angle_beta     90
_cell_angle_gamma    60.0082

_space_group_name_H-M_alt    "P 1"
_space_group_IT_number       1

loop_
  _space_group_symop_operation_xyz
  'x, y, z'

loop_
  _atom_site_type_symbol
  _atom_site_label
  _atom_site_symmetry_multiplicity
  _atom_site_fract_x
  _atom_site_fract_y
  _atom_site_fract_z
  _atom_site_occupancy
  Mg  Mg1       1.0  0.56400  0.15100  0.00000  1.0000
  Mg  Mg2       1.0  0.14300  0.28600  0.00000  1.0000
  Mg  Mg3       1.0  0.85600  0.70700  0.00000  1.0000
  Mg  Mg4       1.0  0.00838  0.99900  0.00000  1.0000
  Mg  Mg5       1.0  0.38800  0.08680  0.50000  1.0000
  Mg  Mg6       1.0  0.94400  0.23900  0.50000  1.0000
  Mg  Mg7       1.0  0.09610  0.53100  0.50000  1.0000
  Mg  Mg8       1.0  0.80900  0.95200  0.50000  1.0000
  Ta  Ta1       1.0  0.69000  0.44700  0.00000  1.0000
  Ta  Ta2       1.0  0.30500  0.57700  0.00000  1.0000
  Ta  Ta3       1.0  0.43500  0.83200  0.00000  1.0000
  Ta  Ta4       1.0  0.51800  0.40600  0.50000  1.0000
  Ta  Ta5       1.0  0.64800  0.66100  0.50000  1.0000
  Ta  Ta6       1.0  0.26300  0.79100  0.50000  1.0000
