data_image0
_chemical_formula_structural       Mg8Sc6
_chemical_formula_sum              "Mg8 Sc6"
_cell_length_a       8.51404
_cell_length_b       8.51384
_cell_length_c       5.09931
_cell_angle_alpha    90
_cell_angle_beta     90
_cell_angle_gamma    60.0003

_space_group_name_H-M_alt    "P 1"
_space_group_IT_number       1

loop_
  _space_group_symop_operation_xyz
  'x, y, z'

loop_
  _atom_site_type_symbol
  _atom_site_label
  _atom_site_symmetry_multiplicity
  _atom_site_fract_x
  _atom_site_fract_y
  _atom_site_fract_z
  _atom_site_occupancy
  Mg  Mg1       1.0  0.99800  0.00180  0.00000  1.0000
  Mg  Mg2       1.0  0.57200  0.14000  0.00000  1.0000
  Mg  Mg3       1.0  0.14300  0.28600  0.00000  1.0000
  Mg  Mg4       1.0  0.85900  0.71500  0.00000  1.0000
  Mg  Mg5       1.0  0.38000  0.09760  0.50000  1.0000
  Mg  Mg6       1.0  0.95500  0.23600  0.50000  1.0000
  Mg  Mg7       1.0  0.09340  0.52300  0.50000  1.0000
  Mg  Mg8       1.0  0.81000  0.95200  0.50000  1.0000
  Sc  Sc1       1.0  0.71600  0.43700  0.00000  1.0000
  Sc  Sc2       1.0  0.29400  0.56100  0.00000  1.0000
  Sc  Sc3       1.0  0.41900  0.85900  0.00000  1.0000
  Sc  Sc4       1.0  0.53400  0.37900  0.50000  1.0000
  Sc  Sc5       1.0  0.65800  0.67700  0.50000  1.0000
  Sc  Sc6       1.0  0.23600  0.80100  0.50000  1.0000
