data_image0
_chemical_formula_structural       Mg8Sn6
_chemical_formula_sum              "Mg8 Sn6"
_cell_length_a       8.52668
_cell_length_b       8.52681
_cell_length_c       5.27144
_cell_angle_alpha    90
_cell_angle_beta     90
_cell_angle_gamma    60.0002

_space_group_name_H-M_alt    "P 1"
_space_group_IT_number       1

loop_
  _space_group_symop_operation_xyz
  'x, y, z'

loop_
  _atom_site_type_symbol
  _atom_site_label
  _atom_site_symmetry_multiplicity
  _atom_site_fract_x
  _atom_site_fract_y
  _atom_site_fract_z
  _atom_site_occupancy
  Mg  Mg1       1.0  0.99700  0.00014  0.00000  1.0000
  Mg  Mg2       1.0  0.57200  0.14600  0.00000  1.0000
  Mg  Mg3       1.0  0.71700  0.42600  0.00000  1.0000
  Mg  Mg4       1.0  0.42900  0.85700  0.00000  1.0000
  Mg  Mg5       1.0  0.95200  0.23500  0.50000  1.0000
  Mg  Mg6       1.0  0.52700  0.38100  0.50000  1.0000
  Mg  Mg7       1.0  0.09520  0.52400  0.50000  1.0000
  Mg  Mg8       1.0  0.80700  0.95500  0.50000  1.0000
  Sn  Sn1       1.0  0.13200  0.27900  0.00000  1.0000
  Sn  Sn2       1.0  0.30300  0.56100  0.00000  1.0000
  Sn  Sn3       1.0  0.85000  0.73200  0.00000  1.0000
  Sn  Sn4       1.0  0.39100  0.10200  0.50000  1.0000
  Sn  Sn5       1.0  0.67400  0.64900  0.50000  1.0000
  Sn  Sn6       1.0  0.22100  0.82000  0.50000  1.0000
