data_image0
_chemical_formula_structural       Cl2Er2S2
_chemical_formula_sum              "Cl2 Er2 S2"
_cell_length_a       5.31687
_cell_length_b       3.95542
_cell_length_c       7.53949
_cell_angle_alpha    90
_cell_angle_beta     90
_cell_angle_gamma    90

_space_group_name_H-M_alt    "P 1"
_space_group_IT_number       1

loop_
  _space_group_symop_operation_xyz
  'x, y, z'

loop_
  _atom_site_type_symbol
  _atom_site_label
  _atom_site_symmetry_multiplicity
  _atom_site_fract_x
  _atom_site_fract_y
  _atom_site_fract_z
  _atom_site_occupancy
  Cl  Cl1       1.0  0.25000  0.75000  0.38600  1.0000
  Cl  Cl2       1.0  0.75000  0.25000  0.61400  1.0000
  Er  Er1       1.0  0.25000  0.25000  0.15300  1.0000
  Er  Er2       1.0  0.75000  0.75000  0.84700  1.0000
  S   S1        1.0  0.75000  0.25000  0.09500  1.0000
  S   S2        1.0  0.25000  0.75000  0.90500  1.0000
