data_image0
_chemical_formula_structural       Mg8V6
_chemical_formula_sum              "Mg8 V6"
_cell_length_a       8.12655
_cell_length_b       7.86253
_cell_length_c       4.6538
_cell_angle_alpha    90
_cell_angle_beta     90
_cell_angle_gamma    60.2136

_space_group_name_H-M_alt    "P 1"
_space_group_IT_number       1

loop_
  _space_group_symop_operation_xyz
  'x, y, z'

loop_
  _atom_site_type_symbol
  _atom_site_label
  _atom_site_symmetry_multiplicity
  _atom_site_fract_x
  _atom_site_fract_y
  _atom_site_fract_z
  _atom_site_occupancy
  Mg  Mg1       1.0  0.56100  0.17500  0.00000  1.0000
  Mg  Mg2       1.0  0.14300  0.28000  0.00000  1.0000
  Mg  Mg3       1.0  0.83700  0.71000  0.00000  1.0000
  Mg  Mg4       1.0  0.02380  0.98200  0.00000  1.0000
  Mg  Mg5       1.0  0.39100  0.06340  0.50000  1.0000
  Mg  Mg6       1.0  0.92900  0.25600  0.50000  1.0000
  Mg  Mg7       1.0  0.11500  0.52900  0.50000  1.0000
  Mg  Mg8       1.0  0.80900  0.95900  0.50000  1.0000
  V   V1        1.0  0.68500  0.45600  0.00000  1.0000
  V   V2        1.0  0.30700  0.58400  0.00000  1.0000
  V   V3        1.0  0.44500  0.77400  0.00000  1.0000
  V   V4        1.0  0.50800  0.46400  0.50000  1.0000
  V   V5        1.0  0.64500  0.65400  0.50000  1.0000
  V   V6        1.0  0.26700  0.78200  0.50000  1.0000
