data_image0
_chemical_formula_structural       Mg8Zn6
_chemical_formula_sum              "Mg8 Zn6"
_cell_length_a       7.8668
_cell_length_b       7.86713
_cell_length_c       4.89018
_cell_angle_alpha    90
_cell_angle_beta     90
_cell_angle_gamma    59.9936

_space_group_name_H-M_alt    "P 1"
_space_group_IT_number       1

loop_
  _space_group_symop_operation_xyz
  'x, y, z'

loop_
  _atom_site_type_symbol
  _atom_site_label
  _atom_site_symmetry_multiplicity
  _atom_site_fract_x
  _atom_site_fract_y
  _atom_site_fract_z
  _atom_site_occupancy
  Mg  Mg1       1.0  0.57100  0.16700  0.00000  1.0000
  Mg  Mg2       1.0  0.14300  0.28600  0.00000  1.0000
  Mg  Mg3       1.0  0.83300  0.71400  0.00000  1.0000
  Mg  Mg4       1.0  0.02450  0.97600  0.00000  1.0000
  Mg  Mg5       1.0  0.38100  0.07070  0.50000  1.0000
  Mg  Mg6       1.0  0.92800  0.26200  0.50000  1.0000
  Mg  Mg7       1.0  0.12000  0.52400  0.50000  1.0000
  Mg  Mg8       1.0  0.81000  0.95200  0.50000  1.0000
  Zn  Zn1       1.0  0.70400  0.44100  0.00000  1.0000
  Zn  Zn2       1.0  0.29800  0.57000  0.00000  1.0000
  Zn  Zn3       1.0  0.42700  0.84700  0.00000  1.0000
  Zn  Zn4       1.0  0.52600  0.39100  0.50000  1.0000
  Zn  Zn5       1.0  0.65400  0.66800  0.50000  1.0000
  Zn  Zn6       1.0  0.24900  0.79700  0.50000  1.0000
