data_image0
_chemical_formula_structural       Al6Ti8
_chemical_formula_sum              "Al6 Ti8"
_cell_length_a       7.63843
_cell_length_b       7.63843
_cell_length_c       4.52295
_cell_angle_alpha    90
_cell_angle_beta     90
_cell_angle_gamma    60

_space_group_name_H-M_alt    "P 1"
_space_group_IT_number       1

loop_
  _space_group_symop_operation_xyz
  'x, y, z'

loop_
  _atom_site_type_symbol
  _atom_site_label
  _atom_site_symmetry_multiplicity
  _atom_site_fract_x
  _atom_site_fract_y
  _atom_site_fract_z
  _atom_site_occupancy
  Al  Al1       1.0  0.14600  0.27500  0.00000  1.0000
  Al  Al2       1.0  0.29400  0.57500  0.00000  1.0000
  Al  Al3       1.0  0.84600  0.72200  0.00000  1.0000
  Al  Al4       1.0  0.37800  0.10600  0.50000  1.0000
  Al  Al5       1.0  0.67800  0.65900  0.50000  1.0000
  Al  Al6       1.0  0.23000  0.80600  0.50000  1.0000
  Ti  Ti1       1.0  0.55100  0.17100  0.00000  1.0000
  Ti  Ti2       1.0  0.74200  0.42100  0.00000  1.0000
  Ti  Ti3       1.0  0.42900  0.85700  0.00000  1.0000
  Ti  Ti4       1.0  0.99200  0.98000  0.00000  1.0000
  Ti  Ti5       1.0  0.97200  0.21000  0.50000  1.0000
  Ti  Ti6       1.0  0.53200  0.40100  0.50000  1.0000
  Ti  Ti7       1.0  0.09520  0.52400  0.50000  1.0000
  Ti  Ti8       1.0  0.78200  0.96000  0.50000  1.0000
