data_image0
_chemical_formula_structural       Mg8Y6
_chemical_formula_sum              "Mg8 Y6"
_cell_length_a       8.99566
_cell_length_b       8.99563
_cell_length_c       5.42281
_cell_angle_alpha    90
_cell_angle_beta     90
_cell_angle_gamma    59.9999

_space_group_name_H-M_alt    "P 1"
_space_group_IT_number       1

loop_
  _space_group_symop_operation_xyz
  'x, y, z'

loop_
  _atom_site_type_symbol
  _atom_site_label
  _atom_site_symmetry_multiplicity
  _atom_site_fract_x
  _atom_site_fract_y
  _atom_site_fract_z
  _atom_site_occupancy
  Mg  Mg1       1.0  0.98800  0.00561  0.00000  1.0000
  Mg  Mg2       1.0  0.57800  0.13100  0.00000  1.0000
  Mg  Mg3       1.0  0.14300  0.28600  0.00000  1.0000
  Mg  Mg4       1.0  0.86300  0.72100  0.00000  1.0000
  Mg  Mg5       1.0  0.37400  0.10800  0.50000  1.0000
  Mg  Mg6       1.0  0.96500  0.23200  0.50000  1.0000
  Mg  Mg7       1.0  0.08960  0.51700  0.50000  1.0000
  Mg  Mg8       1.0  0.81000  0.95200  0.50000  1.0000
  Y   Y1        1.0  0.73200  0.43300  0.00000  1.0000
  Y   Y2        1.0  0.29000  0.55000  0.00000  1.0000
  Y   Y3        1.0  0.40700  0.87500  0.00000  1.0000
  Y   Y4        1.0  0.54500  0.36300  0.50000  1.0000
  Y   Y5        1.0  0.66300  0.68800  0.50000  1.0000
  Y   Y6        1.0  0.22000  0.80600  0.50000  1.0000
