data_image0
_chemical_formula_structural       Mg8W6
_chemical_formula_sum              "Mg8 W6"
_cell_length_a       8.04937
_cell_length_b       8.04832
_cell_length_c       4.68865
_cell_angle_alpha    90
_cell_angle_beta     90
_cell_angle_gamma    59.9922

_space_group_name_H-M_alt    "P 1"
_space_group_IT_number       1

loop_
  _space_group_symop_operation_xyz
  'x, y, z'

loop_
  _atom_site_type_symbol
  _atom_site_label
  _atom_site_symmetry_multiplicity
  _atom_site_fract_x
  _atom_site_fract_y
  _atom_site_fract_z
  _atom_site_occupancy
  Mg  Mg1       1.0  0.56200  0.15700  0.00000  1.0000
  Mg  Mg2       1.0  0.14300  0.28600  0.00000  1.0000
  Mg  Mg3       1.0  0.85300  0.70500  0.00000  1.0000
  Mg  Mg4       1.0  0.01370  0.99600  0.00000  1.0000
  Mg  Mg5       1.0  0.39100  0.08160  0.50000  1.0000
  Mg  Mg6       1.0  0.93900  0.24200  0.50000  1.0000
  Mg  Mg7       1.0  0.09920  0.53300  0.50000  1.0000
  Mg  Mg8       1.0  0.81000  0.95200  0.50000  1.0000
  W   W1        1.0  0.68100  0.45100  0.00000  1.0000
  W   W2        1.0  0.30800  0.58300  0.00000  1.0000
  W   W3        1.0  0.44000  0.82400  0.00000  1.0000
  W   W4        1.0  0.51300  0.41400  0.50000  1.0000
  W   W5        1.0  0.64400  0.65500  0.50000  1.0000
  W   W6        1.0  0.27200  0.78700  0.50000  1.0000
