data_image0
_chemical_formula_structural       Be6Ti8
_chemical_formula_sum              "Be6 Ti8"
_cell_length_a       7.43596
_cell_length_b       7.43601
_cell_length_c       3.94166
_cell_angle_alpha    90
_cell_angle_beta     90
_cell_angle_gamma    60.0017

_space_group_name_H-M_alt    "P 1"
_space_group_IT_number       1

loop_
  _space_group_symop_operation_xyz
  'x, y, z'

loop_
  _atom_site_type_symbol
  _atom_site_label
  _atom_site_symmetry_multiplicity
  _atom_site_fract_x
  _atom_site_fract_y
  _atom_site_fract_z
  _atom_site_occupancy
  Be  Be1       1.0  0.16000  0.25600  0.00000  1.0000
  Be  Be2       1.0  0.29900  0.58900  0.00000  1.0000
  Be  Be3       1.0  0.82700  0.72700  0.00000  1.0000
  Be  Be4       1.0  0.36400  0.12500  0.50000  1.0000
  Be  Be5       1.0  0.69700  0.65400  0.50000  1.0000
  Be  Be6       1.0  0.22500  0.79200  0.50000  1.0000
  Ti  Ti1       1.0  0.52000  0.19300  0.00000  1.0000
  Ti  Ti2       1.0  0.76400  0.43000  0.00000  1.0000
  Ti  Ti3       1.0  0.42900  0.85700  0.00000  1.0000
  Ti  Ti4       1.0  0.00187  0.94800  0.00000  1.0000
  Ti  Ti5       1.0  0.00393  0.18800  0.50000  1.0000
  Ti  Ti6       1.0  0.52200  0.43200  0.50000  1.0000
  Ti  Ti7       1.0  0.09520  0.52400  0.50000  1.0000
  Ti  Ti8       1.0  0.76000  0.95000  0.50000  1.0000
