data_image0
_chemical_formula_structural       Bi3Mg
_chemical_formula_sum              "Bi3 Mg1"
_cell_length_a       3.5065
_cell_length_b       5.97241
_cell_length_c       5.6973
_cell_angle_alpha    90
_cell_angle_beta     90
_cell_angle_gamma    90

_space_group_name_H-M_alt    "P 1"
_space_group_IT_number       1

loop_
  _space_group_symop_operation_xyz
  'x, y, z'

loop_
  _atom_site_type_symbol
  _atom_site_label
  _atom_site_symmetry_multiplicity
  _atom_site_fract_x
  _atom_site_fract_y
  _atom_site_fract_z
  _atom_site_occupancy
  Bi  Bi1       1.0  0.50000  0.50800  0.00000  1.0000
  Bi  Bi2       1.0  0.00000  0.98900  0.00000  1.0000
  Bi  Bi3       1.0  0.50000  0.17000  0.50000  1.0000
  Mg  Mg1       1.0  0.00000  0.66600  0.50000  1.0000
