data_image0
_chemical_formula_structural       As4Co4
_chemical_formula_sum              "As4 Co4"
_cell_length_a       5.27508
_cell_length_b       5.77768
_cell_length_c       3.45469
_cell_angle_alpha    90
_cell_angle_beta     90
_cell_angle_gamma    90

_space_group_name_H-M_alt    "P 1"
_space_group_IT_number       1

loop_
  _space_group_symop_operation_xyz
  'x, y, z'

loop_
  _atom_site_type_symbol
  _atom_site_label
  _atom_site_symmetry_multiplicity
  _atom_site_fract_x
  _atom_site_fract_y
  _atom_site_fract_z
  _atom_site_occupancy
  As  As1       1.0  0.69800  0.91100  0.26100  1.0000
  As  As2       1.0  0.30200  0.08850  0.76100  1.0000
  As  As3       1.0  0.80200  0.41100  0.76100  1.0000
  As  As4       1.0  0.19800  0.58900  0.26100  1.0000
  Co  Co1       1.0  0.49700  0.69600  0.76100  1.0000
  Co  Co2       1.0  0.99700  0.80400  0.76100  1.0000
  Co  Co3       1.0  0.00256  0.19600  0.26100  1.0000
  Co  Co4       1.0  0.50300  0.30400  0.26100  1.0000
