data_image0
_chemical_formula_structural       Mg8Th6
_chemical_formula_sum              "Mg8 Th6"
_cell_length_a       9.10592
_cell_length_b       9.10547
_cell_length_c       5.42151
_cell_angle_alpha    90
_cell_angle_beta     90
_cell_angle_gamma    60.0276

_space_group_name_H-M_alt    "P 1"
_space_group_IT_number       1

loop_
  _space_group_symop_operation_xyz
  'x, y, z'

loop_
  _atom_site_type_symbol
  _atom_site_label
  _atom_site_symmetry_multiplicity
  _atom_site_fract_x
  _atom_site_fract_y
  _atom_site_fract_z
  _atom_site_occupancy
  Mg  Mg1       1.0  0.98700  0.01320  0.00000  1.0000
  Mg  Mg2       1.0  0.58500  0.14200  0.00000  1.0000
  Mg  Mg3       1.0  0.71400  0.41600  0.00000  1.0000
  Mg  Mg4       1.0  0.42900  0.85700  0.00000  1.0000
  Mg  Mg5       1.0  0.93900  0.23900  0.50000  1.0000
  Mg  Mg6       1.0  0.53700  0.36800  0.50000  1.0000
  Mg  Mg7       1.0  0.09520  0.52400  0.50000  1.0000
  Mg  Mg8       1.0  0.81000  0.96500  0.50000  1.0000
  Th  Th1       1.0  0.13400  0.29000  0.00000  1.0000
  Th  Th2       1.0  0.29100  0.56200  0.00000  1.0000
  Th  Th3       1.0  0.86100  0.72000  0.00000  1.0000
  Th  Th4       1.0  0.39000  0.09130  0.50000  1.0000
  Th  Th5       1.0  0.66300  0.66100  0.50000  1.0000
  Th  Th6       1.0  0.23300  0.81900  0.50000  1.0000
