data_image0
_chemical_formula_structural       B6Ti8
_chemical_formula_sum              "B6 Ti8"
_cell_length_a       7.8503
_cell_length_b       7.84954
_cell_length_c       3.10052
_cell_angle_alpha    90
_cell_angle_beta     90
_cell_angle_gamma    59.9656

_space_group_name_H-M_alt    "P 1"
_space_group_IT_number       1

loop_
  _space_group_symop_operation_xyz
  'x, y, z'

loop_
  _atom_site_type_symbol
  _atom_site_label
  _atom_site_symmetry_multiplicity
  _atom_site_fract_x
  _atom_site_fract_y
  _atom_site_fract_z
  _atom_site_occupancy
  B   B1        1.0  0.19400  0.23200  0.00000  1.0000
  B   B2        1.0  0.28800  0.62300  0.00000  1.0000
  B   B3        1.0  0.80400  0.71600  0.00000  1.0000
  B   B4        1.0  0.33000  0.14900  0.50000  1.0000
  B   B5        1.0  0.72000  0.66500  0.50000  1.0000
  B   B6        1.0  0.23600  0.75800  0.50000  1.0000
  Ti  Ti1       1.0  0.46300  0.26700  0.00000  1.0000
  Ti  Ti2       1.0  0.83900  0.41300  0.00000  1.0000
  Ti  Ti3       1.0  0.42900  0.85700  0.00000  1.0000
  Ti  Ti4       1.0  0.98400  0.89200  0.00000  1.0000
  Ti  Ti5       1.0  0.06120  0.11300  0.50000  1.0000
  Ti  Ti6       1.0  0.54000  0.48900  0.50000  1.0000
  Ti  Ti7       1.0  0.09520  0.52400  0.50000  1.0000
  Ti  Ti8       1.0  0.68500  0.96800  0.50000  1.0000
