data_image0
_chemical_formula_structural       Mg8Zr6
_chemical_formula_sum              "Mg8 Zr6"
_cell_length_a       8.47509
_cell_length_b       8.47513
_cell_length_c       5.13371
_cell_angle_alpha    90
_cell_angle_beta     90
_cell_angle_gamma    59.9999

_space_group_name_H-M_alt    "P 1"
_space_group_IT_number       1

loop_
  _space_group_symop_operation_xyz
  'x, y, z'

loop_
  _atom_site_type_symbol
  _atom_site_label
  _atom_site_symmetry_multiplicity
  _atom_site_fract_x
  _atom_site_fract_y
  _atom_site_fract_z
  _atom_site_occupancy
  Mg  Mg1       1.0  0.00286  0.00036  0.00000  1.0000
  Mg  Mg2       1.0  0.56800  0.14600  0.00000  1.0000
  Mg  Mg3       1.0  0.14300  0.28600  0.00000  1.0000
  Mg  Mg4       1.0  0.85800  0.71100  0.00000  1.0000
  Mg  Mg5       1.0  0.38400  0.09240  0.50000  1.0000
  Mg  Mg6       1.0  0.95000  0.23800  0.50000  1.0000
  Mg  Mg7       1.0  0.09490  0.52700  0.50000  1.0000
  Mg  Mg8       1.0  0.81000  0.95200  0.50000  1.0000
  Zr  Zr1       1.0  0.70800  0.43600  0.00000  1.0000
  Zr  Zr2       1.0  0.29300  0.57100  0.00000  1.0000
  Zr  Zr3       1.0  0.42800  0.85100  0.00000  1.0000
  Zr  Zr4       1.0  0.52400  0.38800  0.50000  1.0000
  Zr  Zr5       1.0  0.66000  0.66700  0.50000  1.0000
  Zr  Zr6       1.0  0.24500  0.80200  0.50000  1.0000
