data_image0
_chemical_formula_structural       Au6Ti8
_chemical_formula_sum              "Au6 Ti8"
_cell_length_a       7.66177
_cell_length_b       7.66321
_cell_length_c       4.7161
_cell_angle_alpha    90
_cell_angle_beta     90
_cell_angle_gamma    59.9867

_space_group_name_H-M_alt    "P 1"
_space_group_IT_number       1

loop_
  _space_group_symop_operation_xyz
  'x, y, z'

loop_
  _atom_site_type_symbol
  _atom_site_label
  _atom_site_symmetry_multiplicity
  _atom_site_fract_x
  _atom_site_fract_y
  _atom_site_fract_z
  _atom_site_occupancy
  Au  Au1       1.0  0.73300  0.41600  0.00000  1.0000
  Au  Au2       1.0  0.27300  0.56600  0.00000  1.0000
  Au  Au3       1.0  0.42300  0.87600  0.00000  1.0000
  Au  Au4       1.0  0.53000  0.36200  0.50000  1.0000
  Au  Au5       1.0  0.67900  0.67200  0.50000  1.0000
  Au  Au6       1.0  0.22000  0.82200  0.50000  1.0000
  Ti  Ti1       1.0  0.58600  0.14500  0.00000  1.0000
  Ti  Ti2       1.0  0.14300  0.28600  0.00000  1.0000
  Ti  Ti3       1.0  0.84000  0.72900  0.00000  1.0000
  Ti  Ti4       1.0  0.00238  0.98300  0.00000  1.0000
  Ti  Ti5       1.0  0.36600  0.09270  0.50000  1.0000
  Ti  Ti6       1.0  0.95000  0.25500  0.50000  1.0000
  Ti  Ti7       1.0  0.11200  0.50900  0.50000  1.0000
  Ti  Ti8       1.0  0.81000  0.95200  0.50000  1.0000
