data_image0
_chemical_formula_structural       Mg8Pa6
_chemical_formula_sum              "Mg8 Pa6"
_cell_length_a       8.64905
_cell_length_b       8.64806
_cell_length_c       5.29726
_cell_angle_alpha    90
_cell_angle_beta     90
_cell_angle_gamma    60.0092

_space_group_name_H-M_alt    "P 1"
_space_group_IT_number       1

loop_
  _space_group_symop_operation_xyz
  'x, y, z'

loop_
  _atom_site_type_symbol
  _atom_site_label
  _atom_site_symmetry_multiplicity
  _atom_site_fract_x
  _atom_site_fract_y
  _atom_site_fract_z
  _atom_site_occupancy
  Mg  Mg1       1.0  0.98600  0.01200  0.00000  1.0000
  Mg  Mg2       1.0  0.57400  0.12800  0.00000  1.0000
  Mg  Mg3       1.0  0.14300  0.28600  0.00000  1.0000
  Mg  Mg4       1.0  0.86900  0.71700  0.00000  1.0000
  Mg  Mg5       1.0  0.37900  0.11000  0.50000  1.0000
  Mg  Mg6       1.0  0.96700  0.22600  0.50000  1.0000
  Mg  Mg7       1.0  0.08320  0.52100  0.50000  1.0000
  Mg  Mg8       1.0  0.80900  0.95200  0.50000  1.0000
  Pa  Pa1       1.0  0.69600  0.45000  0.00000  1.0000
  Pa  Pa2       1.0  0.30700  0.56900  0.00000  1.0000
  Pa  Pa3       1.0  0.42600  0.83800  0.00000  1.0000
  Pa  Pa4       1.0  0.52600  0.40000  0.50000  1.0000
  Pa  Pa5       1.0  0.64600  0.66900  0.50000  1.0000
  Pa  Pa6       1.0  0.25700  0.78900  0.50000  1.0000
