data_image0
_chemical_formula_structural       Er6Ti8
_chemical_formula_sum              "Er6 Ti8"
_cell_length_a       8.54579
_cell_length_b       8.54837
_cell_length_c       4.88553
_cell_angle_alpha    90
_cell_angle_beta     90
_cell_angle_gamma    60.0121

_space_group_name_H-M_alt    "P 1"
_space_group_IT_number       1

loop_
  _space_group_symop_operation_xyz
  'x, y, z'

loop_
  _atom_site_type_symbol
  _atom_site_label
  _atom_site_symmetry_multiplicity
  _atom_site_fract_x
  _atom_site_fract_y
  _atom_site_fract_z
  _atom_site_occupancy
  Er  Er1       1.0  0.74700  0.41700  0.00000  1.0000
  Er  Er2       1.0  0.27400  0.55000  0.00000  1.0000
  Er  Er3       1.0  0.40700  0.89000  0.00000  1.0000
  Er  Er4       1.0  0.54500  0.34800  0.50000  1.0000
  Er  Er5       1.0  0.67900  0.68800  0.50000  1.0000
  Er  Er6       1.0  0.20500  0.82100  0.50000  1.0000
  Ti  Ti1       1.0  0.96100  0.01380  0.00000  1.0000
  Ti  Ti2       1.0  0.59600  0.10400  0.00000  1.0000
  Ti  Ti3       1.0  0.14300  0.28600  0.00000  1.0000
  Ti  Ti4       1.0  0.87100  0.73900  0.00000  1.0000
  Ti  Ti5       1.0  0.35600  0.13400  0.50000  1.0000
  Ti  Ti6       1.0  0.99100  0.22400  0.50000  1.0000
  Ti  Ti7       1.0  0.08130  0.49900  0.50000  1.0000
  Ti  Ti8       1.0  0.80900  0.95200  0.50000  1.0000
