data_image0
_chemical_formula_structural       Gd6Ti8
_chemical_formula_sum              "Gd6 Ti8"
_cell_length_a       8.65938
_cell_length_b       8.66013
_cell_length_c       4.97431
_cell_angle_alpha    90
_cell_angle_beta     90
_cell_angle_gamma    60.0008

_space_group_name_H-M_alt    "P 1"
_space_group_IT_number       1

loop_
  _space_group_symop_operation_xyz
  'x, y, z'

loop_
  _atom_site_type_symbol
  _atom_site_label
  _atom_site_symmetry_multiplicity
  _atom_site_fract_x
  _atom_site_fract_y
  _atom_site_fract_z
  _atom_site_occupancy
  Gd  Gd1       1.0  0.11700  0.28500  0.00000  1.0000
  Gd  Gd2       1.0  0.31300  0.54500  0.00000  1.0000
  Gd  Gd3       1.0  0.85600  0.74100  0.00000  1.0000
  Gd  Gd4       1.0  0.40700  0.09550  0.50000  1.0000
  Gd  Gd5       1.0  0.66700  0.64000  0.50000  1.0000
  Gd  Gd6       1.0  0.21200  0.83600  0.50000  1.0000
  Ti  Ti1       1.0  0.96700  0.03340  0.00000  1.0000
  Ti  Ti2       1.0  0.60500  0.14200  0.00000  1.0000
  Ti  Ti3       1.0  0.71400  0.39600  0.00000  1.0000
  Ti  Ti4       1.0  0.42900  0.85700  0.00000  1.0000
  Ti  Ti5       1.0  0.91900  0.23900  0.50000  1.0000
  Ti  Ti6       1.0  0.55700  0.34700  0.50000  1.0000
  Ti  Ti7       1.0  0.09520  0.52400  0.50000  1.0000
  Ti  Ti8       1.0  0.81000  0.98500  0.50000  1.0000
