data_image0
_chemical_formula_structural       Ac6Ti8
_chemical_formula_sum              "Ac6 Ti8"
_cell_length_a       9.45284
_cell_length_b       9.45258
_cell_length_c       5.11403
_cell_angle_alpha    90
_cell_angle_beta     90
_cell_angle_gamma    59.9712

_space_group_name_H-M_alt    "P 1"
_space_group_IT_number       1

loop_
  _space_group_symop_operation_xyz
  'x, y, z'

loop_
  _atom_site_type_symbol
  _atom_site_label
  _atom_site_symmetry_multiplicity
  _atom_site_fract_x
  _atom_site_fract_y
  _atom_site_fract_z
  _atom_site_occupancy
  Ac  Ac1       1.0  0.09890  0.28600  0.00000  1.0000
  Ac  Ac2       1.0  0.32900  0.52700  0.00000  1.0000
  Ac  Ac3       1.0  0.85800  0.75800  0.00000  1.0000
  Ac  Ac4       1.0  0.42500  0.09450  0.50000  1.0000
  Ac  Ac5       1.0  0.66600  0.62300  0.50000  1.0000
  Ac  Ac6       1.0  0.19400  0.85400  0.50000  1.0000
  Ti  Ti1       1.0  0.94400  0.05470  0.00000  1.0000
  Ti  Ti2       1.0  0.62600  0.14400  0.00000  1.0000
  Ti  Ti3       1.0  0.71500  0.37300  0.00000  1.0000
  Ti  Ti4       1.0  0.42900  0.85700  0.00000  1.0000
  Ti  Ti5       1.0  0.80900  0.00792  0.50000  1.0000
  Ti  Ti6       1.0  0.89800  0.23700  0.50000  1.0000
  Ti  Ti7       1.0  0.57900  0.32600  0.50000  1.0000
  Ti  Ti8       1.0  0.09520  0.52400  0.50000  1.0000
