data_image0
_chemical_formula_structural       Mg8Tc6
_chemical_formula_sum              "Mg8 Tc6"
_cell_length_a       7.81044
_cell_length_b       7.81079
_cell_length_c       4.67403
_cell_angle_alpha    90
_cell_angle_beta     90
_cell_angle_gamma    59.9907

_space_group_name_H-M_alt    "P 1"
_space_group_IT_number       1

loop_
  _space_group_symop_operation_xyz
  'x, y, z'

loop_
  _atom_site_type_symbol
  _atom_site_label
  _atom_site_symmetry_multiplicity
  _atom_site_fract_x
  _atom_site_fract_y
  _atom_site_fract_z
  _atom_site_occupancy
  Mg  Mg1       1.0  0.56200  0.16400  0.00000  1.0000
  Mg  Mg2       1.0  0.14300  0.28600  0.00000  1.0000
  Mg  Mg3       1.0  0.84500  0.70400  0.00000  1.0000
  Mg  Mg4       1.0  0.02160  0.98800  0.00000  1.0000
  Mg  Mg5       1.0  0.39100  0.07360  0.50000  1.0000
  Mg  Mg6       1.0  0.93100  0.25000  0.50000  1.0000
  Mg  Mg7       1.0  0.10700  0.53400  0.50000  1.0000
  Mg  Mg8       1.0  0.81000  0.95200  0.50000  1.0000
  Tc  Tc1       1.0  0.68000  0.45000  0.00000  1.0000
  Tc  Tc2       1.0  0.30700  0.58400  0.00000  1.0000
  Tc  Tc3       1.0  0.44100  0.82300  0.00000  1.0000
  Tc  Tc4       1.0  0.51100  0.41500  0.50000  1.0000
  Tc  Tc5       1.0  0.64500  0.65400  0.50000  1.0000
  Tc  Tc6       1.0  0.27200  0.78800  0.50000  1.0000
