data_image0
_chemical_formula_structural       Dy6Ti8
_chemical_formula_sum              "Dy6 Ti8"
_cell_length_a       8.60507
_cell_length_b       8.60835
_cell_length_c       4.88356
_cell_angle_alpha    90
_cell_angle_beta     90
_cell_angle_gamma    59.9872

_space_group_name_H-M_alt    "P 1"
_space_group_IT_number       1

loop_
  _space_group_symop_operation_xyz
  'x, y, z'

loop_
  _atom_site_type_symbol
  _atom_site_label
  _atom_site_symmetry_multiplicity
  _atom_site_fract_x
  _atom_site_fract_y
  _atom_site_fract_z
  _atom_site_occupancy
  Dy  Dy1       1.0  0.75000  0.41600  0.00000  1.0000
  Dy  Dy2       1.0  0.27300  0.54800  0.00000  1.0000
  Dy  Dy3       1.0  0.40500  0.89300  0.00000  1.0000
  Dy  Dy4       1.0  0.54700  0.34500  0.50000  1.0000
  Dy  Dy5       1.0  0.67900  0.69000  0.50000  1.0000
  Dy  Dy6       1.0  0.20200  0.82200  0.50000  1.0000
  Ti  Ti1       1.0  0.95700  0.01630  0.00000  1.0000
  Ti  Ti2       1.0  0.59700  0.10000  0.00000  1.0000
  Ti  Ti3       1.0  0.14300  0.28600  0.00000  1.0000
  Ti  Ti4       1.0  0.87300  0.74000  0.00000  1.0000
  Ti  Ti5       1.0  0.35500  0.13800  0.50000  1.0000
  Ti  Ti6       1.0  0.99500  0.22200  0.50000  1.0000
  Ti  Ti7       1.0  0.07870  0.49800  0.50000  1.0000
  Ti  Ti8       1.0  0.80900  0.95200  0.50000  1.0000
