data_image0
_chemical_formula_structural       Cr6Ti8
_chemical_formula_sum              "Cr6 Ti8"
_cell_length_a       7.57009
_cell_length_b       7.56924
_cell_length_c       4.06464
_cell_angle_alpha    90
_cell_angle_beta     90
_cell_angle_gamma    60.0017

_space_group_name_H-M_alt    "P 1"
_space_group_IT_number       1

loop_
  _space_group_symop_operation_xyz
  'x, y, z'

loop_
  _atom_site_type_symbol
  _atom_site_label
  _atom_site_symmetry_multiplicity
  _atom_site_fract_x
  _atom_site_fract_y
  _atom_site_fract_z
  _atom_site_occupancy
  Cr  Cr1       1.0  0.18600  0.28300  0.00000  1.0000
  Cr  Cr2       1.0  0.24500  0.61500  0.00000  1.0000
  Cr  Cr3       1.0  0.85400  0.67300  0.00000  1.0000
  Cr  Cr4       1.0  0.33700  0.09790  0.50000  1.0000
  Cr  Cr5       1.0  0.66900  0.70800  0.50000  1.0000
  Cr  Cr6       1.0  0.27900  0.76600  0.50000  1.0000
  Ti  Ti1       1.0  0.03620  0.02670  0.00000  1.0000
  Ti  Ti2       1.0  0.59800  0.07990  0.00000  1.0000
  Ti  Ti3       1.0  0.65100  0.46500  0.00000  1.0000
  Ti  Ti4       1.0  0.42800  0.85700  0.00000  1.0000
  Ti  Ti5       1.0  0.92600  0.30100  0.50000  1.0000
  Ti  Ti6       1.0  0.48800  0.35400  0.50000  1.0000
  Ti  Ti7       1.0  0.09520  0.52400  0.50000  1.0000
  Ti  Ti8       1.0  0.87200  0.91600  0.50000  1.0000
