data_image0
_chemical_formula_structural       Ho6Ti8
_chemical_formula_sum              "Ho6 Ti8"
_cell_length_a       8.57561
_cell_length_b       8.57565
_cell_length_c       4.94606
_cell_angle_alpha    90
_cell_angle_beta     90
_cell_angle_gamma    60.0005

_space_group_name_H-M_alt    "P 1"
_space_group_IT_number       1

loop_
  _space_group_symop_operation_xyz
  'x, y, z'

loop_
  _atom_site_type_symbol
  _atom_site_label
  _atom_site_symmetry_multiplicity
  _atom_site_fract_x
  _atom_site_fract_y
  _atom_site_fract_z
  _atom_site_occupancy
  Ho  Ho1       1.0  0.11900  0.28500  0.00000  1.0000
  Ho  Ho2       1.0  0.31000  0.54800  0.00000  1.0000
  Ho  Ho3       1.0  0.85600  0.73900  0.00000  1.0000
  Ho  Ho4       1.0  0.40500  0.09630  0.50000  1.0000
  Ho  Ho5       1.0  0.66800  0.64200  0.50000  1.0000
  Ho  Ho6       1.0  0.21300  0.83300  0.50000  1.0000
  Ti  Ti1       1.0  0.97100  0.02950  0.00000  1.0000
  Ti  Ti2       1.0  0.60100  0.14300  0.00000  1.0000
  Ti  Ti3       1.0  0.71400  0.39900  0.00000  1.0000
  Ti  Ti4       1.0  0.42900  0.85700  0.00000  1.0000
  Ti  Ti5       1.0  0.92300  0.23800  0.50000  1.0000
  Ti  Ti6       1.0  0.55300  0.35200  0.50000  1.0000
  Ti  Ti7       1.0  0.09520  0.52400  0.50000  1.0000
  Ti  Ti8       1.0  0.81000  0.98200  0.50000  1.0000
