data_image0
_chemical_formula_structural       Mg8Pu6
_chemical_formula_sum              "Mg8 Pu6"
_cell_length_a       8.76549
_cell_length_b       8.7639
_cell_length_c       5.26172
_cell_angle_alpha    90
_cell_angle_beta     90
_cell_angle_gamma    59.9803

_space_group_name_H-M_alt    "P 1"
_space_group_IT_number       1

loop_
  _space_group_symop_operation_xyz
  'x, y, z'

loop_
  _atom_site_type_symbol
  _atom_site_label
  _atom_site_symmetry_multiplicity
  _atom_site_fract_x
  _atom_site_fract_y
  _atom_site_fract_z
  _atom_site_occupancy
  Mg  Mg1       1.0  0.00000  0.01430  0.00000  1.0000
  Mg  Mg2       1.0  0.58600  0.12900  0.00000  1.0000
  Mg  Mg3       1.0  0.70000  0.42800  0.00000  1.0000
  Mg  Mg4       1.0  0.42900  0.85700  0.00000  1.0000
  Mg  Mg5       1.0  0.93800  0.25200  0.50000  1.0000
  Mg  Mg6       1.0  0.52400  0.36700  0.50000  1.0000
  Mg  Mg7       1.0  0.09520  0.52400  0.50000  1.0000
  Mg  Mg8       1.0  0.82300  0.95300  0.50000  1.0000
  Pu  Pu1       1.0  0.16000  0.28500  0.00000  1.0000
  Pu  Pu2       1.0  0.26900  0.58900  0.00000  1.0000
  Pu  Pu3       1.0  0.85700  0.69700  0.00000  1.0000
  Pu  Pu4       1.0  0.36400  0.09560  0.50000  1.0000
  Pu  Pu5       1.0  0.66700  0.68300  0.50000  1.0000
  Pu  Pu6       1.0  0.25500  0.79200  0.50000  1.0000
