data_image0
_chemical_formula_structural       Hg6Ti8
_chemical_formula_sum              "Hg6 Ti8"
_cell_length_a       7.87936
_cell_length_b       7.87796
_cell_length_c       4.8281
_cell_angle_alpha    90
_cell_angle_beta     90
_cell_angle_gamma    60.002

_space_group_name_H-M_alt    "P 1"
_space_group_IT_number       1

loop_
  _space_group_symop_operation_xyz
  'x, y, z'

loop_
  _atom_site_type_symbol
  _atom_site_label
  _atom_site_symmetry_multiplicity
  _atom_site_fract_x
  _atom_site_fract_y
  _atom_site_fract_z
  _atom_site_occupancy
  Hg  Hg1       1.0  0.13800  0.27900  0.00000  1.0000
  Hg  Hg2       1.0  0.29800  0.56600  0.00000  1.0000
  Hg  Hg3       1.0  0.85000  0.72600  0.00000  1.0000
  Hg  Hg4       1.0  0.38600  0.10200  0.50000  1.0000
  Hg  Hg5       1.0  0.67400  0.65500  0.50000  1.0000
  Hg  Hg6       1.0  0.22600  0.81500  0.50000  1.0000
  Ti  Ti1       1.0  0.98600  0.00669  0.00000  1.0000
  Ti  Ti2       1.0  0.57800  0.15000  0.00000  1.0000
  Ti  Ti3       1.0  0.72100  0.41500  0.00000  1.0000
  Ti  Ti4       1.0  0.42800  0.85700  0.00000  1.0000
  Ti  Ti5       1.0  0.94600  0.23100  0.50000  1.0000
  Ti  Ti6       1.0  0.53700  0.37400  0.50000  1.0000
  Ti  Ti7       1.0  0.09530  0.52400  0.50000  1.0000
  Ti  Ti8       1.0  0.80300  0.96600  0.50000  1.0000
