data_image0
_chemical_formula_structural       Li6Ti8
_chemical_formula_sum              "Li6 Ti8"
_cell_length_a       7.74922
_cell_length_b       7.74527
_cell_length_c       4.48554
_cell_angle_alpha    90
_cell_angle_beta     90
_cell_angle_gamma    59.965

_space_group_name_H-M_alt    "P 1"
_space_group_IT_number       1

loop_
  _space_group_symop_operation_xyz
  'x, y, z'

loop_
  _atom_site_type_symbol
  _atom_site_label
  _atom_site_symmetry_multiplicity
  _atom_site_fract_x
  _atom_site_fract_y
  _atom_site_fract_z
  _atom_site_occupancy
  Li  Li1       1.0  0.71500  0.43500  0.00000  1.0000
  Li  Li2       1.0  0.29200  0.56400  0.00000  1.0000
  Li  Li3       1.0  0.42100  0.85700  0.00000  1.0000
  Li  Li4       1.0  0.53100  0.38100  0.50000  1.0000
  Li  Li5       1.0  0.66000  0.67400  0.50000  1.0000
  Li  Li6       1.0  0.23800  0.80300  0.50000  1.0000
  Ti  Ti1       1.0  0.98700  0.00107  0.00000  1.0000
  Ti  Ti2       1.0  0.58300  0.13000  0.00000  1.0000
  Ti  Ti3       1.0  0.14300  0.28600  0.00000  1.0000
  Ti  Ti4       1.0  0.85800  0.72600  0.00000  1.0000
  Ti  Ti5       1.0  0.36900  0.10800  0.50000  1.0000
  Ti  Ti6       1.0  0.96500  0.23700  0.50000  1.0000
  Ti  Ti7       1.0  0.09410  0.51200  0.50000  1.0000
  Ti  Ti8       1.0  0.81000  0.95200  0.50000  1.0000
