data_image0
_chemical_formula_structural       Hf6Ti8
_chemical_formula_sum              "Hf6 Ti8"
_cell_length_a       8.07988
_cell_length_b       8.08
_cell_length_c       4.79455
_cell_angle_alpha    90
_cell_angle_beta     90
_cell_angle_gamma    59.9971

_space_group_name_H-M_alt    "P 1"
_space_group_IT_number       1

loop_
  _space_group_symop_operation_xyz
  'x, y, z'

loop_
  _atom_site_type_symbol
  _atom_site_label
  _atom_site_symmetry_multiplicity
  _atom_site_fract_x
  _atom_site_fract_y
  _atom_site_fract_z
  _atom_site_occupancy
  Hf  Hf1       1.0  0.13100  0.28600  0.00000  1.0000
  Hf  Hf2       1.0  0.29700  0.56000  0.00000  1.0000
  Hf  Hf3       1.0  0.85700  0.72600  0.00000  1.0000
  Hf  Hf4       1.0  0.39300  0.09510  0.50000  1.0000
  Hf  Hf5       1.0  0.66700  0.65500  0.50000  1.0000
  Hf  Hf6       1.0  0.22700  0.82100  0.50000  1.0000
  Ti  Ti1       1.0  0.98800  0.01110  0.00000  1.0000
  Ti  Ti2       1.0  0.58300  0.14400  0.00000  1.0000
  Ti  Ti3       1.0  0.71600  0.41600  0.00000  1.0000
  Ti  Ti4       1.0  0.42900  0.85700  0.00000  1.0000
  Ti  Ti5       1.0  0.94100  0.23700  0.50000  1.0000
  Ti  Ti6       1.0  0.53600  0.37000  0.50000  1.0000
  Ti  Ti7       1.0  0.09520  0.52400  0.50000  1.0000
  Ti  Ti8       1.0  0.80800  0.96500  0.50000  1.0000
