data_image0
_chemical_formula_structural       Cd6Ti8
_chemical_formula_sum              "Cd6 Ti8"
_cell_length_a       7.8746
_cell_length_b       7.87476
_cell_length_c       4.82738
_cell_angle_alpha    90
_cell_angle_beta     90
_cell_angle_gamma    60.0004

_space_group_name_H-M_alt    "P 1"
_space_group_IT_number       1

loop_
  _space_group_symop_operation_xyz
  'x, y, z'

loop_
  _atom_site_type_symbol
  _atom_site_label
  _atom_site_symmetry_multiplicity
  _atom_site_fract_x
  _atom_site_fract_y
  _atom_site_fract_z
  _atom_site_occupancy
  Cd  Cd1       1.0  0.14300  0.28200  0.00000  1.0000
  Cd  Cd2       1.0  0.28900  0.57200  0.00000  1.0000
  Cd  Cd3       1.0  0.85300  0.71800  0.00000  1.0000
  Cd  Cd4       1.0  0.38100  0.09890  0.50000  1.0000
  Cd  Cd5       1.0  0.67000  0.66300  0.50000  1.0000
  Cd  Cd6       1.0  0.23500  0.80900  0.50000  1.0000
  Ti  Ti1       1.0  0.98600  0.00818  0.00000  1.0000
  Ti  Ti2       1.0  0.58000  0.14900  0.00000  1.0000
  Ti  Ti3       1.0  0.72000  0.41500  0.00000  1.0000
  Ti  Ti4       1.0  0.42900  0.85700  0.00000  1.0000
  Ti  Ti5       1.0  0.94400  0.23200  0.50000  1.0000
  Ti  Ti6       1.0  0.53800  0.37300  0.50000  1.0000
  Ti  Ti7       1.0  0.09520  0.52400  0.50000  1.0000
  Ti  Ti8       1.0  0.80400  0.96600  0.50000  1.0000
