data_image0
_chemical_formula_structural       Co4U4
_chemical_formula_sum              "Co4 U4"
_cell_length_a       5.45252
_cell_length_b       5.45252
_cell_length_c       5.45252
_cell_angle_alpha    109.471
_cell_angle_beta     109.471
_cell_angle_gamma    109.471

_space_group_name_H-M_alt    "P 1"
_space_group_IT_number       1

loop_
  _space_group_symop_operation_xyz
  'x, y, z'

loop_
  _atom_site_type_symbol
  _atom_site_label
  _atom_site_symmetry_multiplicity
  _atom_site_fract_x
  _atom_site_fract_y
  _atom_site_fract_z
  _atom_site_occupancy
  Co  Co1       1.0  0.00000  0.59400  0.00000  1.0000
  Co  Co2       1.0  0.50000  0.00000  0.09420  1.0000
  Co  Co3       1.0  0.90600  0.90600  0.40600  1.0000
  Co  Co4       1.0  0.59400  0.50000  0.50000  1.0000
  U   U1        1.0  0.00000  0.06830  0.00000  1.0000
  U   U2        1.0  0.06830  0.50000  0.50000  1.0000
  U   U3        1.0  0.50000  0.00000  0.56800  1.0000
  U   U4        1.0  0.43200  0.43200  0.93200  1.0000
