data_image0
_chemical_formula_structural       Ag6Ti8
_chemical_formula_sum              "Ag6 Ti8"
_cell_length_a       7.72241
_cell_length_b       7.72319
_cell_length_c       4.64362
_cell_angle_alpha    90
_cell_angle_beta     90
_cell_angle_gamma    60.0021

_space_group_name_H-M_alt    "P 1"
_space_group_IT_number       1

loop_
  _space_group_symop_operation_xyz
  'x, y, z'

loop_
  _atom_site_type_symbol
  _atom_site_label
  _atom_site_symmetry_multiplicity
  _atom_site_fract_x
  _atom_site_fract_y
  _atom_site_fract_z
  _atom_site_occupancy
  Ag  Ag1       1.0  0.72000  0.42800  0.00000  1.0000
  Ag  Ag2       1.0  0.28500  0.56600  0.00000  1.0000
  Ag  Ag3       1.0  0.42300  0.86300  0.00000  1.0000
  Ag  Ag4       1.0  0.52900  0.37500  0.50000  1.0000
  Ag  Ag5       1.0  0.66800  0.67200  0.50000  1.0000
  Ag  Ag6       1.0  0.23200  0.81000  0.50000  1.0000
  Ti  Ti1       1.0  0.58600  0.13600  0.00000  1.0000
  Ti  Ti2       1.0  0.14300  0.28600  0.00000  1.0000
  Ti  Ti3       1.0  0.85000  0.72900  0.00000  1.0000
  Ti  Ti4       1.0  0.99300  0.99300  0.00000  1.0000
  Ti  Ti5       1.0  0.36700  0.10200  0.50000  1.0000
  Ti  Ti6       1.0  0.95900  0.24600  0.50000  1.0000
  Ti  Ti7       1.0  0.10300  0.51000  0.50000  1.0000
  Ti  Ti8       1.0  0.81000  0.95200  0.50000  1.0000
