data_image0
_chemical_formula_structural       Lu6Ti8
_chemical_formula_sum              "Lu6 Ti8"
_cell_length_a       8.45623
_cell_length_b       8.45586
_cell_length_c       4.882
_cell_angle_alpha    90
_cell_angle_beta     90
_cell_angle_gamma    60.0091

_space_group_name_H-M_alt    "P 1"
_space_group_IT_number       1

loop_
  _space_group_symop_operation_xyz
  'x, y, z'

loop_
  _atom_site_type_symbol
  _atom_site_label
  _atom_site_symmetry_multiplicity
  _atom_site_fract_x
  _atom_site_fract_y
  _atom_site_fract_z
  _atom_site_occupancy
  Lu  Lu1       1.0  0.74300  0.41800  0.00000  1.0000
  Lu  Lu2       1.0  0.27500  0.55300  0.00000  1.0000
  Lu  Lu3       1.0  0.41000  0.88600  0.00000  1.0000
  Lu  Lu4       1.0  0.54200  0.35200  0.50000  1.0000
  Lu  Lu5       1.0  0.67800  0.68500  0.50000  1.0000
  Lu  Lu6       1.0  0.20900  0.82000  0.50000  1.0000
  Ti  Ti1       1.0  0.96600  0.01110  0.00000  1.0000
  Ti  Ti2       1.0  0.59400  0.10900  0.00000  1.0000
  Ti  Ti3       1.0  0.14300  0.28600  0.00000  1.0000
  Ti  Ti4       1.0  0.86800  0.73700  0.00000  1.0000
  Ti  Ti5       1.0  0.35800  0.12900  0.50000  1.0000
  Ti  Ti6       1.0  0.98600  0.22700  0.50000  1.0000
  Ti  Ti7       1.0  0.08410  0.50100  0.50000  1.0000
  Ti  Ti8       1.0  0.80900  0.95200  0.50000  1.0000
