data_image0
_chemical_formula_structural       Ir6Ti8
_chemical_formula_sum              "Ir6 Ti8"
_cell_length_a       7.35984
_cell_length_b       7.35955
_cell_length_c       4.58294
_cell_angle_alpha    90
_cell_angle_beta     90
_cell_angle_gamma    60.0021

_space_group_name_H-M_alt    "P 1"
_space_group_IT_number       1

loop_
  _space_group_symop_operation_xyz
  'x, y, z'

loop_
  _atom_site_type_symbol
  _atom_site_label
  _atom_site_symmetry_multiplicity
  _atom_site_fract_x
  _atom_site_fract_y
  _atom_site_fract_z
  _atom_site_occupancy
  Ir  Ir1       1.0  0.72500  0.42000  0.00000  1.0000
  Ir  Ir2       1.0  0.27700  0.56900  0.00000  1.0000
  Ir  Ir3       1.0  0.42600  0.86800  0.00000  1.0000
  Ir  Ir4       1.0  0.52600  0.37000  0.50000  1.0000
  Ir  Ir5       1.0  0.67500  0.66900  0.50000  1.0000
  Ir  Ir6       1.0  0.22700  0.81800  0.50000  1.0000
  Ti  Ti1       1.0  0.57800  0.16400  0.00000  1.0000
  Ti  Ti2       1.0  0.14300  0.28600  0.00000  1.0000
  Ti  Ti3       1.0  0.83000  0.72000  0.00000  1.0000
  Ti  Ti4       1.0  0.02130  0.97200  0.00000  1.0000
  Ti  Ti5       1.0  0.37500  0.07400  0.50000  1.0000
  Ti  Ti6       1.0  0.93100  0.26600  0.50000  1.0000
  Ti  Ti7       1.0  0.12300  0.51800  0.50000  1.0000
  Ti  Ti8       1.0  0.80900  0.95200  0.50000  1.0000
