data_image0
_chemical_formula_structural       Nb6Ti8
_chemical_formula_sum              "Nb6 Ti8"
_cell_length_a       7.72135
_cell_length_b       7.72153
_cell_length_c       4.81267
_cell_angle_alpha    90
_cell_angle_beta     90
_cell_angle_gamma    60.0069

_space_group_name_H-M_alt    "P 1"
_space_group_IT_number       1

loop_
  _space_group_symop_operation_xyz
  'x, y, z'

loop_
  _atom_site_type_symbol
  _atom_site_label
  _atom_site_symmetry_multiplicity
  _atom_site_fract_x
  _atom_site_fract_y
  _atom_site_fract_z
  _atom_site_occupancy
  Nb  Nb1       1.0  0.13400  0.27800  0.00000  1.0000
  Nb  Nb2       1.0  0.30300  0.56200  0.00000  1.0000
  Nb  Nb3       1.0  0.84900  0.73100  0.00000  1.0000
  Nb  Nb4       1.0  0.39000  0.10300  0.50000  1.0000
  Nb  Nb5       1.0  0.67500  0.64900  0.50000  1.0000
  Nb  Nb6       1.0  0.22100  0.81900  0.50000  1.0000
  Ti  Ti1       1.0  0.99300  0.00265  0.00000  1.0000
  Ti  Ti2       1.0  0.57400  0.14700  0.00000  1.0000
  Ti  Ti3       1.0  0.71800  0.42200  0.00000  1.0000
  Ti  Ti4       1.0  0.42900  0.85700  0.00000  1.0000
  Ti  Ti5       1.0  0.95000  0.23400  0.50000  1.0000
  Ti  Ti6       1.0  0.53000  0.37800  0.50000  1.0000
  Ti  Ti7       1.0  0.09520  0.52400  0.50000  1.0000
  Ti  Ti8       1.0  0.80600  0.95900  0.50000  1.0000
