data_image0
_chemical_formula_structural       Co9Nd3
_chemical_formula_sum              "Co9 Nd3"
_cell_length_a       5.01586
_cell_length_b       5.01586
_cell_length_c       8.74526
_cell_angle_alpha    106.665
_cell_angle_beta     73.335
_cell_angle_gamma    120

_space_group_name_H-M_alt    "P 1"
_space_group_IT_number       1

loop_
  _space_group_symop_operation_xyz
  'x, y, z'

loop_
  _atom_site_type_symbol
  _atom_site_label
  _atom_site_symmetry_multiplicity
  _atom_site_fract_x
  _atom_site_fract_y
  _atom_site_fract_z
  _atom_site_occupancy
  Co  Co1       1.0  0.66700  0.33300  0.00020  1.0000
  Co  Co2       1.0  0.42100  0.08070  0.23800  1.0000
  Co  Co3       1.0  0.91900  0.57900  0.23800  1.0000
  Co  Co4       1.0  0.42100  0.57900  0.23800  1.0000
  Co  Co5       1.0  0.50000  0.50000  0.50000  1.0000
  Co  Co6       1.0  0.57900  0.42100  0.76200  1.0000
  Co  Co7       1.0  0.08070  0.42100  0.76200  1.0000
  Co  Co8       1.0  0.57900  0.91900  0.76200  1.0000
  Co  Co9       1.0  0.33300  0.66700  0.00000  1.0000
  Nd  Nd1       1.0  0.00000  0.00000  0.00000  1.0000
  Nd  Nd2       1.0  0.86000  0.14000  0.42000  1.0000
  Nd  Nd3       1.0  0.14000  0.86000  0.58000  1.0000
