data_image0
_chemical_formula_structural       Co4Sn12
_chemical_formula_sum              "Co4 Sn12"
_cell_length_a       6.27964
_cell_length_b       6.30983
_cell_length_c       9.07702
_cell_angle_alpha    90
_cell_angle_beta     69.7627
_cell_angle_gamma    90

_space_group_name_H-M_alt    "P 1"
_space_group_IT_number       1

loop_
  _space_group_symop_operation_xyz
  'x, y, z'

loop_
  _atom_site_type_symbol
  _atom_site_label
  _atom_site_symmetry_multiplicity
  _atom_site_fract_x
  _atom_site_fract_y
  _atom_site_fract_z
  _atom_site_occupancy
  Co  Co1       1.0  0.92000  0.00000  0.16000  1.0000
  Co  Co2       1.0  0.42000  0.50000  0.16000  1.0000
  Co  Co3       1.0  0.08000  0.00000  0.84000  1.0000
  Co  Co4       1.0  0.58000  0.50000  0.84000  1.0000
  Sn  Sn1       1.0  0.33700  0.16300  0.00000  1.0000
  Sn  Sn2       1.0  0.83700  0.33700  0.00000  1.0000
  Sn  Sn3       1.0  0.16300  0.66300  0.00000  1.0000
  Sn  Sn4       1.0  0.66300  0.83700  0.00000  1.0000
  Sn  Sn5       1.0  0.51800  0.18200  0.33000  1.0000
  Sn  Sn6       1.0  0.01750  0.31800  0.33000  1.0000
  Sn  Sn7       1.0  0.65200  0.68200  0.33000  1.0000
  Sn  Sn8       1.0  0.15200  0.81800  0.33000  1.0000
  Sn  Sn9       1.0  0.84800  0.18200  0.67000  1.0000
  Sn  Sn10      1.0  0.34800  0.31800  0.67000  1.0000
  Sn  Sn11      1.0  0.98200  0.68200  0.67000  1.0000
  Sn  Sn12      1.0  0.48200  0.81800  0.67000  1.0000
