data_image0
_chemical_formula_structural       Co4N12
_chemical_formula_sum              "Co4 N12"
_cell_length_a       5.63725
_cell_length_b       5.63725
_cell_length_c       5.63725
_cell_angle_alpha    109.471
_cell_angle_beta     109.471
_cell_angle_gamma    109.471

_space_group_name_H-M_alt    "P 1"
_space_group_IT_number       1

loop_
  _space_group_symop_operation_xyz
  'x, y, z'

loop_
  _atom_site_type_symbol
  _atom_site_label
  _atom_site_symmetry_multiplicity
  _atom_site_fract_x
  _atom_site_fract_y
  _atom_site_fract_z
  _atom_site_occupancy
  Co  Co1       1.0  0.50000  0.00000  0.00000  1.0000
  Co  Co2       1.0  0.00000  0.50000  0.00000  1.0000
  Co  Co3       1.0  0.00000  0.00000  0.50000  1.0000
  Co  Co4       1.0  0.50000  0.50000  0.50000  1.0000
  N   N1        1.0  0.30800  0.40100  0.09380  1.0000
  N   N2        1.0  0.69200  0.78600  0.09380  1.0000
  N   N3        1.0  0.90600  0.30800  0.21400  1.0000
  N   N4        1.0  0.40100  0.09380  0.30800  1.0000
  N   N5        1.0  0.21400  0.90600  0.30800  1.0000
  N   N6        1.0  0.09380  0.30800  0.40100  1.0000
  N   N7        1.0  0.90600  0.69200  0.59900  1.0000
  N   N8        1.0  0.78600  0.09380  0.69200  1.0000
  N   N9        1.0  0.59900  0.90600  0.69200  1.0000
  N   N10       1.0  0.09380  0.69200  0.78600  1.0000
  N   N11       1.0  0.30800  0.21400  0.90600  1.0000
  N   N12       1.0  0.69200  0.59900  0.90600  1.0000
