data_image0
_chemical_formula_structural       Ce3Co9
_chemical_formula_sum              "Ce3 Co9"
_cell_length_a       5.05413
_cell_length_b       5.05413
_cell_length_c       8.84547
_cell_angle_alpha    106.6
_cell_angle_beta     73.3999
_cell_angle_gamma    120

_space_group_name_H-M_alt    "P 1"
_space_group_IT_number       1

loop_
  _space_group_symop_operation_xyz
  'x, y, z'

loop_
  _atom_site_type_symbol
  _atom_site_label
  _atom_site_symmetry_multiplicity
  _atom_site_fract_x
  _atom_site_fract_y
  _atom_site_fract_z
  _atom_site_occupancy
  Ce  Ce1       1.0  0.00000  0.00000  0.00000  1.0000
  Ce  Ce2       1.0  0.86000  0.14000  0.42000  1.0000
  Ce  Ce3       1.0  0.14000  0.86000  0.58000  1.0000
  Co  Co1       1.0  0.66700  0.33300  0.99900  1.0000
  Co  Co2       1.0  0.33300  0.66700  0.00129  1.0000
  Co  Co3       1.0  0.42300  0.08250  0.23700  1.0000
  Co  Co4       1.0  0.42300  0.57700  0.23700  1.0000
  Co  Co5       1.0  0.91700  0.57700  0.23700  1.0000
  Co  Co6       1.0  0.50000  0.50000  0.50000  1.0000
  Co  Co7       1.0  0.08250  0.42300  0.76300  1.0000
  Co  Co8       1.0  0.57700  0.42300  0.76300  1.0000
  Co  Co9       1.0  0.57700  0.91700  0.76300  1.0000
