data_image0
_chemical_formula_structural       Mo6Ti8
_chemical_formula_sum              "Mo6 Ti8"
_cell_length_a       7.49834
_cell_length_b       7.50018
_cell_length_c       4.71627
_cell_angle_alpha    90
_cell_angle_beta     90
_cell_angle_gamma    60.0059

_space_group_name_H-M_alt    "P 1"
_space_group_IT_number       1

loop_
  _space_group_symop_operation_xyz
  'x, y, z'

loop_
  _atom_site_type_symbol
  _atom_site_label
  _atom_site_symmetry_multiplicity
  _atom_site_fract_x
  _atom_site_fract_y
  _atom_site_fract_z
  _atom_site_occupancy
  Mo  Mo1       1.0  0.71700  0.46900  0.00000  1.0000
  Mo  Mo2       1.0  0.32600  0.52900  0.00000  1.0000
  Mo  Mo3       1.0  0.38600  0.86000  0.00000  1.0000
  Mo  Mo4       1.0  0.56600  0.37900  0.50000  1.0000
  Mo  Mo5       1.0  0.62600  0.70900  0.50000  1.0000
  Mo  Mo6       1.0  0.23600  0.76900  0.50000  1.0000
  Ti  Ti1       1.0  0.96300  0.04110  0.00000  1.0000
  Ti  Ti2       1.0  0.56700  0.10600  0.00000  1.0000
  Ti  Ti3       1.0  0.14300  0.28600  0.00000  1.0000
  Ti  Ti4       1.0  0.89800  0.71000  0.00000  1.0000
  Ti  Ti5       1.0  0.38500  0.13200  0.50000  1.0000
  Ti  Ti6       1.0  0.98900  0.19700  0.50000  1.0000
  Ti  Ti7       1.0  0.05390  0.52800  0.50000  1.0000
  Ti  Ti8       1.0  0.81000  0.95200  0.50000  1.0000
