data_image0
_chemical_formula_structural       Eu6Ti8
_chemical_formula_sum              "Eu6 Ti8"
_cell_length_a       8.85242
_cell_length_b       8.85277
_cell_length_c       5.11001
_cell_angle_alpha    90
_cell_angle_beta     90
_cell_angle_gamma    60.0014

_space_group_name_H-M_alt    "P 1"
_space_group_IT_number       1

loop_
  _space_group_symop_operation_xyz
  'x, y, z'

loop_
  _atom_site_type_symbol
  _atom_site_label
  _atom_site_symmetry_multiplicity
  _atom_site_fract_x
  _atom_site_fract_y
  _atom_site_fract_z
  _atom_site_occupancy
  Eu  Eu1       1.0  0.12300  0.28000  0.00000  1.0000
  Eu  Eu2       1.0  0.31100  0.55200  0.00000  1.0000
  Eu  Eu3       1.0  0.85200  0.74000  0.00000  1.0000
  Eu  Eu4       1.0  0.40100  0.10100  0.50000  1.0000
  Eu  Eu5       1.0  0.67200  0.64100  0.50000  1.0000
  Eu  Eu6       1.0  0.21300  0.82900  0.50000  1.0000
  Ti  Ti1       1.0  0.96100  0.04170  0.00000  1.0000
  Ti  Ti2       1.0  0.61300  0.14100  0.00000  1.0000
  Ti  Ti3       1.0  0.71200  0.38900  0.00000  1.0000
  Ti  Ti4       1.0  0.42900  0.85700  0.00000  1.0000
  Ti  Ti5       1.0  0.91100  0.24000  0.50000  1.0000
  Ti  Ti6       1.0  0.56300  0.33900  0.50000  1.0000
  Ti  Ti7       1.0  0.09520  0.52400  0.50000  1.0000
  Ti  Ti8       1.0  0.81200  0.99200  0.50000  1.0000
