data_image0
_chemical_formula_structural       Co6Mg8
_chemical_formula_sum              "Co6 Mg8"
_cell_length_a       7.39185
_cell_length_b       7.39119
_cell_length_c       4.44844
_cell_angle_alpha    90
_cell_angle_beta     90
_cell_angle_gamma    59.9804

_space_group_name_H-M_alt    "P 1"
_space_group_IT_number       1

loop_
  _space_group_symop_operation_xyz
  'x, y, z'

loop_
  _atom_site_type_symbol
  _atom_site_label
  _atom_site_symmetry_multiplicity
  _atom_site_fract_x
  _atom_site_fract_y
  _atom_site_fract_z
  _atom_site_occupancy
  Co  Co1       1.0  0.15100  0.30600  0.00000  1.0000
  Co  Co2       1.0  0.25700  0.58000  0.00000  1.0000
  Co  Co3       1.0  0.87700  0.68600  0.00000  1.0000
  Co  Co4       1.0  0.37300  0.07500  0.50000  1.0000
  Co  Co5       1.0  0.64600  0.69500  0.50000  1.0000
  Co  Co6       1.0  0.26700  0.80100  0.50000  1.0000
  Mg  Mg1       1.0  0.53700  0.16000  0.00000  1.0000
  Mg  Mg2       1.0  0.73200  0.44600  0.00000  1.0000
  Mg  Mg3       1.0  0.42900  0.85700  0.00000  1.0000
  Mg  Mg4       1.0  0.01710  0.96600  0.00000  1.0000
  Mg  Mg5       1.0  0.98700  0.22100  0.50000  1.0000
  Mg  Mg6       1.0  0.50700  0.41500  0.50000  1.0000
  Mg  Mg7       1.0  0.09530  0.52400  0.50000  1.0000
  Mg  Mg8       1.0  0.79200  0.93500  0.50000  1.0000
