data_image0
_chemical_formula_structural       Cu6Ti8
_chemical_formula_sum              "Cu6 Ti8"
_cell_length_a       7.29394
_cell_length_b       7.29422
_cell_length_c       4.43295
_cell_angle_alpha    90
_cell_angle_beta     90
_cell_angle_gamma    60.001

_space_group_name_H-M_alt    "P 1"
_space_group_IT_number       1

loop_
  _space_group_symop_operation_xyz
  'x, y, z'

loop_
  _atom_site_type_symbol
  _atom_site_label
  _atom_site_symmetry_multiplicity
  _atom_site_fract_x
  _atom_site_fract_y
  _atom_site_fract_z
  _atom_site_occupancy
  Cu  Cu1       1.0  0.15400  0.28600  0.00000  1.0000
  Cu  Cu2       1.0  0.27500  0.58200  0.00000  1.0000
  Cu  Cu3       1.0  0.85700  0.70300  0.00000  1.0000
  Cu  Cu4       1.0  0.37000  0.09510  0.50000  1.0000
  Cu  Cu5       1.0  0.66600  0.67700  0.50000  1.0000
  Cu  Cu6       1.0  0.24900  0.79900  0.50000  1.0000
  Ti  Ti1       1.0  0.55600  0.15200  0.00000  1.0000
  Ti  Ti2       1.0  0.72400  0.43500  0.00000  1.0000
  Ti  Ti3       1.0  0.42900  0.85700  0.00000  1.0000
  Ti  Ti4       1.0  0.00601  0.98400  0.00000  1.0000
  Ti  Ti5       1.0  0.96800  0.22900  0.50000  1.0000
  Ti  Ti6       1.0  0.51800  0.39600  0.50000  1.0000
  Ti  Ti7       1.0  0.09520  0.52400  0.50000  1.0000
  Ti  Ti8       1.0  0.80000  0.94600  0.50000  1.0000
