data_image0
_chemical_formula_structural       Sn6Ti8
_chemical_formula_sum              "Sn6 Ti8"
_cell_length_a       7.88898
_cell_length_b       7.88946
_cell_length_c       4.99766
_cell_angle_alpha    90
_cell_angle_beta     90
_cell_angle_gamma    60.0019

_space_group_name_H-M_alt    "P 1"
_space_group_IT_number       1

loop_
  _space_group_symop_operation_xyz
  'x, y, z'

loop_
  _atom_site_type_symbol
  _atom_site_label
  _atom_site_symmetry_multiplicity
  _atom_site_fract_x
  _atom_site_fract_y
  _atom_site_fract_z
  _atom_site_occupancy
  Sn  Sn1       1.0  0.13300  0.26700  0.00000  1.0000
  Sn  Sn2       1.0  0.31500  0.56100  0.00000  1.0000
  Sn  Sn3       1.0  0.83800  0.74300  0.00000  1.0000
  Sn  Sn4       1.0  0.39100  0.11400  0.50000  1.0000
  Sn  Sn5       1.0  0.68600  0.63800  0.50000  1.0000
  Sn  Sn6       1.0  0.20900  0.81900  0.50000  1.0000
  Ti  Ti1       1.0  0.56500  0.16100  0.00000  1.0000
  Ti  Ti2       1.0  0.73200  0.41800  0.00000  1.0000
  Ti  Ti3       1.0  0.42900  0.85700  0.00000  1.0000
  Ti  Ti4       1.0  0.98900  0.99300  0.00000  1.0000
  Ti  Ti5       1.0  0.95900  0.22000  0.50000  1.0000
  Ti  Ti6       1.0  0.53500  0.38800  0.50000  1.0000
  Ti  Ti7       1.0  0.09520  0.52400  0.50000  1.0000
  Ti  Ti8       1.0  0.79200  0.96400  0.50000  1.0000
