data_image0
_chemical_formula_structural       Na6Ti8
_chemical_formula_sum              "Na6 Ti8"
_cell_length_a       8.52197
_cell_length_b       8.53046
_cell_length_c       4.60433
_cell_angle_alpha    90
_cell_angle_beta     90
_cell_angle_gamma    60.0114

_space_group_name_H-M_alt    "P 1"
_space_group_IT_number       1

loop_
  _space_group_symop_operation_xyz
  'x, y, z'

loop_
  _atom_site_type_symbol
  _atom_site_label
  _atom_site_symmetry_multiplicity
  _atom_site_fract_x
  _atom_site_fract_y
  _atom_site_fract_z
  _atom_site_occupancy
  Na  Na1       1.0  0.73400  0.44100  0.00000  1.0000
  Na  Na2       1.0  0.29800  0.54000  0.00000  1.0000
  Na  Na3       1.0  0.39700  0.87600  0.00000  1.0000
  Na  Na4       1.0  0.55500  0.36200  0.50000  1.0000
  Na  Na5       1.0  0.65400  0.69800  0.50000  1.0000
  Na  Na6       1.0  0.21900  0.79700  0.50000  1.0000
  Ti  Ti1       1.0  0.95200  0.01650  0.00000  1.0000
  Ti  Ti2       1.0  0.60300  0.09470  0.00000  1.0000
  Ti  Ti3       1.0  0.14300  0.28500  0.00000  1.0000
  Ti  Ti4       1.0  0.87300  0.74600  0.00000  1.0000
  Ti  Ti5       1.0  0.34900  0.14300  0.50000  1.0000
  Ti  Ti6       1.0  0.00084  0.22200  0.50000  1.0000
  Ti  Ti7       1.0  0.07910  0.49100  0.50000  1.0000
  Ti  Ti8       1.0  0.80900  0.95300  0.50000  1.0000
