data_image0
_chemical_formula_structural       Co2Pu6
_chemical_formula_sum              "Co2 Pu6"
_cell_length_a       5.86398
_cell_length_b       5.86398
_cell_length_c       8.97997
_cell_angle_alpha    90
_cell_angle_beta     90
_cell_angle_gamma    35.7191

_space_group_name_H-M_alt    "P 1"
_space_group_IT_number       1

loop_
  _space_group_symop_operation_xyz
  'x, y, z'

loop_
  _atom_site_type_symbol
  _atom_site_label
  _atom_site_symmetry_multiplicity
  _atom_site_fract_x
  _atom_site_fract_y
  _atom_site_fract_z
  _atom_site_occupancy
  Co  Co1       1.0  0.76600  0.76600  0.25000  1.0000
  Co  Co2       1.0  0.23400  0.23400  0.75000  1.0000
  Pu  Pu1       1.0  0.07940  0.07940  0.25000  1.0000
  Pu  Pu2       1.0  0.92100  0.92100  0.75000  1.0000
  Pu  Pu3       1.0  0.36700  0.36700  0.06260  1.0000
  Pu  Pu4       1.0  0.63300  0.63300  0.56300  1.0000
  Pu  Pu5       1.0  0.63300  0.63300  0.93700  1.0000
  Pu  Pu6       1.0  0.36700  0.36700  0.43700  1.0000
