data_image0
_chemical_formula_structural       In6Ti8
_chemical_formula_sum              "In6 Ti8"
_cell_length_a       7.99714
_cell_length_b       7.99816
_cell_length_c       4.79761
_cell_angle_alpha    90
_cell_angle_beta     90
_cell_angle_gamma    59.9942

_space_group_name_H-M_alt    "P 1"
_space_group_IT_number       1

loop_
  _space_group_symop_operation_xyz
  'x, y, z'

loop_
  _atom_site_type_symbol
  _atom_site_label
  _atom_site_symmetry_multiplicity
  _atom_site_fract_x
  _atom_site_fract_y
  _atom_site_fract_z
  _atom_site_occupancy
  In  In1       1.0  0.13500  0.27500  0.00000  1.0000
  In  In2       1.0  0.30400  0.56400  0.00000  1.0000
  In  In3       1.0  0.84700  0.73200  0.00000  1.0000
  In  In4       1.0  0.38800  0.10600  0.50000  1.0000
  In  In5       1.0  0.67700  0.64900  0.50000  1.0000
  In  In6       1.0  0.22000  0.81700  0.50000  1.0000
  Ti  Ti1       1.0  0.56700  0.16400  0.00000  1.0000
  Ti  Ti2       1.0  0.73600  0.41200  0.00000  1.0000
  Ti  Ti3       1.0  0.42900  0.85700  0.00000  1.0000
  Ti  Ti4       1.0  0.98300  0.99500  0.00000  1.0000
  Ti  Ti5       1.0  0.95700  0.21700  0.50000  1.0000
  Ti  Ti6       1.0  0.54100  0.38600  0.50000  1.0000
  Ti  Ti7       1.0  0.09520  0.52400  0.50000  1.0000
  Ti  Ti8       1.0  0.78800  0.96900  0.50000  1.0000
