data_image0
_chemical_formula_structural       Si6Ti8
_chemical_formula_sum              "Si6 Ti8"
_cell_length_a       7.23444
_cell_length_b       7.23451
_cell_length_c       4.79946
_cell_angle_alpha    90
_cell_angle_beta     90
_cell_angle_gamma    60.0002

_space_group_name_H-M_alt    "P 1"
_space_group_IT_number       1

loop_
  _space_group_symop_operation_xyz
  'x, y, z'

loop_
  _atom_site_type_symbol
  _atom_site_label
  _atom_site_symmetry_multiplicity
  _atom_site_fract_x
  _atom_site_fract_y
  _atom_site_fract_z
  _atom_site_occupancy
  Si  Si1       1.0  0.72900  0.41400  0.00000  1.0000
  Si  Si2       1.0  0.27100  0.57000  0.00000  1.0000
  Si  Si3       1.0  0.42800  0.87200  0.00000  1.0000
  Si  Si4       1.0  0.52500  0.36600  0.50000  1.0000
  Si  Si5       1.0  0.68100  0.66800  0.50000  1.0000
  Si  Si6       1.0  0.22300  0.82300  0.50000  1.0000
  Ti  Ti1       1.0  0.56500  0.17800  0.00000  1.0000
  Ti  Ti2       1.0  0.14300  0.28600  0.00000  1.0000
  Ti  Ti3       1.0  0.82800  0.70800  0.00000  1.0000
  Ti  Ti4       1.0  0.03530  0.97100  0.00000  1.0000
  Ti  Ti5       1.0  0.38700  0.06000  0.50000  1.0000
  Ti  Ti6       1.0  0.91700  0.26700  0.50000  1.0000
  Ti  Ti7       1.0  0.12400  0.53000  0.50000  1.0000
  Ti  Ti8       1.0  0.81000  0.95200  0.50000  1.0000
