data_image0
_chemical_formula_structural       Pr6Ti8
_chemical_formula_sum              "Pr6 Ti8"
_cell_length_a       8.88262
_cell_length_b       8.88309
_cell_length_c       5.04896
_cell_angle_alpha    90
_cell_angle_beta     90
_cell_angle_gamma    59.9979

_space_group_name_H-M_alt    "P 1"
_space_group_IT_number       1

loop_
  _space_group_symop_operation_xyz
  'x, y, z'

loop_
  _atom_site_type_symbol
  _atom_site_label
  _atom_site_symmetry_multiplicity
  _atom_site_fract_x
  _atom_site_fract_y
  _atom_site_fract_z
  _atom_site_occupancy
  Pr  Pr1       1.0  0.11100  0.28600  0.00000  1.0000
  Pr  Pr2       1.0  0.31700  0.54000  0.00000  1.0000
  Pr  Pr3       1.0  0.85700  0.74600  0.00000  1.0000
  Pr  Pr4       1.0  0.41300  0.09490  0.50000  1.0000
  Pr  Pr5       1.0  0.66600  0.63500  0.50000  1.0000
  Pr  Pr6       1.0  0.20600  0.84200  0.50000  1.0000
  Ti  Ti1       1.0  0.96000  0.04170  0.00000  1.0000
  Ti  Ti2       1.0  0.61300  0.14100  0.00000  1.0000
  Ti  Ti3       1.0  0.71300  0.38800  0.00000  1.0000
  Ti  Ti4       1.0  0.42800  0.85700  0.00000  1.0000
  Ti  Ti5       1.0  0.91100  0.24000  0.50000  1.0000
  Ti  Ti6       1.0  0.56400  0.33900  0.50000  1.0000
  Ti  Ti7       1.0  0.09520  0.52400  0.50000  1.0000
  Ti  Ti8       1.0  0.81100  0.99200  0.50000  1.0000
