data_image0
_chemical_formula_structural       Fe6Ti8
_chemical_formula_sum              "Fe6 Ti8"
_cell_length_a       7.29223
_cell_length_b       7.29412
_cell_length_c       4.18361
_cell_angle_alpha    90
_cell_angle_beta     90
_cell_angle_gamma    60.0232

_space_group_name_H-M_alt    "P 1"
_space_group_IT_number       1

loop_
  _space_group_symop_operation_xyz
  'x, y, z'

loop_
  _atom_site_type_symbol
  _atom_site_label
  _atom_site_symmetry_multiplicity
  _atom_site_fract_x
  _atom_site_fract_y
  _atom_site_fract_z
  _atom_site_occupancy
  Fe  Fe1       1.0  0.13700  0.29300  0.00000  1.0000
  Fe  Fe2       1.0  0.28400  0.56500  0.00000  1.0000
  Fe  Fe3       1.0  0.86500  0.71200  0.00000  1.0000
  Fe  Fe4       1.0  0.38700  0.08740  0.50000  1.0000
  Fe  Fe5       1.0  0.65900  0.66900  0.50000  1.0000
  Fe  Fe6       1.0  0.24000  0.81600  0.50000  1.0000
  Ti  Ti1       1.0  0.50100  0.20300  0.00000  1.0000
  Ti  Ti2       1.0  0.77500  0.43900  0.00000  1.0000
  Ti  Ti3       1.0  0.42900  0.85700  0.00000  1.0000
  Ti  Ti4       1.0  0.01020  0.92900  0.00000  1.0000
  Ti  Ti5       1.0  0.02270  0.17800  0.50000  1.0000
  Ti  Ti6       1.0  0.51400  0.45200  0.50000  1.0000
  Ti  Ti7       1.0  0.09500  0.52400  0.50000  1.0000
  Ti  Ti8       1.0  0.74900  0.94200  0.50000  1.0000
