data_image0
_chemical_formula_structural       Ca6Ti8
_chemical_formula_sum              "Ca6 Ti8"
_cell_length_a       9.65568
_cell_length_b       9.6576
_cell_length_c       4.44435
_cell_angle_alpha    90
_cell_angle_beta     90
_cell_angle_gamma    59.9761

_space_group_name_H-M_alt    "P 1"
_space_group_IT_number       1

loop_
  _space_group_symop_operation_xyz
  'x, y, z'

loop_
  _atom_site_type_symbol
  _atom_site_label
  _atom_site_symmetry_multiplicity
  _atom_site_fract_x
  _atom_site_fract_y
  _atom_site_fract_z
  _atom_site_occupancy
  Ca  Ca1       1.0  0.32100  0.46100  0.00000  1.0000
  Ca  Ca2       1.0  0.78900  0.46400  0.00000  1.0000
  Ca  Ca3       1.0  0.31900  0.93100  0.00000  1.0000
  Ca  Ca4       1.0  0.63400  0.30600  0.50000  1.0000
  Ca  Ca5       1.0  0.16300  0.77400  0.50000  1.0000
  Ca  Ca6       1.0  0.63200  0.77700  0.50000  1.0000
  Ti  Ti1       1.0  0.90600  0.04900  0.00000  1.0000
  Ti  Ti2       1.0  0.61700  0.04920  0.00000  1.0000
  Ti  Ti3       1.0  0.14200  0.28500  0.00000  1.0000
  Ti  Ti4       1.0  0.90600  0.76000  0.00000  1.0000
  Ti  Ti5       1.0  0.33500  0.18900  0.50000  1.0000
  Ti  Ti6       1.0  0.04600  0.18900  0.50000  1.0000
  Ti  Ti7       1.0  0.04670  0.47800  0.50000  1.0000
  Ti  Ti8       1.0  0.81000  0.95300  0.50000  1.0000
