data_image0
_chemical_formula_structural       Sb6Ti8
_chemical_formula_sum              "Sb6 Ti8"
_cell_length_a       7.9117
_cell_length_b       7.91339
_cell_length_c       5.39548
_cell_angle_alpha    90
_cell_angle_beta     90
_cell_angle_gamma    60.0052

_space_group_name_H-M_alt    "P 1"
_space_group_IT_number       1

loop_
  _space_group_symop_operation_xyz
  'x, y, z'

loop_
  _atom_site_type_symbol
  _atom_site_label
  _atom_site_symmetry_multiplicity
  _atom_site_fract_x
  _atom_site_fract_y
  _atom_site_fract_z
  _atom_site_occupancy
  Sb  Sb1       1.0  0.77200  0.37600  0.00000  1.0000
  Sb  Sb2       1.0  0.23300  0.56700  0.00000  1.0000
  Sb  Sb3       1.0  0.42400  0.91400  0.00000  1.0000
  Sb  Sb4       1.0  0.52900  0.32400  0.50000  1.0000
  Sb  Sb5       1.0  0.71900  0.67100  0.50000  1.0000
  Sb  Sb6       1.0  0.18100  0.86200  0.50000  1.0000
  Ti  Ti1       1.0  0.58100  0.16400  0.00000  1.0000
  Ti  Ti2       1.0  0.14300  0.28600  0.00000  1.0000
  Ti  Ti3       1.0  0.82600  0.72400  0.00000  1.0000
  Ti  Ti4       1.0  0.02100  0.96900  0.00000  1.0000
  Ti  Ti5       1.0  0.37100  0.07430  0.50000  1.0000
  Ti  Ti6       1.0  0.93100  0.26900  0.50000  1.0000
  Ti  Ti7       1.0  0.12600  0.51400  0.50000  1.0000
  Ti  Ti8       1.0  0.80900  0.95200  0.50000  1.0000
