data_image0
_chemical_formula_structural       Ru6Ti8
_chemical_formula_sum              "Ru6 Ti8"
_cell_length_a       7.30261
_cell_length_b       7.29985
_cell_length_c       4.68521
_cell_angle_alpha    90
_cell_angle_beta     90
_cell_angle_gamma    60.0762

_space_group_name_H-M_alt    "P 1"
_space_group_IT_number       1

loop_
  _space_group_symop_operation_xyz
  'x, y, z'

loop_
  _atom_site_type_symbol
  _atom_site_label
  _atom_site_symmetry_multiplicity
  _atom_site_fract_x
  _atom_site_fract_y
  _atom_site_fract_z
  _atom_site_occupancy
  Ru  Ru1       1.0  0.74100  0.41600  0.00000  1.0000
  Ru  Ru2       1.0  0.27300  0.55700  0.00000  1.0000
  Ru  Ru3       1.0  0.41400  0.88400  0.00000  1.0000
  Ru  Ru4       1.0  0.53800  0.35400  0.50000  1.0000
  Ru  Ru5       1.0  0.67900  0.68100  0.50000  1.0000
  Ru  Ru6       1.0  0.21100  0.82200  0.50000  1.0000
  Ti  Ti1       1.0  0.57600  0.17900  0.00000  1.0000
  Ti  Ti2       1.0  0.14300  0.28600  0.00000  1.0000
  Ti  Ti3       1.0  0.81600  0.71800  0.00000  1.0000
  Ti  Ti4       1.0  0.03680  0.95900  0.00000  1.0000
  Ti  Ti5       1.0  0.37700  0.05880  0.50000  1.0000
  Ti  Ti6       1.0  0.91600  0.27900  0.50000  1.0000
  Ti  Ti7       1.0  0.13600  0.52000  0.50000  1.0000
  Ti  Ti8       1.0  0.80900  0.95200  0.50000  1.0000
