data_image0
_chemical_formula_structural       Pb6Ti8
_chemical_formula_sum              "Pb6 Ti8"
_cell_length_a       8.00789
_cell_length_b       8.00576
_cell_length_c       5.38652
_cell_angle_alpha    90
_cell_angle_beta     90
_cell_angle_gamma    60.0027

_space_group_name_H-M_alt    "P 1"
_space_group_IT_number       1

loop_
  _space_group_symop_operation_xyz
  'x, y, z'

loop_
  _atom_site_type_symbol
  _atom_site_label
  _atom_site_symmetry_multiplicity
  _atom_site_fract_x
  _atom_site_fract_y
  _atom_site_fract_z
  _atom_site_occupancy
  Pb  Pb1       1.0  0.75000  0.40100  0.00000  1.0000
  Pb  Pb2       1.0  0.25800  0.56400  0.00000  1.0000
  Pb  Pb3       1.0  0.42100  0.89300  0.00000  1.0000
  Pb  Pb4       1.0  0.53200  0.34500  0.50000  1.0000
  Pb  Pb5       1.0  0.69500  0.67400  0.50000  1.0000
  Pb  Pb6       1.0  0.20200  0.83800  0.50000  1.0000
  Ti  Ti1       1.0  0.59700  0.13900  0.00000  1.0000
  Ti  Ti2       1.0  0.14300  0.28600  0.00000  1.0000
  Ti  Ti3       1.0  0.83600  0.74000  0.00000  1.0000
  Ti  Ti4       1.0  0.99600  0.97800  0.00000  1.0000
  Ti  Ti5       1.0  0.35500  0.09930  0.50000  1.0000
  Ti  Ti6       1.0  0.95700  0.26000  0.50000  1.0000
  Ti  Ti7       1.0  0.11700  0.49800  0.50000  1.0000
  Ti  Ti8       1.0  0.81000  0.95200  0.50000  1.0000
