data_image0
_chemical_formula_structural       Ti8Tm6
_chemical_formula_sum              "Ti8 Tm6"
_cell_length_a       8.52177
_cell_length_b       8.52084
_cell_length_c       4.88267
_cell_angle_alpha    90
_cell_angle_beta     90
_cell_angle_gamma    59.9734

_space_group_name_H-M_alt    "P 1"
_space_group_IT_number       1

loop_
  _space_group_symop_operation_xyz
  'x, y, z'

loop_
  _atom_site_type_symbol
  _atom_site_label
  _atom_site_symmetry_multiplicity
  _atom_site_fract_x
  _atom_site_fract_y
  _atom_site_fract_z
  _atom_site_occupancy
  Ti  Ti1       1.0  0.96300  0.01260  0.00000  1.0000
  Ti  Ti2       1.0  0.59600  0.10600  0.00000  1.0000
  Ti  Ti3       1.0  0.14300  0.28600  0.00000  1.0000
  Ti  Ti4       1.0  0.87000  0.73900  0.00000  1.0000
  Ti  Ti5       1.0  0.35700  0.13200  0.50000  1.0000
  Ti  Ti6       1.0  0.98900  0.22500  0.50000  1.0000
  Ti  Ti7       1.0  0.08240  0.50000  0.50000  1.0000
  Ti  Ti8       1.0  0.81000  0.95200  0.50000  1.0000
  Tm  Tm1       1.0  0.74600  0.41700  0.00000  1.0000
  Tm  Tm2       1.0  0.27400  0.55200  0.00000  1.0000
  Tm  Tm3       1.0  0.40900  0.88900  0.00000  1.0000
  Tm  Tm4       1.0  0.54400  0.34900  0.50000  1.0000
  Tm  Tm5       1.0  0.67900  0.68600  0.50000  1.0000
  Tm  Tm6       1.0  0.20600  0.82100  0.50000  1.0000
