data_image0
_chemical_formula_structural       Sc6Ti8
_chemical_formula_sum              "Sc6 Ti8"
_cell_length_a       8.134
_cell_length_b       8.1368
_cell_length_c       4.7599
_cell_angle_alpha    90
_cell_angle_beta     90
_cell_angle_gamma    60.0035

_space_group_name_H-M_alt    "P 1"
_space_group_IT_number       1

loop_
  _space_group_symop_operation_xyz
  'x, y, z'

loop_
  _atom_site_type_symbol
  _atom_site_label
  _atom_site_symmetry_multiplicity
  _atom_site_fract_x
  _atom_site_fract_y
  _atom_site_fract_z
  _atom_site_occupancy
  Sc  Sc1       1.0  0.73300  0.42000  0.00000  1.0000
  Sc  Sc2       1.0  0.27700  0.56100  0.00000  1.0000
  Sc  Sc3       1.0  0.41800  0.87600  0.00000  1.0000
  Sc  Sc4       1.0  0.53400  0.36200  0.50000  1.0000
  Sc  Sc5       1.0  0.67500  0.67700  0.50000  1.0000
  Sc  Sc6       1.0  0.21900  0.81800  0.50000  1.0000
  Ti  Ti1       1.0  0.97800  0.00966  0.00000  1.0000
  Ti  Ti2       1.0  0.58400  0.12100  0.00000  1.0000
  Ti  Ti3       1.0  0.14300  0.28600  0.00000  1.0000
  Ti  Ti4       1.0  0.86700  0.72700  0.00000  1.0000
  Ti  Ti5       1.0  0.36800  0.11700  0.50000  1.0000
  Ti  Ti6       1.0  0.97500  0.22800  0.50000  1.0000
  Ti  Ti7       1.0  0.08550  0.51100  0.50000  1.0000
  Ti  Ti8       1.0  0.81000  0.95200  0.50000  1.0000
