data_image0
_chemical_formula_structural       Sm6Ti8
_chemical_formula_sum              "Sm6 Ti8"
_cell_length_a       8.74782
_cell_length_b       8.74552
_cell_length_c       4.90319
_cell_angle_alpha    90
_cell_angle_beta     90
_cell_angle_gamma    59.9993

_space_group_name_H-M_alt    "P 1"
_space_group_IT_number       1

loop_
  _space_group_symop_operation_xyz
  'x, y, z'

loop_
  _atom_site_type_symbol
  _atom_site_label
  _atom_site_symmetry_multiplicity
  _atom_site_fract_x
  _atom_site_fract_y
  _atom_site_fract_z
  _atom_site_occupancy
  Sm  Sm1       1.0  0.75700  0.41700  0.00000  1.0000
  Sm  Sm2       1.0  0.27400  0.54100  0.00000  1.0000
  Sm  Sm3       1.0  0.39800  0.89900  0.00000  1.0000
  Sm  Sm4       1.0  0.55400  0.33900  0.50000  1.0000
  Sm  Sm5       1.0  0.67900  0.69700  0.50000  1.0000
  Sm  Sm6       1.0  0.19600  0.82200  0.50000  1.0000
  Ti  Ti1       1.0  0.94800  0.02540  0.00000  1.0000
  Ti  Ti2       1.0  0.59800  0.09060  0.00000  1.0000
  Ti  Ti3       1.0  0.14300  0.28600  0.00000  1.0000
  Ti  Ti4       1.0  0.88300  0.74100  0.00000  1.0000
  Ti  Ti5       1.0  0.35400  0.14700  0.50000  1.0000
  Ti  Ti6       1.0  0.00451  0.21300  0.50000  1.0000
  Ti  Ti7       1.0  0.06980  0.49700  0.50000  1.0000
  Ti  Ti8       1.0  0.81000  0.95200  0.50000  1.0000
