data_image0
_chemical_formula_structural       Al4H6
_chemical_formula_sum              "Al4 H6"
_cell_length_a       3.89139
_cell_length_b       3.89139
_cell_length_c       8.14008
_cell_angle_alpha    103.829
_cell_angle_beta     76.1709
_cell_angle_gamma    120

_space_group_name_H-M_alt    "P 1"
_space_group_IT_number       1

loop_
  _space_group_symop_operation_xyz
  'x, y, z'

loop_
  _atom_site_type_symbol
  _atom_site_label
  _atom_site_symmetry_multiplicity
  _atom_site_fract_x
  _atom_site_fract_y
  _atom_site_fract_z
  _atom_site_occupancy
  Al  Al1       1.0  0.63000  0.37000  0.11100  1.0000
  Al  Al2       1.0  0.87000  0.13000  0.38900  1.0000
  Al  Al3       1.0  0.13000  0.87000  0.61100  1.0000
  Al  Al4       1.0  0.37000  0.63000  0.88900  1.0000
  H   H1        1.0  0.25000  0.05910  0.25000  1.0000
  H   H2        1.0  0.94100  0.44100  0.25000  1.0000
  H   H3        1.0  0.55900  0.75000  0.25000  1.0000
  H   H4        1.0  0.44100  0.25000  0.75000  1.0000
  H   H5        1.0  0.05910  0.55900  0.75000  1.0000
  H   H6        1.0  0.75000  0.94100  0.75000  1.0000
