data_image0
_chemical_formula_structural       Np6Ti8
_chemical_formula_sum              "Np6 Ti8"
_cell_length_a       7.88116
_cell_length_b       7.88072
_cell_length_c       4.51694
_cell_angle_alpha    90
_cell_angle_beta     90
_cell_angle_gamma    60.0071

_space_group_name_H-M_alt    "P 1"
_space_group_IT_number       1

loop_
  _space_group_symop_operation_xyz
  'x, y, z'

loop_
  _atom_site_type_symbol
  _atom_site_label
  _atom_site_symmetry_multiplicity
  _atom_site_fract_x
  _atom_site_fract_y
  _atom_site_fract_z
  _atom_site_occupancy
  Np  Np1       1.0  0.21300  0.28800  0.00000  1.0000
  Np  Np2       1.0  0.85900  0.64200  0.00000  1.0000
  Np  Np3       1.0  0.21300  0.64200  0.00000  1.0000
  Np  Np4       1.0  0.31000  0.09330  0.50000  1.0000
  Np  Np5       1.0  0.66500  0.73900  0.50000  1.0000
  Np  Np6       1.0  0.31000  0.73900  0.50000  1.0000
  Ti  Ti1       1.0  0.63300  0.06120  0.00000  1.0000
  Ti  Ti2       1.0  0.02000  0.06150  0.00000  1.0000
  Ti  Ti3       1.0  0.63300  0.44900  0.00000  1.0000
  Ti  Ti4       1.0  0.42900  0.85700  0.00000  1.0000
  Ti  Ti5       1.0  0.50400  0.31900  0.50000  1.0000
  Ti  Ti6       1.0  0.89100  0.32000  0.50000  1.0000
  Ti  Ti7       1.0  0.09520  0.52400  0.50000  1.0000
  Ti  Ti8       1.0  0.89100  0.93200  0.50000  1.0000
