data_image0
_chemical_formula_structural       Tb6Ti8
_chemical_formula_sum              "Tb6 Ti8"
_cell_length_a       8.63836
_cell_length_b       8.6415
_cell_length_c       4.8959
_cell_angle_alpha    90
_cell_angle_beta     90
_cell_angle_gamma    60.0001

_space_group_name_H-M_alt    "P 1"
_space_group_IT_number       1

loop_
  _space_group_symop_operation_xyz
  'x, y, z'

loop_
  _atom_site_type_symbol
  _atom_site_label
  _atom_site_symmetry_multiplicity
  _atom_site_fract_x
  _atom_site_fract_y
  _atom_site_fract_z
  _atom_site_occupancy
  Tb  Tb1       1.0  0.75100  0.41600  0.00000  1.0000
  Tb  Tb2       1.0  0.27300  0.54700  0.00000  1.0000
  Tb  Tb3       1.0  0.40400  0.89400  0.00000  1.0000
  Tb  Tb4       1.0  0.54800  0.34400  0.50000  1.0000
  Tb  Tb5       1.0  0.68000  0.69100  0.50000  1.0000
  Tb  Tb6       1.0  0.20100  0.82200  0.50000  1.0000
  Ti  Ti1       1.0  0.95500  0.01780  0.00000  1.0000
  Ti  Ti2       1.0  0.59800  0.09810  0.00000  1.0000
  Ti  Ti3       1.0  0.14300  0.28600  0.00000  1.0000
  Ti  Ti4       1.0  0.87500  0.74100  0.00000  1.0000
  Ti  Ti5       1.0  0.35400  0.14000  0.50000  1.0000
  Ti  Ti6       1.0  0.99700  0.22000  0.50000  1.0000
  Ti  Ti7       1.0  0.07720  0.49700  0.50000  1.0000
  Ti  Ti8       1.0  0.81000  0.95200  0.50000  1.0000
