data_image0
_chemical_formula_structural       Ni6Ti8
_chemical_formula_sum              "Ni6 Ti8"
_cell_length_a       7.20734
_cell_length_b       7.20937
_cell_length_c       4.2996
_cell_angle_alpha    90
_cell_angle_beta     90
_cell_angle_gamma    60.0037

_space_group_name_H-M_alt    "P 1"
_space_group_IT_number       1

loop_
  _space_group_symop_operation_xyz
  'x, y, z'

loop_
  _atom_site_type_symbol
  _atom_site_label
  _atom_site_symmetry_multiplicity
  _atom_site_fract_x
  _atom_site_fract_y
  _atom_site_fract_z
  _atom_site_occupancy
  Ni  Ni1       1.0  0.14400  0.28200  0.00000  1.0000
  Ni  Ni2       1.0  0.28800  0.57300  0.00000  1.0000
  Ni  Ni3       1.0  0.85400  0.71700  0.00000  1.0000
  Ni  Ni4       1.0  0.38000  0.09880  0.50000  1.0000
  Ni  Ni5       1.0  0.67000  0.66400  0.50000  1.0000
  Ni  Ni6       1.0  0.23600  0.80800  0.50000  1.0000
  Ti  Ti1       1.0  0.52900  0.17500  0.00000  1.0000
  Ti  Ti2       1.0  0.74600  0.43900  0.00000  1.0000
  Ti  Ti3       1.0  0.42900  0.85700  0.00000  1.0000
  Ti  Ti4       1.0  0.01030  0.95800  0.00000  1.0000
  Ti  Ti5       1.0  0.99400  0.20600  0.50000  1.0000
  Ti  Ti6       1.0  0.51400  0.42300  0.50000  1.0000
  Ti  Ti7       1.0  0.09530  0.52400  0.50000  1.0000
  Ti  Ti8       1.0  0.77700  0.94200  0.50000  1.0000
