data_image0
_chemical_formula_structural       Pm6Ti8
_chemical_formula_sum              "Pm6 Ti8"
_cell_length_a       8.8042
_cell_length_b       8.79797
_cell_length_c       4.87792
_cell_angle_alpha    90
_cell_angle_beta     90
_cell_angle_gamma    59.9768

_space_group_name_H-M_alt    "P 1"
_space_group_IT_number       1

loop_
  _space_group_symop_operation_xyz
  'x, y, z'

loop_
  _atom_site_type_symbol
  _atom_site_label
  _atom_site_symmetry_multiplicity
  _atom_site_fract_x
  _atom_site_fract_y
  _atom_site_fract_z
  _atom_site_occupancy
  Pm  Pm1       1.0  0.76000  0.41900  0.00000  1.0000
  Pm  Pm2       1.0  0.27700  0.53400  0.00000  1.0000
  Pm  Pm3       1.0  0.39100  0.90300  0.00000  1.0000
  Pm  Pm4       1.0  0.56100  0.33500  0.50000  1.0000
  Pm  Pm5       1.0  0.67500  0.70400  0.50000  1.0000
  Pm  Pm6       1.0  0.19200  0.81900  0.50000  1.0000
  Ti  Ti1       1.0  0.94200  0.03100  0.00000  1.0000
  Ti  Ti2       1.0  0.59800  0.08500  0.00000  1.0000
  Ti  Ti3       1.0  0.14300  0.28600  0.00000  1.0000
  Ti  Ti4       1.0  0.88800  0.74100  0.00000  1.0000
  Ti  Ti5       1.0  0.35400  0.15300  0.50000  1.0000
  Ti  Ti6       1.0  0.01040  0.20700  0.50000  1.0000
  Ti  Ti7       1.0  0.06440  0.49700  0.50000  1.0000
  Ti  Ti8       1.0  0.81000  0.95200  0.50000  1.0000
