data_image0
_chemical_formula_structural       Pa6Ti8
_chemical_formula_sum              "Pa6 Ti8"
_cell_length_a       8.13463
_cell_length_b       8.14024
_cell_length_c       5.00103
_cell_angle_alpha    90
_cell_angle_beta     90
_cell_angle_gamma    60.0034

_space_group_name_H-M_alt    "P 1"
_space_group_IT_number       1

loop_
  _space_group_symop_operation_xyz
  'x, y, z'

loop_
  _atom_site_type_symbol
  _atom_site_label
  _atom_site_symmetry_multiplicity
  _atom_site_fract_x
  _atom_site_fract_y
  _atom_site_fract_z
  _atom_site_occupancy
  Pa  Pa1       1.0  0.14400  0.28400  0.00000  1.0000
  Pa  Pa2       1.0  0.28700  0.57200  0.00000  1.0000
  Pa  Pa3       1.0  0.85500  0.71500  0.00000  1.0000
  Pa  Pa4       1.0  0.38000  0.09730  0.50000  1.0000
  Pa  Pa5       1.0  0.66900  0.66600  0.50000  1.0000
  Pa  Pa6       1.0  0.23700  0.80900  0.50000  1.0000
  Ti  Ti1       1.0  0.97900  0.02160  0.00000  1.0000
  Ti  Ti2       1.0  0.59300  0.14200  0.00000  1.0000
  Ti  Ti3       1.0  0.71400  0.40700  0.00000  1.0000
  Ti  Ti4       1.0  0.42900  0.85700  0.00000  1.0000
  Ti  Ti5       1.0  0.93100  0.23900  0.50000  1.0000
  Ti  Ti6       1.0  0.54500  0.35900  0.50000  1.0000
  Ti  Ti7       1.0  0.09510  0.52400  0.50000  1.0000
  Ti  Ti8       1.0  0.81000  0.97400  0.50000  1.0000
