data_image0
_chemical_formula_structural       Pt6Ti8
_chemical_formula_sum              "Pt6 Ti8"
_cell_length_a       7.462
_cell_length_b       7.46223
_cell_length_c       4.60461
_cell_angle_alpha    90
_cell_angle_beta     90
_cell_angle_gamma    60.0022

_space_group_name_H-M_alt    "P 1"
_space_group_IT_number       1

loop_
  _space_group_symop_operation_xyz
  'x, y, z'

loop_
  _atom_site_type_symbol
  _atom_site_label
  _atom_site_symmetry_multiplicity
  _atom_site_fract_x
  _atom_site_fract_y
  _atom_site_fract_z
  _atom_site_occupancy
  Pt  Pt1       1.0  0.13500  0.27900  0.00000  1.0000
  Pt  Pt2       1.0  0.30100  0.56400  0.00000  1.0000
  Pt  Pt3       1.0  0.85000  0.72900  0.00000  1.0000
  Pt  Pt4       1.0  0.38900  0.10200  0.50000  1.0000
  Pt  Pt5       1.0  0.67400  0.65200  0.50000  1.0000
  Pt  Pt6       1.0  0.22300  0.81700  0.50000  1.0000
  Ti  Ti1       1.0  0.54200  0.16500  0.00000  1.0000
  Ti  Ti2       1.0  0.73700  0.43600  0.00000  1.0000
  Ti  Ti3       1.0  0.42900  0.85700  0.00000  1.0000
  Ti  Ti4       1.0  0.00713  0.97000  0.00000  1.0000
  Ti  Ti5       1.0  0.98200  0.21600  0.50000  1.0000
  Ti  Ti6       1.0  0.51700  0.41000  0.50000  1.0000
  Ti  Ti7       1.0  0.09520  0.52400  0.50000  1.0000
  Ti  Ti8       1.0  0.78700  0.94500  0.50000  1.0000
