data_image0
_chemical_formula_structural       Rh6Ti8
_chemical_formula_sum              "Rh6 Ti8"
_cell_length_a       7.33343
_cell_length_b       7.33376
_cell_length_c       4.62276
_cell_angle_alpha    90
_cell_angle_beta     90
_cell_angle_gamma    60.0165

_space_group_name_H-M_alt    "P 1"
_space_group_IT_number       1

loop_
  _space_group_symop_operation_xyz
  'x, y, z'

loop_
  _atom_site_type_symbol
  _atom_site_label
  _atom_site_symmetry_multiplicity
  _atom_site_fract_x
  _atom_site_fract_y
  _atom_site_fract_z
  _atom_site_occupancy
  Rh  Rh1       1.0  0.72900  0.41600  0.00000  1.0000
  Rh  Rh2       1.0  0.27400  0.56900  0.00000  1.0000
  Rh  Rh3       1.0  0.42600  0.87200  0.00000  1.0000
  Rh  Rh4       1.0  0.52700  0.36600  0.50000  1.0000
  Rh  Rh5       1.0  0.67900  0.67000  0.50000  1.0000
  Rh  Rh6       1.0  0.22300  0.82100  0.50000  1.0000
  Ti  Ti1       1.0  0.58000  0.16800  0.00000  1.0000
  Ti  Ti2       1.0  0.14300  0.28600  0.00000  1.0000
  Ti  Ti3       1.0  0.82400  0.72200  0.00000  1.0000
  Ti  Ti4       1.0  0.02560  0.96600  0.00000  1.0000
  Ti  Ti5       1.0  0.37200  0.06990  0.50000  1.0000
  Ti  Ti6       1.0  0.92700  0.27200  0.50000  1.0000
  Ti  Ti7       1.0  0.12900  0.51500  0.50000  1.0000
  Ti  Ti8       1.0  0.80900  0.95200  0.50000  1.0000
