data_image0
_chemical_formula_structural       Pd6Ti8
_chemical_formula_sum              "Pd6 Ti8"
_cell_length_a       7.46545
_cell_length_b       7.46586
_cell_length_c       4.5847
_cell_angle_alpha    90
_cell_angle_beta     90
_cell_angle_gamma    60.0068

_space_group_name_H-M_alt    "P 1"
_space_group_IT_number       1

loop_
  _space_group_symop_operation_xyz
  'x, y, z'

loop_
  _atom_site_type_symbol
  _atom_site_label
  _atom_site_symmetry_multiplicity
  _atom_site_fract_x
  _atom_site_fract_y
  _atom_site_fract_z
  _atom_site_occupancy
  Pd  Pd1       1.0  0.13900  0.28100  0.00000  1.0000
  Pd  Pd2       1.0  0.29400  0.56800  0.00000  1.0000
  Pd  Pd3       1.0  0.85300  0.72200  0.00000  1.0000
  Pd  Pd4       1.0  0.38500  0.09970  0.50000  1.0000
  Pd  Pd5       1.0  0.67100  0.65800  0.50000  1.0000
  Pd  Pd6       1.0  0.23000  0.81300  0.50000  1.0000
  Ti  Ti1       1.0  0.54600  0.16700  0.00000  1.0000
  Ti  Ti2       1.0  0.73800  0.43000  0.00000  1.0000
  Ti  Ti3       1.0  0.42900  0.85700  0.00000  1.0000
  Ti  Ti4       1.0  0.00156  0.97400  0.00000  1.0000
  Ti  Ti5       1.0  0.97800  0.21400  0.50000  1.0000
  Ti  Ti6       1.0  0.52200  0.40700  0.50000  1.0000
  Ti  Ti7       1.0  0.09520  0.52400  0.50000  1.0000
  Ti  Ti8       1.0  0.78500  0.95100  0.50000  1.0000
