data_image0
_chemical_formula_structural       Bi6Ti8
_chemical_formula_sum              "Bi6 Ti8"
_cell_length_a       8.15741
_cell_length_b       8.1604
_cell_length_c       5.49751
_cell_angle_alpha    90
_cell_angle_beta     90
_cell_angle_gamma    60.0129

_space_group_name_H-M_alt    "P 1"
_space_group_IT_number       1

loop_
  _space_group_symop_operation_xyz
  'x, y, z'

loop_
  _atom_site_type_symbol
  _atom_site_label
  _atom_site_symmetry_multiplicity
  _atom_site_fract_x
  _atom_site_fract_y
  _atom_site_fract_z
  _atom_site_occupancy
  Bi  Bi1       1.0  0.77000  0.37900  0.00000  1.0000
  Bi  Bi2       1.0  0.23600  0.56500  0.00000  1.0000
  Bi  Bi3       1.0  0.42200  0.91300  0.00000  1.0000
  Bi  Bi4       1.0  0.53000  0.32500  0.50000  1.0000
  Bi  Bi5       1.0  0.71600  0.67300  0.50000  1.0000
  Bi  Bi6       1.0  0.18200  0.85900  0.50000  1.0000
  Ti  Ti1       1.0  0.59800  0.14600  0.00000  1.0000
  Ti  Ti2       1.0  0.14300  0.28600  0.00000  1.0000
  Ti  Ti3       1.0  0.82700  0.74100  0.00000  1.0000
  Ti  Ti4       1.0  0.00340  0.97000  0.00000  1.0000
  Ti  Ti5       1.0  0.35400  0.09200  0.50000  1.0000
  Ti  Ti6       1.0  0.94900  0.26800  0.50000  1.0000
  Ti  Ti7       1.0  0.12500  0.49700  0.50000  1.0000
  Ti  Ti8       1.0  0.81000  0.95200  0.50000  1.0000
