data_image0
_chemical_formula_structural       Ti8Tl6
_chemical_formula_sum              "Ti8 Tl6"
_cell_length_a       7.95736
_cell_length_b       7.95762
_cell_length_c       5.13323
_cell_angle_alpha    90
_cell_angle_beta     90
_cell_angle_gamma    60.0158

_space_group_name_H-M_alt    "P 1"
_space_group_IT_number       1

loop_
  _space_group_symop_operation_xyz
  'x, y, z'

loop_
  _atom_site_type_symbol
  _atom_site_label
  _atom_site_symmetry_multiplicity
  _atom_site_fract_x
  _atom_site_fract_y
  _atom_site_fract_z
  _atom_site_occupancy
  Ti  Ti1       1.0  0.58900  0.13300  0.00000  1.0000
  Ti  Ti2       1.0  0.14300  0.28600  0.00000  1.0000
  Ti  Ti3       1.0  0.85000  0.73200  0.00000  1.0000
  Ti  Ti4       1.0  0.99000  0.99300  0.00000  1.0000
  Ti  Ti5       1.0  0.36400  0.10500  0.50000  1.0000
  Ti  Ti6       1.0  0.96200  0.24600  0.50000  1.0000
  Ti  Ti7       1.0  0.10300  0.50600  0.50000  1.0000
  Ti  Ti8       1.0  0.80900  0.95300  0.50000  1.0000
  Tl  Tl1       1.0  0.73600  0.41300  0.00000  1.0000
  Tl  Tl2       1.0  0.27000  0.56500  0.00000  1.0000
  Tl  Tl3       1.0  0.42200  0.87900  0.00000  1.0000
  Tl  Tl4       1.0  0.53000  0.35900  0.50000  1.0000
  Tl  Tl5       1.0  0.68300  0.67300  0.50000  1.0000
  Tl  Tl6       1.0  0.21600  0.82500  0.50000  1.0000
