data_image0
_chemical_formula_structural       Nd6Ti8
_chemical_formula_sum              "Nd6 Ti8"
_cell_length_a       8.82535
_cell_length_b       8.82529
_cell_length_c       5.03666
_cell_angle_alpha    90
_cell_angle_beta     90
_cell_angle_gamma    59.9979

_space_group_name_H-M_alt    "P 1"
_space_group_IT_number       1

loop_
  _space_group_symop_operation_xyz
  'x, y, z'

loop_
  _atom_site_type_symbol
  _atom_site_label
  _atom_site_symmetry_multiplicity
  _atom_site_fract_x
  _atom_site_fract_y
  _atom_site_fract_z
  _atom_site_occupancy
  Nd  Nd1       1.0  0.11200  0.28600  0.00000  1.0000
  Nd  Nd2       1.0  0.31600  0.54100  0.00000  1.0000
  Nd  Nd3       1.0  0.85700  0.74500  0.00000  1.0000
  Nd  Nd4       1.0  0.41100  0.09530  0.50000  1.0000
  Nd  Nd5       1.0  0.66700  0.63600  0.50000  1.0000
  Nd  Nd6       1.0  0.20700  0.84000  0.50000  1.0000
  Ti  Ti1       1.0  0.96200  0.03940  0.00000  1.0000
  Ti  Ti2       1.0  0.61100  0.14200  0.00000  1.0000
  Ti  Ti3       1.0  0.71300  0.39000  0.00000  1.0000
  Ti  Ti4       1.0  0.42900  0.85700  0.00000  1.0000
  Ti  Ti5       1.0  0.91300  0.23900  0.50000  1.0000
  Ti  Ti6       1.0  0.56200  0.34100  0.50000  1.0000
  Ti  Ti7       1.0  0.09520  0.52400  0.50000  1.0000
  Ti  Ti8       1.0  0.81100  0.99100  0.50000  1.0000
