data_image0
_chemical_formula_structural       Ge6Ti8
_chemical_formula_sum              "Ge6 Ti8"
_cell_length_a       7.46084
_cell_length_b       7.46027
_cell_length_c       4.73738
_cell_angle_alpha    90
_cell_angle_beta     90
_cell_angle_gamma    60.0007

_space_group_name_H-M_alt    "P 1"
_space_group_IT_number       1

loop_
  _space_group_symop_operation_xyz
  'x, y, z'

loop_
  _atom_site_type_symbol
  _atom_site_label
  _atom_site_symmetry_multiplicity
  _atom_site_fract_x
  _atom_site_fract_y
  _atom_site_fract_z
  _atom_site_occupancy
  Ge  Ge1       1.0  0.13900  0.25800  0.00000  1.0000
  Ge  Ge2       1.0  0.31700  0.56800  0.00000  1.0000
  Ge  Ge3       1.0  0.83000  0.74500  0.00000  1.0000
  Ge  Ge4       1.0  0.38400  0.12300  0.50000  1.0000
  Ge  Ge5       1.0  0.69400  0.63600  0.50000  1.0000
  Ge  Ge6       1.0  0.20700  0.81300  0.50000  1.0000
  Ti  Ti1       1.0  0.54000  0.17200  0.00000  1.0000
  Ti  Ti2       1.0  0.74300  0.43100  0.00000  1.0000
  Ti  Ti3       1.0  0.42900  0.85700  0.00000  1.0000
  Ti  Ti4       1.0  0.00207  0.96900  0.00000  1.0000
  Ti  Ti5       1.0  0.98400  0.20900  0.50000  1.0000
  Ti  Ti6       1.0  0.52200  0.41200  0.50000  1.0000
  Ti  Ti7       1.0  0.09520  0.52400  0.50000  1.0000
  Ti  Ti8       1.0  0.78000  0.95000  0.50000  1.0000
