data_image0
_chemical_formula_structural       Al4Mg6
_chemical_formula_sum              "Al4 Mg6"
_cell_length_a       8.27856
_cell_length_b       8.27856
_cell_length_c       5.98028
_cell_angle_alpha    133.801
_cell_angle_beta     46.1991
_cell_angle_gamma    120

_space_group_name_H-M_alt    "P 1"
_space_group_IT_number       1

loop_
  _space_group_symop_operation_xyz
  'x, y, z'

loop_
  _atom_site_type_symbol
  _atom_site_label
  _atom_site_symmetry_multiplicity
  _atom_site_fract_x
  _atom_site_fract_y
  _atom_site_fract_z
  _atom_site_occupancy
  Al  Al1       1.0  0.62400  0.37600  0.12900  1.0000
  Al  Al2       1.0  0.87600  0.12400  0.37100  1.0000
  Al  Al3       1.0  0.12400  0.87600  0.62900  1.0000
  Al  Al4       1.0  0.37600  0.62400  0.87100  1.0000
  Mg  Mg1       1.0  0.56800  0.75000  0.25000  1.0000
  Mg  Mg2       1.0  0.25000  0.06800  0.25000  1.0000
  Mg  Mg3       1.0  0.93200  0.43200  0.25000  1.0000
  Mg  Mg4       1.0  0.06800  0.56800  0.75000  1.0000
  Mg  Mg5       1.0  0.75000  0.93200  0.75000  1.0000
  Mg  Mg6       1.0  0.43200  0.25000  0.75000  1.0000
