data_image0
_chemical_formula_structural       La6Ti8
_chemical_formula_sum              "La6 Ti8"
_cell_length_a       8.96678
_cell_length_b       8.96168
_cell_length_c       5.0436
_cell_angle_alpha    90
_cell_angle_beta     90
_cell_angle_gamma    59.9944

_space_group_name_H-M_alt    "P 1"
_space_group_IT_number       1

loop_
  _space_group_symop_operation_xyz
  'x, y, z'

loop_
  _atom_site_type_symbol
  _atom_site_label
  _atom_site_symmetry_multiplicity
  _atom_site_fract_x
  _atom_site_fract_y
  _atom_site_fract_z
  _atom_site_occupancy
  La  La1       1.0  0.10900  0.28700  0.00000  1.0000
  La  La2       1.0  0.31900  0.53800  0.00000  1.0000
  La  La3       1.0  0.85800  0.74700  0.00000  1.0000
  La  La4       1.0  0.41500  0.09370  0.50000  1.0000
  La  La5       1.0  0.66500  0.63400  0.50000  1.0000
  La  La6       1.0  0.20500  0.84400  0.50000  1.0000
  Ti  Ti1       1.0  0.95700  0.04530  0.00000  1.0000
  Ti  Ti2       1.0  0.61700  0.14000  0.00000  1.0000
  Ti  Ti3       1.0  0.71200  0.38600  0.00000  1.0000
  Ti  Ti4       1.0  0.42900  0.85700  0.00000  1.0000
  Ti  Ti5       1.0  0.90700  0.24100  0.50000  1.0000
  Ti  Ti6       1.0  0.56700  0.33600  0.50000  1.0000
  Ti  Ti7       1.0  0.09520  0.52400  0.50000  1.0000
  Ti  Ti8       1.0  0.81200  0.99500  0.50000  1.0000
