data_image0
_chemical_formula_structural       Ti8Yb6
_chemical_formula_sum              "Ti8 Yb6"
_cell_length_a       8.64319
_cell_length_b       8.64338
_cell_length_c       5.09701
_cell_angle_alpha    90
_cell_angle_beta     90
_cell_angle_gamma    59.9991

_space_group_name_H-M_alt    "P 1"
_space_group_IT_number       1

loop_
  _space_group_symop_operation_xyz
  'x, y, z'

loop_
  _atom_site_type_symbol
  _atom_site_label
  _atom_site_symmetry_multiplicity
  _atom_site_fract_x
  _atom_site_fract_y
  _atom_site_fract_z
  _atom_site_occupancy
  Ti  Ti1       1.0  0.96700  0.03470  0.00000  1.0000
  Ti  Ti2       1.0  0.60600  0.14100  0.00000  1.0000
  Ti  Ti3       1.0  0.71200  0.39600  0.00000  1.0000
  Ti  Ti4       1.0  0.42900  0.85700  0.00000  1.0000
  Ti  Ti5       1.0  0.91800  0.24000  0.50000  1.0000
  Ti  Ti6       1.0  0.55600  0.34600  0.50000  1.0000
  Ti  Ti7       1.0  0.09530  0.52400  0.50000  1.0000
  Ti  Ti8       1.0  0.81200  0.98500  0.50000  1.0000
  Yb  Yb1       1.0  0.12500  0.28100  0.00000  1.0000
  Yb  Yb2       1.0  0.30900  0.55300  0.00000  1.0000
  Yb  Yb3       1.0  0.85200  0.73800  0.00000  1.0000
  Yb  Yb4       1.0  0.39900  0.10000  0.50000  1.0000
  Yb  Yb5       1.0  0.67200  0.64300  0.50000  1.0000
  Yb  Yb6       1.0  0.21500  0.82800  0.50000  1.0000
