data_image0
_chemical_formula_structural       Ti8W6
_chemical_formula_sum              "Ti8 W6"
_cell_length_a       7.59659
_cell_length_b       7.59593
_cell_length_c       4.64721
_cell_angle_alpha    90
_cell_angle_beta     90
_cell_angle_gamma    59.9933

_space_group_name_H-M_alt    "P 1"
_space_group_IT_number       1

loop_
  _space_group_symop_operation_xyz
  'x, y, z'

loop_
  _atom_site_type_symbol
  _atom_site_label
  _atom_site_symmetry_multiplicity
  _atom_site_fract_x
  _atom_site_fract_y
  _atom_site_fract_z
  _atom_site_occupancy
  Ti  Ti1       1.0  0.96800  0.03530  0.00000  1.0000
  Ti  Ti2       1.0  0.56800  0.11100  0.00000  1.0000
  Ti  Ti3       1.0  0.14300  0.28600  0.00000  1.0000
  Ti  Ti4       1.0  0.89200  0.71100  0.00000  1.0000
  Ti  Ti5       1.0  0.38400  0.12700  0.50000  1.0000
  Ti  Ti6       1.0  0.98500  0.20300  0.50000  1.0000
  Ti  Ti7       1.0  0.06000  0.52700  0.50000  1.0000
  Ti  Ti8       1.0  0.81000  0.95200  0.50000  1.0000
  W   W1        1.0  0.71600  0.46800  0.00000  1.0000
  W   W2        1.0  0.32500  0.53000  0.00000  1.0000
  W   W3        1.0  0.38800  0.85900  0.00000  1.0000
  W   W4        1.0  0.56500  0.38000  0.50000  1.0000
  W   W5        1.0  0.62700  0.70800  0.50000  1.0000
  W   W6        1.0  0.23700  0.77000  0.50000  1.0000
