data_image0
_chemical_formula_structural       Cl4Co6
_chemical_formula_sum              "Cl4 Co6"
_cell_length_a       6.01517
_cell_length_b       6.01517
_cell_length_c       5.63621
_cell_angle_alpha    122.25
_cell_angle_beta     57.7497
_cell_angle_gamma    120

_space_group_name_H-M_alt    "P 1"
_space_group_IT_number       1

loop_
  _space_group_symop_operation_xyz
  'x, y, z'

loop_
  _atom_site_type_symbol
  _atom_site_label
  _atom_site_symmetry_multiplicity
  _atom_site_fract_x
  _atom_site_fract_y
  _atom_site_fract_z
  _atom_site_occupancy
  Cl  Cl1       1.0  0.61100  0.38900  0.16800  1.0000
  Cl  Cl2       1.0  0.88900  0.11100  0.33200  1.0000
  Cl  Cl3       1.0  0.11100  0.88900  0.66800  1.0000
  Cl  Cl4       1.0  0.38900  0.61100  0.83200  1.0000
  Co  Co1       1.0  0.25000  0.99800  0.25000  1.0000
  Co  Co2       1.0  0.00200  0.50200  0.25000  1.0000
  Co  Co3       1.0  0.49800  0.75000  0.25000  1.0000
  Co  Co4       1.0  0.50200  0.25000  0.75000  1.0000
  Co  Co5       1.0  0.99800  0.49800  0.75000  1.0000
  Co  Co6       1.0  0.75000  0.00200  0.75000  1.0000
