data_image0
_chemical_formula_structural       Be4Co6
_chemical_formula_sum              "Be4 Co6"
_cell_length_a       4.74237
_cell_length_b       4.74237
_cell_length_c       5.65499
_cell_angle_alpha    114.791
_cell_angle_beta     65.2091
_cell_angle_gamma    120

_space_group_name_H-M_alt    "P 1"
_space_group_IT_number       1

loop_
  _space_group_symop_operation_xyz
  'x, y, z'

loop_
  _atom_site_type_symbol
  _atom_site_label
  _atom_site_symmetry_multiplicity
  _atom_site_fract_x
  _atom_site_fract_y
  _atom_site_fract_z
  _atom_site_occupancy
  Be  Be1       1.0  0.31300  0.68700  0.06070  1.0000
  Be  Be2       1.0  0.18700  0.81300  0.43900  1.0000
  Be  Be3       1.0  0.81300  0.18700  0.56100  1.0000
  Be  Be4       1.0  0.68700  0.31300  0.93900  1.0000
  Co  Co1       1.0  0.81000  0.31000  0.25000  1.0000
  Co  Co2       1.0  0.25000  0.19000  0.25000  1.0000
  Co  Co3       1.0  0.69000  0.75000  0.25000  1.0000
  Co  Co4       1.0  0.31000  0.25000  0.75000  1.0000
  Co  Co5       1.0  0.75000  0.81000  0.75000  1.0000
  Co  Co6       1.0  0.19000  0.69000  0.75000  1.0000
