data_image0
_chemical_formula_structural       Mn6Ti8
_chemical_formula_sum              "Mn6 Ti8"
_cell_length_a       6.4468
_cell_length_b       7.2709
_cell_length_c       4.3789
_cell_angle_alpha    90
_cell_angle_beta     90
_cell_angle_gamma    68.5305

_space_group_name_H-M_alt    "P 1"
_space_group_IT_number       1

loop_
  _space_group_symop_operation_xyz
  'x, y, z'

loop_
  _atom_site_type_symbol
  _atom_site_label
  _atom_site_symmetry_multiplicity
  _atom_site_fract_x
  _atom_site_fract_y
  _atom_site_fract_z
  _atom_site_occupancy
  Mn  Mn1       1.0  0.74600  0.44900  0.00000  1.0000
  Mn  Mn2       1.0  0.35000  0.58500  0.00000  1.0000
  Mn  Mn3       1.0  0.47100  0.86000  0.00000  1.0000
  Mn  Mn4       1.0  0.48200  0.37800  0.50000  1.0000
  Mn  Mn5       1.0  0.60300  0.65300  0.50000  1.0000
  Mn  Mn6       1.0  0.20600  0.78900  0.50000  1.0000
  Ti  Ti1       1.0  0.61200  0.16600  0.00000  1.0000
  Ti  Ti2       1.0  0.16900  0.31300  0.00000  1.0000
  Ti  Ti3       1.0  0.87800  0.71600  0.00000  1.0000
  Ti  Ti4       1.0  0.07540  0.98900  0.00000  1.0000
  Ti  Ti5       1.0  0.34000  0.07150  0.50000  1.0000
  Ti  Ti6       1.0  0.87700  0.24900  0.50000  1.0000
  Ti  Ti7       1.0  0.07430  0.52300  0.50000  1.0000
  Ti  Ti8       1.0  0.78300  0.92500  0.50000  1.0000
