data_image0
_chemical_formula_structural       Ta6Ti8
_chemical_formula_sum              "Ta6 Ti8"
_cell_length_a       7.71029
_cell_length_b       7.71199
_cell_length_c       4.81268
_cell_angle_alpha    90
_cell_angle_beta     90
_cell_angle_gamma    60.0009

_space_group_name_H-M_alt    "P 1"
_space_group_IT_number       1

loop_
  _space_group_symop_operation_xyz
  'x, y, z'

loop_
  _atom_site_type_symbol
  _atom_site_label
  _atom_site_symmetry_multiplicity
  _atom_site_fract_x
  _atom_site_fract_y
  _atom_site_fract_z
  _atom_site_occupancy
  Ta  Ta1       1.0  0.14000  0.28300  0.00000  1.0000
  Ta  Ta2       1.0  0.29100  0.56900  0.00000  1.0000
  Ta  Ta3       1.0  0.85400  0.72000  0.00000  1.0000
  Ta  Ta4       1.0  0.38300  0.09860  0.50000  1.0000
  Ta  Ta5       1.0  0.67000  0.66100  0.50000  1.0000
  Ta  Ta6       1.0  0.23200  0.81200  0.50000  1.0000
  Ti  Ti1       1.0  0.99500  0.00000  0.00000  1.0000
  Ti  Ti2       1.0  0.57100  0.14800  0.00000  1.0000
  Ti  Ti3       1.0  0.71900  0.42400  0.00000  1.0000
  Ti  Ti4       1.0  0.42900  0.85700  0.00000  1.0000
  Ti  Ti5       1.0  0.95200  0.23300  0.50000  1.0000
  Ti  Ti6       1.0  0.52900  0.38100  0.50000  1.0000
  Ti  Ti7       1.0  0.09520  0.52400  0.50000  1.0000
  Ti  Ti8       1.0  0.80400  0.95700  0.50000  1.0000
