data_image0
_chemical_formula_structural       Ti8V6
_chemical_formula_sum              "Ti8 V6"
_cell_length_a       7.36222
_cell_length_b       7.36608
_cell_length_c       4.60995
_cell_angle_alpha    90
_cell_angle_beta     90
_cell_angle_gamma    60.0702

_space_group_name_H-M_alt    "P 1"
_space_group_IT_number       1

loop_
  _space_group_symop_operation_xyz
  'x, y, z'

loop_
  _atom_site_type_symbol
  _atom_site_label
  _atom_site_symmetry_multiplicity
  _atom_site_fract_x
  _atom_site_fract_y
  _atom_site_fract_z
  _atom_site_occupancy
  Ti  Ti1       1.0  0.56800  0.16300  0.00000  1.0000
  Ti  Ti2       1.0  0.14300  0.28600  0.00000  1.0000
  Ti  Ti3       1.0  0.84000  0.71100  0.00000  1.0000
  Ti  Ti4       1.0  0.02000  0.98300  0.00000  1.0000
  Ti  Ti5       1.0  0.38400  0.07530  0.50000  1.0000
  Ti  Ti6       1.0  0.93200  0.25500  0.50000  1.0000
  Ti  Ti7       1.0  0.11200  0.52700  0.50000  1.0000
  Ti  Ti8       1.0  0.80900  0.95200  0.50000  1.0000
  V   V1        1.0  0.69600  0.43600  0.00000  1.0000
  V   V2        1.0  0.29400  0.58300  0.00000  1.0000
  V   V3        1.0  0.44100  0.83800  0.00000  1.0000
  V   V4        1.0  0.51200  0.40000  0.50000  1.0000
  V   V5        1.0  0.65900  0.65500  0.50000  1.0000
  V   V6        1.0  0.25700  0.80300  0.50000  1.0000
