data_image0
_chemical_formula_structural       Br4Pb6
_chemical_formula_sum              "Br4 Pb6"
_cell_length_a       7.07708
_cell_length_b       7.07708
_cell_length_c       8.42511
_cell_angle_alpha    114.835
_cell_angle_beta     65.1654
_cell_angle_gamma    120

_space_group_name_H-M_alt    "P 1"
_space_group_IT_number       1

loop_
  _space_group_symop_operation_xyz
  'x, y, z'

loop_
  _atom_site_type_symbol
  _atom_site_label
  _atom_site_symmetry_multiplicity
  _atom_site_fract_x
  _atom_site_fract_y
  _atom_site_fract_z
  _atom_site_occupancy
  Br  Br1       1.0  0.31900  0.68100  0.04410  1.0000
  Br  Br2       1.0  0.18100  0.81900  0.45600  1.0000
  Br  Br3       1.0  0.81900  0.18100  0.54400  1.0000
  Br  Br4       1.0  0.68100  0.31900  0.95600  1.0000
  Pb  Pb1       1.0  0.25000  0.24800  0.25000  1.0000
  Pb  Pb2       1.0  0.75200  0.25200  0.25000  1.0000
  Pb  Pb3       1.0  0.74800  0.75000  0.25000  1.0000
  Pb  Pb4       1.0  0.25200  0.25000  0.75000  1.0000
  Pb  Pb5       1.0  0.24800  0.74800  0.75000  1.0000
  Pb  Pb6       1.0  0.75000  0.75200  0.75000  1.0000
