data_image0
_chemical_formula_structural       Th6Ti8
_chemical_formula_sum              "Th6 Ti8"
_cell_length_a       9.01542
_cell_length_b       9.01638
_cell_length_c       4.67637
_cell_angle_alpha    90
_cell_angle_beta     90
_cell_angle_gamma    60.0044

_space_group_name_H-M_alt    "P 1"
_space_group_IT_number       1

loop_
  _space_group_symop_operation_xyz
  'x, y, z'

loop_
  _atom_site_type_symbol
  _atom_site_label
  _atom_site_symmetry_multiplicity
  _atom_site_fract_x
  _atom_site_fract_y
  _atom_site_fract_z
  _atom_site_occupancy
  Th  Th1       1.0  0.78000  0.46600  0.00000  1.0000
  Th  Th2       1.0  0.32300  0.46800  0.00000  1.0000
  Th  Th3       1.0  0.32500  0.92400  0.00000  1.0000
  Th  Th4       1.0  0.62700  0.31400  0.50000  1.0000
  Th  Th5       1.0  0.62900  0.77000  0.50000  1.0000
  Th  Th6       1.0  0.17200  0.77300  0.50000  1.0000
  Ti  Ti1       1.0  0.91900  0.06060  0.00000  1.0000
  Ti  Ti2       1.0  0.59200  0.06180  0.00000  1.0000
  Ti  Ti3       1.0  0.14300  0.28600  0.00000  1.0000
  Ti  Ti4       1.0  0.91800  0.73400  0.00000  1.0000
  Ti  Ti5       1.0  0.36100  0.17600  0.50000  1.0000
  Ti  Ti6       1.0  0.03340  0.17700  0.50000  1.0000
  Ti  Ti7       1.0  0.03450  0.50400  0.50000  1.0000
  Ti  Ti8       1.0  0.81000  0.95200  0.50000  1.0000
