data_image0
_chemical_formula_structural       Co4Dy6
_chemical_formula_sum              "Co4 Dy6"
_cell_length_a       6.61722
_cell_length_b       6.61722
_cell_length_c       7.18563
_cell_angle_alpha    117.416
_cell_angle_beta     62.584
_cell_angle_gamma    120

_space_group_name_H-M_alt    "P 1"
_space_group_IT_number       1

loop_
  _space_group_symop_operation_xyz
  'x, y, z'

loop_
  _atom_site_type_symbol
  _atom_site_label
  _atom_site_symmetry_multiplicity
  _atom_site_fract_x
  _atom_site_fract_y
  _atom_site_fract_z
  _atom_site_occupancy
  Co  Co1       1.0  0.32200  0.67800  0.03270  1.0000
  Co  Co2       1.0  0.17800  0.82200  0.46700  1.0000
  Co  Co3       1.0  0.82200  0.17800  0.53300  1.0000
  Co  Co4       1.0  0.67800  0.32200  0.96700  1.0000
  Dy  Dy1       1.0  0.89800  0.39800  0.25000  1.0000
  Dy  Dy2       1.0  0.60200  0.75000  0.25000  1.0000
  Dy  Dy3       1.0  0.25000  0.10200  0.25000  1.0000
  Dy  Dy4       1.0  0.75000  0.89800  0.75000  1.0000
  Dy  Dy5       1.0  0.39800  0.25000  0.75000  1.0000
  Dy  Dy6       1.0  0.10200  0.60200  0.75000  1.0000
