data_image0
_chemical_formula_structural       Ba4Co6
_chemical_formula_sum              "Ba4 Co6"
_cell_length_a       7.33637
_cell_length_b       7.33637
_cell_length_c       7.74141
_cell_angle_alpha    118.284
_cell_angle_beta     61.7162
_cell_angle_gamma    120

_space_group_name_H-M_alt    "P 1"
_space_group_IT_number       1

loop_
  _space_group_symop_operation_xyz
  'x, y, z'

loop_
  _atom_site_type_symbol
  _atom_site_label
  _atom_site_symmetry_multiplicity
  _atom_site_fract_x
  _atom_site_fract_y
  _atom_site_fract_z
  _atom_site_occupancy
  Ba  Ba1       1.0  0.60100  0.39900  0.19700  1.0000
  Ba  Ba2       1.0  0.89900  0.10100  0.30300  1.0000
  Ba  Ba3       1.0  0.10100  0.89900  0.69700  1.0000
  Ba  Ba4       1.0  0.39900  0.60100  0.80300  1.0000
  Co  Co1       1.0  0.42300  0.75000  0.25000  1.0000
  Co  Co2       1.0  0.07660  0.57700  0.25000  1.0000
  Co  Co3       1.0  0.25000  0.92300  0.25000  1.0000
  Co  Co4       1.0  0.92300  0.42300  0.75000  1.0000
  Co  Co5       1.0  0.57700  0.25000  0.75000  1.0000
  Co  Co6       1.0  0.75000  0.07660  0.75000  1.0000
