data_image0
_chemical_formula_structural       Ag4Co6
_chemical_formula_sum              "Ag4 Co6"
_cell_length_a       6.25858
_cell_length_b       6.25858
_cell_length_c       5.93835
_cell_angle_alpha    121.8
_cell_angle_beta     58.1996
_cell_angle_gamma    120

_space_group_name_H-M_alt    "P 1"
_space_group_IT_number       1

loop_
  _space_group_symop_operation_xyz
  'x, y, z'

loop_
  _atom_site_type_symbol
  _atom_site_label
  _atom_site_symmetry_multiplicity
  _atom_site_fract_x
  _atom_site_fract_y
  _atom_site_fract_z
  _atom_site_occupancy
  Ag  Ag1       1.0  0.59100  0.40900  0.22600  1.0000
  Ag  Ag2       1.0  0.90900  0.09130  0.27400  1.0000
  Ag  Ag3       1.0  0.09130  0.90900  0.72600  1.0000
  Ag  Ag4       1.0  0.40900  0.59100  0.77400  1.0000
  Co  Co1       1.0  0.25000  0.96400  0.25000  1.0000
  Co  Co2       1.0  0.46400  0.75000  0.25000  1.0000
  Co  Co3       1.0  0.03580  0.53600  0.25000  1.0000
  Co  Co4       1.0  0.96400  0.46400  0.75000  1.0000
  Co  Co5       1.0  0.53600  0.25000  0.75000  1.0000
  Co  Co6       1.0  0.75000  0.03580  0.75000  1.0000
