data_image0
_chemical_formula_structural       Te6Ti8
_chemical_formula_sum              "Te6 Ti8"
_cell_length_a       8.20883
_cell_length_b       8.21046
_cell_length_c       5.23698
_cell_angle_alpha    90
_cell_angle_beta     90
_cell_angle_gamma    59.9951

_space_group_name_H-M_alt    "P 1"
_space_group_IT_number       1

loop_
  _space_group_symop_operation_xyz
  'x, y, z'

loop_
  _atom_site_type_symbol
  _atom_site_label
  _atom_site_symmetry_multiplicity
  _atom_site_fract_x
  _atom_site_fract_y
  _atom_site_fract_z
  _atom_site_occupancy
  Te  Te1       1.0  0.78700  0.36100  0.00000  1.0000
  Te  Te2       1.0  0.21800  0.56600  0.00000  1.0000
  Te  Te3       1.0  0.42300  0.93000  0.00000  1.0000
  Te  Te4       1.0  0.52900  0.30800  0.50000  1.0000
  Te  Te5       1.0  0.73400  0.67200  0.50000  1.0000
  Te  Te6       1.0  0.16500  0.87700  0.50000  1.0000
  Ti  Ti1       1.0  0.60500  0.14400  0.00000  1.0000
  Ti  Ti2       1.0  0.14300  0.28600  0.00000  1.0000
  Ti  Ti3       1.0  0.82200  0.74800  0.00000  1.0000
  Ti  Ti4       1.0  0.00119  0.96500  0.00000  1.0000
  Ti  Ti5       1.0  0.34700  0.09390  0.50000  1.0000
  Ti  Ti6       1.0  0.95100  0.27300  0.50000  1.0000
  Ti  Ti7       1.0  0.13000  0.49000  0.50000  1.0000
  Ti  Ti8       1.0  0.81000  0.95200  0.50000  1.0000
