data_image0
_chemical_formula_structural       Re6Ti8
_chemical_formula_sum              "Re6 Ti8"
_cell_length_a       7.62194
_cell_length_b       8.07597
_cell_length_c       4.48888
_cell_angle_alpha    90
_cell_angle_beta     90
_cell_angle_gamma    51.1341

_space_group_name_H-M_alt    "P 1"
_space_group_IT_number       1

loop_
  _space_group_symop_operation_xyz
  'x, y, z'

loop_
  _atom_site_type_symbol
  _atom_site_label
  _atom_site_symmetry_multiplicity
  _atom_site_fract_x
  _atom_site_fract_y
  _atom_site_fract_z
  _atom_site_occupancy
  Re  Re1       1.0  0.65200  0.47800  0.00000  1.0000
  Re  Re2       1.0  0.22600  0.62000  0.00000  1.0000
  Re  Re3       1.0  0.37000  0.90300  0.00000  1.0000
  Re  Re4       1.0  0.58300  0.33500  0.50000  1.0000
  Re  Re5       1.0  0.72600  0.61800  0.50000  1.0000
  Re  Re6       1.0  0.30000  0.76000  0.50000  1.0000
  Ti  Ti1       1.0  0.95300  0.04280  0.00000  1.0000
  Ti  Ti2       1.0  0.50700  0.20400  0.00000  1.0000
  Ti  Ti3       1.0  0.08280  0.32100  0.00000  1.0000
  Ti  Ti4       1.0  0.80200  0.75500  0.00000  1.0000
  Ti  Ti5       1.0  0.44500  0.03400  0.50000  1.0000
  Ti  Ti6       1.0  0.99900  0.19500  0.50000  1.0000
  Ti  Ti7       1.0  0.15100  0.48300  0.50000  1.0000
  Ti  Ti8       1.0  0.87000  0.91700  0.50000  1.0000
