data_image0
_chemical_formula_structural       Co4Cu6
_chemical_formula_sum              "Co4 Cu6"
_cell_length_a       4.88947
_cell_length_b       4.88947
_cell_length_c       6.24465
_cell_angle_alpha    113.047
_cell_angle_beta     66.9526
_cell_angle_gamma    120

_space_group_name_H-M_alt    "P 1"
_space_group_IT_number       1

loop_
  _space_group_symop_operation_xyz
  'x, y, z'

loop_
  _atom_site_type_symbol
  _atom_site_label
  _atom_site_symmetry_multiplicity
  _atom_site_fract_x
  _atom_site_fract_y
  _atom_site_fract_z
  _atom_site_occupancy
  Co  Co1       1.0  0.31000  0.69000  0.07000  1.0000
  Co  Co2       1.0  0.19000  0.81000  0.43000  1.0000
  Co  Co3       1.0  0.81000  0.19000  0.57000  1.0000
  Co  Co4       1.0  0.69000  0.31000  0.93000  1.0000
  Cu  Cu1       1.0  0.25000  0.24900  0.25000  1.0000
  Cu  Cu2       1.0  0.75100  0.25100  0.25000  1.0000
  Cu  Cu3       1.0  0.74900  0.75000  0.25000  1.0000
  Cu  Cu4       1.0  0.25100  0.25000  0.75000  1.0000
  Cu  Cu5       1.0  0.24900  0.74900  0.75000  1.0000
  Cu  Cu6       1.0  0.75000  0.75100  0.75000  1.0000
