data_image0
_chemical_formula_structural       Co4Mo6
_chemical_formula_sum              "Co4 Mo6"
_cell_length_a       6.20444
_cell_length_b       6.20444
_cell_length_c       5.56858
_cell_angle_alpha    123.855
_cell_angle_beta     56.1449
_cell_angle_gamma    120

_space_group_name_H-M_alt    "P 1"
_space_group_IT_number       1

loop_
  _space_group_symop_operation_xyz
  'x, y, z'

loop_
  _atom_site_type_symbol
  _atom_site_label
  _atom_site_symmetry_multiplicity
  _atom_site_fract_x
  _atom_site_fract_y
  _atom_site_fract_z
  _atom_site_occupancy
  Co  Co1       1.0  0.58800  0.41200  0.23500  1.0000
  Co  Co2       1.0  0.91200  0.08840  0.26500  1.0000
  Co  Co3       1.0  0.08840  0.91200  0.73500  1.0000
  Co  Co4       1.0  0.41200  0.58800  0.76500  1.0000
  Mo  Mo1       1.0  0.50700  0.75000  0.25000  1.0000
  Mo  Mo2       1.0  0.99300  0.49300  0.25000  1.0000
  Mo  Mo3       1.0  0.25000  0.00713  0.25000  1.0000
  Mo  Mo4       1.0  0.75000  0.99300  0.75000  1.0000
  Mo  Mo5       1.0  0.00713  0.50700  0.75000  1.0000
  Mo  Mo6       1.0  0.49300  0.25000  0.75000  1.0000
