data_image0
_chemical_formula_structural       As6Zr8
_chemical_formula_sum              "As6 Zr8"
_cell_length_a       8.03701
_cell_length_b       8.03774
_cell_length_c       5.22818
_cell_angle_alpha    90
_cell_angle_beta     90
_cell_angle_gamma    60.0022

_space_group_name_H-M_alt    "P 1"
_space_group_IT_number       1

loop_
  _space_group_symop_operation_xyz
  'x, y, z'

loop_
  _atom_site_type_symbol
  _atom_site_label
  _atom_site_symmetry_multiplicity
  _atom_site_fract_x
  _atom_site_fract_y
  _atom_site_fract_z
  _atom_site_occupancy
  As  As1       1.0  0.13800  0.22600  0.00000  1.0000
  As  As2       1.0  0.35000  0.56700  0.00000  1.0000
  As  As3       1.0  0.79700  0.77900  0.00000  1.0000
  As  As4       1.0  0.38500  0.15500  0.50000  1.0000
  As  As5       1.0  0.72700  0.60200  0.50000  1.0000
  As  As6       1.0  0.17400  0.81400  0.50000  1.0000
  Zr  Zr1       1.0  0.52200  0.18100  0.00000  1.0000
  Zr  Zr2       1.0  0.75300  0.44000  0.00000  1.0000
  Zr  Zr3       1.0  0.42900  0.85700  0.00000  1.0000
  Zr  Zr4       1.0  0.01100  0.95100  0.00000  1.0000
  Zr  Zr5       1.0  0.00168  0.20000  0.50000  1.0000
  Zr  Zr6       1.0  0.51300  0.43000  0.50000  1.0000
  Zr  Zr7       1.0  0.09520  0.52400  0.50000  1.0000
  Zr  Zr8       1.0  0.77100  0.94100  0.50000  1.0000
