data_image0
_chemical_formula_structural       As4Co6
_chemical_formula_sum              "As4 Co6"
_cell_length_a       6.12389
_cell_length_b       6.12389
_cell_length_c       5.43555
_cell_angle_alpha    124.286
_cell_angle_beta     55.7145
_cell_angle_gamma    120

_space_group_name_H-M_alt    "P 1"
_space_group_IT_number       1

loop_
  _space_group_symop_operation_xyz
  'x, y, z'

loop_
  _atom_site_type_symbol
  _atom_site_label
  _atom_site_symmetry_multiplicity
  _atom_site_fract_x
  _atom_site_fract_y
  _atom_site_fract_z
  _atom_site_occupancy
  As  As1       1.0  0.61600  0.38400  0.15300  1.0000
  As  As2       1.0  0.88400  0.11600  0.34700  1.0000
  As  As3       1.0  0.11600  0.88400  0.65300  1.0000
  As  As4       1.0  0.38400  0.61600  0.84700  1.0000
  Co  Co1       1.0  0.25000  0.02160  0.25000  1.0000
  Co  Co2       1.0  0.97800  0.47800  0.25000  1.0000
  Co  Co3       1.0  0.52200  0.75000  0.25000  1.0000
  Co  Co4       1.0  0.47800  0.25000  0.75000  1.0000
  Co  Co5       1.0  0.02160  0.52200  0.75000  1.0000
  Co  Co6       1.0  0.75000  0.97800  0.75000  1.0000
