data_image0
_chemical_formula_structural       Os6Ti8
_chemical_formula_sum              "Os6 Ti8"
_cell_length_a       7.52889
_cell_length_b       7.53035
_cell_length_c       4.43144
_cell_angle_alpha    90
_cell_angle_beta     90
_cell_angle_gamma    59.9959

_space_group_name_H-M_alt    "P 1"
_space_group_IT_number       1

loop_
  _space_group_symop_operation_xyz
  'x, y, z'

loop_
  _atom_site_type_symbol
  _atom_site_label
  _atom_site_symmetry_multiplicity
  _atom_site_fract_x
  _atom_site_fract_y
  _atom_site_fract_z
  _atom_site_occupancy
  Os  Os1       1.0  0.13000  0.29300  0.00000  1.0000
  Os  Os2       1.0  0.29100  0.55900  0.00000  1.0000
  Os  Os3       1.0  0.86400  0.72000  0.00000  1.0000
  Os  Os4       1.0  0.39400  0.08830  0.50000  1.0000
  Os  Os5       1.0  0.66000  0.66100  0.50000  1.0000
  Os  Os6       1.0  0.23200  0.82200  0.50000  1.0000
  Ti  Ti1       1.0  0.52900  0.17600  0.00000  1.0000
  Ti  Ti2       1.0  0.74700  0.43800  0.00000  1.0000
  Ti  Ti3       1.0  0.42900  0.85700  0.00000  1.0000
  Ti  Ti4       1.0  0.00938  0.95800  0.00000  1.0000
  Ti  Ti5       1.0  0.99500  0.20500  0.50000  1.0000
  Ti  Ti6       1.0  0.51400  0.42300  0.50000  1.0000
  Ti  Ti7       1.0  0.09520  0.52400  0.50000  1.0000
  Ti  Ti8       1.0  0.77600  0.94300  0.50000  1.0000
