data_image0
_chemical_formula_structural       Co4Ho6
_chemical_formula_sum              "Co4 Ho6"
_cell_length_a       6.58247
_cell_length_b       6.58248
_cell_length_c       7.13742
_cell_angle_alpha    117.46
_cell_angle_beta     62.5403
_cell_angle_gamma    120

_space_group_name_H-M_alt    "P 1"
_space_group_IT_number       1

loop_
  _space_group_symop_operation_xyz
  'x, y, z'

loop_
  _atom_site_type_symbol
  _atom_site_label
  _atom_site_symmetry_multiplicity
  _atom_site_fract_x
  _atom_site_fract_y
  _atom_site_fract_z
  _atom_site_occupancy
  Co  Co1       1.0  0.32000  0.68000  0.04010  1.0000
  Co  Co2       1.0  0.18000  0.82000  0.46000  1.0000
  Co  Co3       1.0  0.82000  0.18000  0.54000  1.0000
  Co  Co4       1.0  0.68000  0.32000  0.96000  1.0000
  Ho  Ho1       1.0  0.61000  0.75000  0.25000  1.0000
  Ho  Ho2       1.0  0.89000  0.39000  0.25000  1.0000
  Ho  Ho3       1.0  0.25000  0.11000  0.25000  1.0000
  Ho  Ho4       1.0  0.75000  0.89000  0.75000  1.0000
  Ho  Ho5       1.0  0.11000  0.61000  0.75000  1.0000
  Ho  Ho6       1.0  0.39000  0.25000  0.75000  1.0000
