data_image0
_chemical_formula_structural       Ti8Y6
_chemical_formula_sum              "Ti8 Y6"
_cell_length_a       8.6849
_cell_length_b       8.68366
_cell_length_c       4.90874
_cell_angle_alpha    90
_cell_angle_beta     90
_cell_angle_gamma    60.0078

_space_group_name_H-M_alt    "P 1"
_space_group_IT_number       1

loop_
  _space_group_symop_operation_xyz
  'x, y, z'

loop_
  _atom_site_type_symbol
  _atom_site_label
  _atom_site_symmetry_multiplicity
  _atom_site_fract_x
  _atom_site_fract_y
  _atom_site_fract_z
  _atom_site_occupancy
  Ti  Ti1       1.0  0.95600  0.01560  0.00000  1.0000
  Ti  Ti2       1.0  0.60000  0.09910  0.00000  1.0000
  Ti  Ti3       1.0  0.14300  0.28600  0.00000  1.0000
  Ti  Ti4       1.0  0.87300  0.74300  0.00000  1.0000
  Ti  Ti5       1.0  0.35300  0.13900  0.50000  1.0000
  Ti  Ti6       1.0  0.99600  0.22300  0.50000  1.0000
  Ti  Ti7       1.0  0.07970  0.49500  0.50000  1.0000
  Ti  Ti8       1.0  0.81000  0.95200  0.50000  1.0000
  Y   Y1        1.0  0.75100  0.41600  0.00000  1.0000
  Y   Y2        1.0  0.27300  0.54800  0.00000  1.0000
  Y   Y3        1.0  0.40500  0.89300  0.00000  1.0000
  Y   Y4        1.0  0.54700  0.34500  0.50000  1.0000
  Y   Y5        1.0  0.67900  0.69000  0.50000  1.0000
  Y   Y6        1.0  0.20200  0.82200  0.50000  1.0000
