data_image0
_chemical_formula_structural       Co4Lu6
_chemical_formula_sum              "Co4 Lu6"
_cell_length_a       6.47212
_cell_length_b       6.47212
_cell_length_c       7.01337
_cell_angle_alpha    117.478
_cell_angle_beta     62.5217
_cell_angle_gamma    120

_space_group_name_H-M_alt    "P 1"
_space_group_IT_number       1

loop_
  _space_group_symop_operation_xyz
  'x, y, z'

loop_
  _atom_site_type_symbol
  _atom_site_label
  _atom_site_symmetry_multiplicity
  _atom_site_fract_x
  _atom_site_fract_y
  _atom_site_fract_z
  _atom_site_occupancy
  Co  Co1       1.0  0.32000  0.68000  0.03960  1.0000
  Co  Co2       1.0  0.18000  0.82000  0.46000  1.0000
  Co  Co3       1.0  0.82000  0.18000  0.54000  1.0000
  Co  Co4       1.0  0.68000  0.32000  0.96000  1.0000
  Lu  Lu1       1.0  0.25000  0.11100  0.25000  1.0000
  Lu  Lu2       1.0  0.88900  0.38900  0.25000  1.0000
  Lu  Lu3       1.0  0.61100  0.75000  0.25000  1.0000
  Lu  Lu4       1.0  0.38900  0.25000  0.75000  1.0000
  Lu  Lu5       1.0  0.11100  0.61100  0.75000  1.0000
  Lu  Lu6       1.0  0.75000  0.88900  0.75000  1.0000
