data_image0
_chemical_formula_structural       Tc6Ti8
_chemical_formula_sum              "Tc6 Ti8"
_cell_length_a       7.31057
_cell_length_b       7.30377
_cell_length_c       4.80186
_cell_angle_alpha    90
_cell_angle_beta     90
_cell_angle_gamma    59.9451

_space_group_name_H-M_alt    "P 1"
_space_group_IT_number       1

loop_
  _space_group_symop_operation_xyz
  'x, y, z'

loop_
  _atom_site_type_symbol
  _atom_site_label
  _atom_site_symmetry_multiplicity
  _atom_site_fract_x
  _atom_site_fract_y
  _atom_site_fract_z
  _atom_site_occupancy
  Tc  Tc1       1.0  0.73900  0.43400  0.00000  1.0000
  Tc  Tc2       1.0  0.29100  0.54100  0.00000  1.0000
  Tc  Tc3       1.0  0.39800  0.88200  0.00000  1.0000
  Tc  Tc4       1.0  0.55400  0.35600  0.50000  1.0000
  Tc  Tc5       1.0  0.66100  0.69700  0.50000  1.0000
  Tc  Tc6       1.0  0.21300  0.80400  0.50000  1.0000
  Ti  Ti1       1.0  0.57100  0.17000  0.00000  1.0000
  Ti  Ti2       1.0  0.14300  0.28600  0.00000  1.0000
  Ti  Ti3       1.0  0.83000  0.71400  0.00000  1.0000
  Ti  Ti4       1.0  0.02720  0.97300  0.00000  1.0000
  Ti  Ti5       1.0  0.38100  0.06760  0.50000  1.0000
  Ti  Ti6       1.0  0.92500  0.26500  0.50000  1.0000
  Ti  Ti7       1.0  0.12300  0.52400  0.50000  1.0000
  Ti  Ti8       1.0  0.81000  0.95200  0.50000  1.0000
