data_image0
_chemical_formula_structural       Co6Ti8
_chemical_formula_sum              "Co6 Ti8"
_cell_length_a       7.20568
_cell_length_b       7.20523
_cell_length_c       4.232
_cell_angle_alpha    90
_cell_angle_beta     90
_cell_angle_gamma    59.9987

_space_group_name_H-M_alt    "P 1"
_space_group_IT_number       1

loop_
  _space_group_symop_operation_xyz
  'x, y, z'

loop_
  _atom_site_type_symbol
  _atom_site_label
  _atom_site_symmetry_multiplicity
  _atom_site_fract_x
  _atom_site_fract_y
  _atom_site_fract_z
  _atom_site_occupancy
  Co  Co1       1.0  0.13200  0.29400  0.00000  1.0000
  Co  Co2       1.0  0.28800  0.56100  0.00000  1.0000
  Co  Co3       1.0  0.86600  0.71700  0.00000  1.0000
  Co  Co4       1.0  0.39200  0.08680  0.50000  1.0000
  Co  Co5       1.0  0.65800  0.66400  0.50000  1.0000
  Co  Co6       1.0  0.23600  0.82000  0.50000  1.0000
  Ti  Ti1       1.0  0.51200  0.19100  0.00000  1.0000
  Ti  Ti2       1.0  0.76200  0.44000  0.00000  1.0000
  Ti  Ti3       1.0  0.42900  0.85700  0.00000  1.0000
  Ti  Ti4       1.0  0.01180  0.94000  0.00000  1.0000
  Ti  Ti5       1.0  0.01190  0.19000  0.50000  1.0000
  Ti  Ti6       1.0  0.51200  0.44100  0.50000  1.0000
  Ti  Ti7       1.0  0.09520  0.52400  0.50000  1.0000
  Ti  Ti8       1.0  0.76200  0.94100  0.50000  1.0000
