data_image0
_chemical_formula_structural       Sr6Ti8
_chemical_formula_sum              "Sr6 Ti8"
_cell_length_a       10.1048
_cell_length_b       10.1046
_cell_length_c       5.02355
_cell_angle_alpha    90
_cell_angle_beta     90
_cell_angle_gamma    59.9951

_space_group_name_H-M_alt    "P 1"
_space_group_IT_number       1

loop_
  _space_group_symop_operation_xyz
  'x, y, z'

loop_
  _atom_site_type_symbol
  _atom_site_label
  _atom_site_symmetry_multiplicity
  _atom_site_fract_x
  _atom_site_fract_y
  _atom_site_fract_z
  _atom_site_occupancy
  Sr  Sr1       1.0  0.09700  0.28100  0.00000  1.0000
  Sr  Sr2       1.0  0.33700  0.52600  0.00000  1.0000
  Sr  Sr3       1.0  0.85200  0.76500  0.00000  1.0000
  Sr  Sr4       1.0  0.42700  0.10000  0.50000  1.0000
  Sr  Sr5       1.0  0.67200  0.61600  0.50000  1.0000
  Sr  Sr6       1.0  0.18700  0.85500  0.50000  1.0000
  Ti  Ti1       1.0  0.92600  0.06490  0.00000  1.0000
  Ti  Ti2       1.0  0.63600  0.15200  0.00000  1.0000
  Ti  Ti3       1.0  0.72300  0.35500  0.00000  1.0000
  Ti  Ti4       1.0  0.42900  0.85700  0.00000  1.0000
  Ti  Ti5       1.0  0.80100  0.02580  0.50000  1.0000
  Ti  Ti6       1.0  0.88800  0.22900  0.50000  1.0000
  Ti  Ti7       1.0  0.59700  0.31600  0.50000  1.0000
  Ti  Ti8       1.0  0.09520  0.52400  0.50000  1.0000
