data_image0
_chemical_formula_structural       B4Co6
_chemical_formula_sum              "B4 Co6"
_cell_length_a       4.84354
_cell_length_b       4.84354
_cell_length_c       5.16939
_cell_angle_alpha    117.936
_cell_angle_beta     62.0642
_cell_angle_gamma    120

_space_group_name_H-M_alt    "P 1"
_space_group_IT_number       1

loop_
  _space_group_symop_operation_xyz
  'x, y, z'

loop_
  _atom_site_type_symbol
  _atom_site_label
  _atom_site_symmetry_multiplicity
  _atom_site_fract_x
  _atom_site_fract_y
  _atom_site_fract_z
  _atom_site_occupancy
  B   B1        1.0  0.31700  0.68300  0.05000  1.0000
  B   B2        1.0  0.18300  0.81700  0.45000  1.0000
  B   B3        1.0  0.81700  0.18300  0.55000  1.0000
  B   B4        1.0  0.68300  0.31700  0.95000  1.0000
  Co  Co1       1.0  0.87200  0.37200  0.25000  1.0000
  Co  Co2       1.0  0.62800  0.75000  0.25000  1.0000
  Co  Co3       1.0  0.25000  0.12800  0.25000  1.0000
  Co  Co4       1.0  0.75000  0.87200  0.75000  1.0000
  Co  Co5       1.0  0.37200  0.25000  0.75000  1.0000
  Co  Co6       1.0  0.12800  0.62800  0.75000  1.0000
