data_image0
_chemical_formula_structural       Ti8Zr6
_chemical_formula_sum              "Ti8 Zr6"
_cell_length_a       8.16337
_cell_length_b       8.16475
_cell_length_c       4.79819
_cell_angle_alpha    90
_cell_angle_beta     90
_cell_angle_gamma    60.0146

_space_group_name_H-M_alt    "P 1"
_space_group_IT_number       1

loop_
  _space_group_symop_operation_xyz
  'x, y, z'

loop_
  _atom_site_type_symbol
  _atom_site_label
  _atom_site_symmetry_multiplicity
  _atom_site_fract_x
  _atom_site_fract_y
  _atom_site_fract_z
  _atom_site_occupancy
  Ti  Ti1       1.0  0.97100  0.01570  0.00000  1.0000
  Ti  Ti2       1.0  0.58500  0.11400  0.00000  1.0000
  Ti  Ti3       1.0  0.14300  0.28600  0.00000  1.0000
  Ti  Ti4       1.0  0.87300  0.72700  0.00000  1.0000
  Ti  Ti5       1.0  0.36800  0.12400  0.50000  1.0000
  Ti  Ti6       1.0  0.98100  0.22200  0.50000  1.0000
  Ti  Ti7       1.0  0.07950  0.51100  0.50000  1.0000
  Ti  Ti8       1.0  0.81000  0.95200  0.50000  1.0000
  Zr  Zr1       1.0  0.73600  0.42100  0.00000  1.0000
  Zr  Zr2       1.0  0.27900  0.55700  0.00000  1.0000
  Zr  Zr3       1.0  0.41400  0.87900  0.00000  1.0000
  Zr  Zr4       1.0  0.53800  0.35900  0.50000  1.0000
  Zr  Zr5       1.0  0.67400  0.68100  0.50000  1.0000
  Zr  Zr6       1.0  0.21600  0.81700  0.50000  1.0000
