data_image0
_chemical_formula_structural       Br4Sr6
_chemical_formula_sum              "Br4 Sr6"
_cell_length_a       7.71082
_cell_length_b       7.71083
_cell_length_c       8.68708
_cell_angle_alpha    116.347
_cell_angle_beta     63.6528
_cell_angle_gamma    120

_space_group_name_H-M_alt    "P 1"
_space_group_IT_number       1

loop_
  _space_group_symop_operation_xyz
  'x, y, z'

loop_
  _atom_site_type_symbol
  _atom_site_label
  _atom_site_symmetry_multiplicity
  _atom_site_fract_x
  _atom_site_fract_y
  _atom_site_fract_z
  _atom_site_occupancy
  Br  Br1       1.0  0.33000  0.67000  0.00940  1.0000
  Br  Br2       1.0  0.17000  0.83000  0.49100  1.0000
  Br  Br3       1.0  0.83000  0.17000  0.50900  1.0000
  Br  Br4       1.0  0.67000  0.33000  0.99100  1.0000
  Sr  Sr1       1.0  0.59600  0.75000  0.25000  1.0000
  Sr  Sr2       1.0  0.25000  0.09600  0.25000  1.0000
  Sr  Sr3       1.0  0.90400  0.40400  0.25000  1.0000
  Sr  Sr4       1.0  0.09600  0.59600  0.75000  1.0000
  Sr  Sr5       1.0  0.75000  0.90400  0.75000  1.0000
  Sr  Sr6       1.0  0.40400  0.25000  0.75000  1.0000
