data_image0
_chemical_formula_structural       Al4Co6
_chemical_formula_sum              "Al4 Co6"
_cell_length_a       5.95077
_cell_length_b       5.95077
_cell_length_c       5.37782
_cell_angle_alpha    123.592
_cell_angle_beta     56.4084
_cell_angle_gamma    120

_space_group_name_H-M_alt    "P 1"
_space_group_IT_number       1

loop_
  _space_group_symop_operation_xyz
  'x, y, z'

loop_
  _atom_site_type_symbol
  _atom_site_label
  _atom_site_symmetry_multiplicity
  _atom_site_fract_x
  _atom_site_fract_y
  _atom_site_fract_z
  _atom_site_occupancy
  Al  Al1       1.0  0.60000  0.40000  0.19900  1.0000
  Al  Al2       1.0  0.90000  0.10000  0.30100  1.0000
  Al  Al3       1.0  0.10000  0.90000  0.69900  1.0000
  Al  Al4       1.0  0.40000  0.60000  0.80100  1.0000
  Co  Co1       1.0  0.49800  0.75000  0.25000  1.0000
  Co  Co2       1.0  0.25000  0.99800  0.25000  1.0000
  Co  Co3       1.0  0.00194  0.50200  0.25000  1.0000
  Co  Co4       1.0  0.75000  0.00194  0.75000  1.0000
  Co  Co5       1.0  0.50200  0.25000  0.75000  1.0000
  Co  Co6       1.0  0.99800  0.49800  0.75000  1.0000
