data_image0
_chemical_formula_structural       Rb6Ti8
_chemical_formula_sum              "Rb6 Ti8"
_cell_length_a       11.5554
_cell_length_b       11.525
_cell_length_c       4.51223
_cell_angle_alpha    90
_cell_angle_beta     90
_cell_angle_gamma    59.7999

_space_group_name_H-M_alt    "P 1"
_space_group_IT_number       1

loop_
  _space_group_symop_operation_xyz
  'x, y, z'

loop_
  _atom_site_type_symbol
  _atom_site_label
  _atom_site_symmetry_multiplicity
  _atom_site_fract_x
  _atom_site_fract_y
  _atom_site_fract_z
  _atom_site_occupancy
  Rb  Rb1       1.0  0.79200  0.39700  0.00000  1.0000
  Rb  Rb2       1.0  0.25500  0.52600  0.00000  1.0000
  Rb  Rb3       1.0  0.38300  0.93400  0.00000  1.0000
  Rb  Rb4       1.0  0.57000  0.30400  0.50000  1.0000
  Rb  Rb5       1.0  0.69800  0.71200  0.50000  1.0000
  Rb  Rb6       1.0  0.16100  0.84200  0.50000  1.0000
  Ti  Ti1       1.0  0.66000  0.01420  0.00000  1.0000
  Ti  Ti2       1.0  0.87100  0.03770  0.00000  1.0000
  Ti  Ti3       1.0  0.14300  0.28700  0.00000  1.0000
  Ti  Ti4       1.0  0.89600  0.80200  0.00000  1.0000
  Ti  Ti5       1.0  0.08140  0.20000  0.50000  1.0000
  Ti  Ti6       1.0  0.29200  0.22400  0.50000  1.0000
  Ti  Ti7       1.0  0.05630  0.43600  0.50000  1.0000
  Ti  Ti8       1.0  0.80900  0.95100  0.50000  1.0000
