data_image0
_chemical_formula_structural       Au6Zr8
_chemical_formula_sum              "Au6 Zr8"
_cell_length_a       8.11066
_cell_length_b       8.11096
_cell_length_c       4.9123
_cell_angle_alpha    90
_cell_angle_beta     90
_cell_angle_gamma    60.002

_space_group_name_H-M_alt    "P 1"
_space_group_IT_number       1

loop_
  _space_group_symop_operation_xyz
  'x, y, z'

loop_
  _atom_site_type_symbol
  _atom_site_label
  _atom_site_symmetry_multiplicity
  _atom_site_fract_x
  _atom_site_fract_y
  _atom_site_fract_z
  _atom_site_occupancy
  Au  Au1       1.0  0.15000  0.27700  0.00000  1.0000
  Au  Au2       1.0  0.28700  0.57800  0.00000  1.0000
  Au  Au3       1.0  0.84900  0.71600  0.00000  1.0000
  Au  Au4       1.0  0.37400  0.10400  0.50000  1.0000
  Au  Au5       1.0  0.67500  0.66500  0.50000  1.0000
  Au  Au6       1.0  0.23700  0.80300  0.50000  1.0000
  Zr  Zr1       1.0  0.55300  0.16100  0.00000  1.0000
  Zr  Zr2       1.0  0.73200  0.42900  0.00000  1.0000
  Zr  Zr3       1.0  0.42900  0.85700  0.00000  1.0000
  Zr  Zr4       1.0  0.00073  0.98100  0.00000  1.0000
  Zr  Zr5       1.0  0.97100  0.22000  0.50000  1.0000
  Zr  Zr6       1.0  0.52300  0.39900  0.50000  1.0000
  Zr  Zr7       1.0  0.09530  0.52400  0.50000  1.0000
  Zr  Zr8       1.0  0.79200  0.95200  0.50000  1.0000
