data_image0
_chemical_formula_structural       Co4Hg6
_chemical_formula_sum              "Co4 Hg6"
_cell_length_a       5.90686
_cell_length_b       5.90686
_cell_length_c       7.20891
_cell_angle_alpha    114.185
_cell_angle_beta     65.8145
_cell_angle_gamma    120

_space_group_name_H-M_alt    "P 1"
_space_group_IT_number       1

loop_
  _space_group_symop_operation_xyz
  'x, y, z'

loop_
  _atom_site_type_symbol
  _atom_site_label
  _atom_site_symmetry_multiplicity
  _atom_site_fract_x
  _atom_site_fract_y
  _atom_site_fract_z
  _atom_site_occupancy
  Co  Co1       1.0  0.31000  0.69000  0.07140  1.0000
  Co  Co2       1.0  0.19000  0.81000  0.42900  1.0000
  Co  Co3       1.0  0.81000  0.19000  0.57100  1.0000
  Co  Co4       1.0  0.69000  0.31000  0.92900  1.0000
  Hg  Hg1       1.0  0.25000  0.16700  0.25000  1.0000
  Hg  Hg2       1.0  0.83300  0.33300  0.25000  1.0000
  Hg  Hg3       1.0  0.66700  0.75000  0.25000  1.0000
  Hg  Hg4       1.0  0.33300  0.25000  0.75000  1.0000
  Hg  Hg5       1.0  0.16700  0.66700  0.75000  1.0000
  Hg  Hg6       1.0  0.75000  0.83300  0.75000  1.0000
