data_image0
_chemical_formula_structural       Ni4Pd6
_chemical_formula_sum              "Ni4 Pd6"
_cell_length_a       6.50124
_cell_length_b       6.50124
_cell_length_c       5.52972
_cell_angle_alpha    126.004
_cell_angle_beta     53.9957
_cell_angle_gamma    120

_space_group_name_H-M_alt    "P 1"
_space_group_IT_number       1

loop_
  _space_group_symop_operation_xyz
  'x, y, z'

loop_
  _atom_site_type_symbol
  _atom_site_label
  _atom_site_symmetry_multiplicity
  _atom_site_fract_x
  _atom_site_fract_y
  _atom_site_fract_z
  _atom_site_occupancy
  Ni  Ni1       1.0  0.59200  0.40800  0.22500  1.0000
  Ni  Ni2       1.0  0.90800  0.09150  0.27500  1.0000
  Ni  Ni3       1.0  0.09150  0.90800  0.72500  1.0000
  Ni  Ni4       1.0  0.40800  0.59200  0.77500  1.0000
  Pd  Pd1       1.0  0.50600  0.75000  0.25000  1.0000
  Pd  Pd2       1.0  0.99400  0.49400  0.25000  1.0000
  Pd  Pd3       1.0  0.25000  0.00561  0.25000  1.0000
  Pd  Pd4       1.0  0.75000  0.99400  0.75000  1.0000
  Pd  Pd5       1.0  0.00561  0.50600  0.75000  1.0000
  Pd  Pd6       1.0  0.49400  0.25000  0.75000  1.0000
