data_image0
_chemical_formula_structural       Co4Ti6
_chemical_formula_sum              "Co4 Ti6"
_cell_length_a       5.51615
_cell_length_b       5.51615
_cell_length_c       6.41657
_cell_angle_alpha    115.457
_cell_angle_beta     64.5428
_cell_angle_gamma    120

_space_group_name_H-M_alt    "P 1"
_space_group_IT_number       1

loop_
  _space_group_symop_operation_xyz
  'x, y, z'

loop_
  _atom_site_type_symbol
  _atom_site_label
  _atom_site_symmetry_multiplicity
  _atom_site_fract_x
  _atom_site_fract_y
  _atom_site_fract_z
  _atom_site_occupancy
  Co  Co1       1.0  0.31700  0.68300  0.04900  1.0000
  Co  Co2       1.0  0.18300  0.81700  0.45100  1.0000
  Co  Co3       1.0  0.81700  0.18300  0.54900  1.0000
  Co  Co4       1.0  0.68300  0.31700  0.95100  1.0000
  Ti  Ti1       1.0  0.25000  0.17600  0.25000  1.0000
  Ti  Ti2       1.0  0.82400  0.32400  0.25000  1.0000
  Ti  Ti3       1.0  0.67600  0.75000  0.25000  1.0000
  Ti  Ti4       1.0  0.32400  0.25000  0.75000  1.0000
  Ti  Ti5       1.0  0.17600  0.67600  0.75000  1.0000
  Ti  Ti6       1.0  0.75000  0.82400  0.75000  1.0000
