data_image0
_chemical_formula_structural       Co4Pd6
_chemical_formula_sum              "Co4 Pd6"
_cell_length_a       6.16687
_cell_length_b       6.16687
_cell_length_c       5.50419
_cell_angle_alpha    124.069
_cell_angle_beta     55.9306
_cell_angle_gamma    120

_space_group_name_H-M_alt    "P 1"
_space_group_IT_number       1

loop_
  _space_group_symop_operation_xyz
  'x, y, z'

loop_
  _atom_site_type_symbol
  _atom_site_label
  _atom_site_symmetry_multiplicity
  _atom_site_fract_x
  _atom_site_fract_y
  _atom_site_fract_z
  _atom_site_occupancy
  Co  Co1       1.0  0.58600  0.41400  0.24200  1.0000
  Co  Co2       1.0  0.91400  0.08590  0.25800  1.0000
  Co  Co3       1.0  0.08590  0.91400  0.74200  1.0000
  Co  Co4       1.0  0.41400  0.58600  0.75800  1.0000
  Pd  Pd1       1.0  0.50200  0.75000  0.25000  1.0000
  Pd  Pd2       1.0  0.99800  0.49800  0.25000  1.0000
  Pd  Pd3       1.0  0.25000  0.00207  0.25000  1.0000
  Pd  Pd4       1.0  0.00208  0.50200  0.75000  1.0000
  Pd  Pd5       1.0  0.49800  0.25000  0.75000  1.0000
  Pd  Pd6       1.0  0.75000  0.99800  0.75000  1.0000
