data_image0
_chemical_formula_structural       Ag6Zr8
_chemical_formula_sum              "Ag6 Zr8"
_cell_length_a       8.19255
_cell_length_b       8.19101
_cell_length_c       4.94563
_cell_angle_alpha    90
_cell_angle_beta     90
_cell_angle_gamma    59.9976

_space_group_name_H-M_alt    "P 1"
_space_group_IT_number       1

loop_
  _space_group_symop_operation_xyz
  'x, y, z'

loop_
  _atom_site_type_symbol
  _atom_site_label
  _atom_site_symmetry_multiplicity
  _atom_site_fract_x
  _atom_site_fract_y
  _atom_site_fract_z
  _atom_site_occupancy
  Ag  Ag1       1.0  0.70700  0.43500  0.00000  1.0000
  Ag  Ag2       1.0  0.29200  0.57200  0.00000  1.0000
  Ag  Ag3       1.0  0.43000  0.85000  0.00000  1.0000
  Ag  Ag4       1.0  0.52300  0.38800  0.50000  1.0000
  Ag  Ag5       1.0  0.66000  0.66600  0.50000  1.0000
  Ag  Ag6       1.0  0.24500  0.80300  0.50000  1.0000
  Zr  Zr1       1.0  0.57700  0.15500  0.00000  1.0000
  Zr  Zr2       1.0  0.14300  0.28600  0.00000  1.0000
  Zr  Zr3       1.0  0.84000  0.72000  0.00000  1.0000
  Zr  Zr4       1.0  0.01180  0.98300  0.00000  1.0000
  Zr  Zr5       1.0  0.37600  0.08350  0.50000  1.0000
  Zr  Zr6       1.0  0.94100  0.25500  0.50000  1.0000
  Zr  Zr7       1.0  0.11200  0.51800  0.50000  1.0000
  Zr  Zr8       1.0  0.81000  0.95200  0.50000  1.0000
