data_image0
_chemical_formula_structural       Mg4Ti6
_chemical_formula_sum              "Mg4 Ti6"
_cell_length_a       5.39593
_cell_length_b       5.39594
_cell_length_c       8.515
_cell_angle_alpha    108.472
_cell_angle_beta     71.5275
_cell_angle_gamma    120

_space_group_name_H-M_alt    "P 1"
_space_group_IT_number       1

loop_
  _space_group_symop_operation_xyz
  'x, y, z'

loop_
  _atom_site_type_symbol
  _atom_site_label
  _atom_site_symmetry_multiplicity
  _atom_site_fract_x
  _atom_site_fract_y
  _atom_site_fract_z
  _atom_site_occupancy
  Mg  Mg1       1.0  0.31100  0.68900  0.06790  1.0000
  Mg  Mg2       1.0  0.18900  0.81100  0.43200  1.0000
  Mg  Mg3       1.0  0.81100  0.18900  0.56800  1.0000
  Mg  Mg4       1.0  0.68900  0.31100  0.93200  1.0000
  Ti  Ti1       1.0  0.25000  0.24400  0.25000  1.0000
  Ti  Ti2       1.0  0.75600  0.25600  0.25000  1.0000
  Ti  Ti3       1.0  0.74400  0.75000  0.25000  1.0000
  Ti  Ti4       1.0  0.25600  0.25000  0.75000  1.0000
  Ti  Ti5       1.0  0.24400  0.74400  0.75000  1.0000
  Ti  Ti6       1.0  0.75000  0.75600  0.75000  1.0000
