data_image0
_chemical_formula_structural       Ac4Co6
_chemical_formula_sum              "Ac4 Co6"
_cell_length_a       6.60278
_cell_length_b       6.60279
_cell_length_c       7.24213
_cell_angle_alpha    117.12
_cell_angle_beta     62.8798
_cell_angle_gamma    120

_space_group_name_H-M_alt    "P 1"
_space_group_IT_number       1

loop_
  _space_group_symop_operation_xyz
  'x, y, z'

loop_
  _atom_site_type_symbol
  _atom_site_label
  _atom_site_symmetry_multiplicity
  _atom_site_fract_x
  _atom_site_fract_y
  _atom_site_fract_z
  _atom_site_occupancy
  Ac  Ac1       1.0  0.60400  0.39600  0.18900  1.0000
  Ac  Ac2       1.0  0.89600  0.10400  0.31100  1.0000
  Ac  Ac3       1.0  0.10400  0.89600  0.68900  1.0000
  Ac  Ac4       1.0  0.39600  0.60400  0.81100  1.0000
  Co  Co1       1.0  0.25000  0.95300  0.25000  1.0000
  Co  Co2       1.0  0.45300  0.75000  0.25000  1.0000
  Co  Co3       1.0  0.04730  0.54700  0.25000  1.0000
  Co  Co4       1.0  0.75000  0.04730  0.75000  1.0000
  Co  Co5       1.0  0.54700  0.25000  0.75000  1.0000
  Co  Co6       1.0  0.95300  0.45300  0.75000  1.0000
