data_image0
_chemical_formula_structural       Co4Re6
_chemical_formula_sum              "Co4 Re6"
_cell_length_a       6.17919
_cell_length_b       6.17919
_cell_length_c       5.43665
_cell_angle_alpha    124.631
_cell_angle_beta     55.3689
_cell_angle_gamma    120

_space_group_name_H-M_alt    "P 1"
_space_group_IT_number       1

loop_
  _space_group_symop_operation_xyz
  'x, y, z'

loop_
  _atom_site_type_symbol
  _atom_site_label
  _atom_site_symmetry_multiplicity
  _atom_site_fract_x
  _atom_site_fract_y
  _atom_site_fract_z
  _atom_site_occupancy
  Co  Co1       1.0  0.59000  0.41000  0.23100  1.0000
  Co  Co2       1.0  0.91000  0.08960  0.26900  1.0000
  Co  Co3       1.0  0.08960  0.91000  0.73100  1.0000
  Co  Co4       1.0  0.41000  0.59000  0.76900  1.0000
  Re  Re1       1.0  0.50300  0.75000  0.25000  1.0000
  Re  Re2       1.0  0.25000  0.00297  0.25000  1.0000
  Re  Re3       1.0  0.99700  0.49700  0.25000  1.0000
  Re  Re4       1.0  0.00297  0.50300  0.75000  1.0000
  Re  Re5       1.0  0.75000  0.99700  0.75000  1.0000
  Re  Re6       1.0  0.49700  0.25000  0.75000  1.0000
