data_image0
_chemical_formula_structural       Co4Fe6
_chemical_formula_sum              "Co4 Fe6"
_cell_length_a       5.90459
_cell_length_b       5.90459
_cell_length_c       5.29704
_cell_angle_alpha    123.873
_cell_angle_beta     56.1275
_cell_angle_gamma    120

_space_group_name_H-M_alt    "P 1"
_space_group_IT_number       1

loop_
  _space_group_symop_operation_xyz
  'x, y, z'

loop_
  _atom_site_type_symbol
  _atom_site_label
  _atom_site_symmetry_multiplicity
  _atom_site_fract_x
  _atom_site_fract_y
  _atom_site_fract_z
  _atom_site_occupancy
  Co  Co1       1.0  0.59300  0.40700  0.22200  1.0000
  Co  Co2       1.0  0.90700  0.09270  0.27800  1.0000
  Co  Co3       1.0  0.09270  0.90700  0.72200  1.0000
  Co  Co4       1.0  0.40700  0.59300  0.77800  1.0000
  Fe  Fe1       1.0  0.25000  0.99900  0.25000  1.0000
  Fe  Fe2       1.0  0.49900  0.75000  0.25000  1.0000
  Fe  Fe3       1.0  0.00053  0.50100  0.25000  1.0000
  Fe  Fe4       1.0  0.99900  0.49900  0.75000  1.0000
  Fe  Fe5       1.0  0.50100  0.25000  0.75000  1.0000
  Fe  Fe6       1.0  0.75000  0.00053  0.75000  1.0000
