data_image0
_chemical_formula_structural       Co4Ge6
_chemical_formula_sum              "Co4 Ge6"
_cell_length_a       5.65662
_cell_length_b       5.65662
_cell_length_c       6.44311
_cell_angle_alpha    116.038
_cell_angle_beta     63.962
_cell_angle_gamma    120

_space_group_name_H-M_alt    "P 1"
_space_group_IT_number       1

loop_
  _space_group_symop_operation_xyz
  'x, y, z'

loop_
  _atom_site_type_symbol
  _atom_site_label
  _atom_site_symmetry_multiplicity
  _atom_site_fract_x
  _atom_site_fract_y
  _atom_site_fract_z
  _atom_site_occupancy
  Co  Co1       1.0  0.33000  0.67000  0.01030  1.0000
  Co  Co2       1.0  0.17000  0.83000  0.49000  1.0000
  Co  Co3       1.0  0.83000  0.17000  0.51000  1.0000
  Co  Co4       1.0  0.67000  0.33000  0.99000  1.0000
  Ge  Ge1       1.0  0.60200  0.75000  0.25000  1.0000
  Ge  Ge2       1.0  0.89800  0.39800  0.25000  1.0000
  Ge  Ge3       1.0  0.25000  0.10200  0.25000  1.0000
  Ge  Ge4       1.0  0.75000  0.89800  0.75000  1.0000
  Ge  Ge5       1.0  0.10200  0.60200  0.75000  1.0000
  Ge  Ge6       1.0  0.39800  0.25000  0.75000  1.0000
