data_image0
_chemical_formula_structural       Co4P6
_chemical_formula_sum              "Co4 P6"
_cell_length_a       5.76302
_cell_length_b       5.76302
_cell_length_c       5.65475
_cell_angle_alpha    120.635
_cell_angle_beta     59.3646
_cell_angle_gamma    120

_space_group_name_H-M_alt    "P 1"
_space_group_IT_number       1

loop_
  _space_group_symop_operation_xyz
  'x, y, z'

loop_
  _atom_site_type_symbol
  _atom_site_label
  _atom_site_symmetry_multiplicity
  _atom_site_fract_x
  _atom_site_fract_y
  _atom_site_fract_z
  _atom_site_occupancy
  Co  Co1       1.0  0.66000  0.34000  0.02050  1.0000
  Co  Co2       1.0  0.84000  0.16000  0.47900  1.0000
  Co  Co3       1.0  0.16000  0.84000  0.52100  1.0000
  Co  Co4       1.0  0.34000  0.66000  0.97900  1.0000
  P   P1        1.0  0.58500  0.75000  0.25000  1.0000
  P   P2        1.0  0.91500  0.41500  0.25000  1.0000
  P   P3        1.0  0.25000  0.08460  0.25000  1.0000
  P   P4        1.0  0.75000  0.91500  0.75000  1.0000
  P   P5        1.0  0.08460  0.58500  0.75000  1.0000
  P   P6        1.0  0.41500  0.25000  0.75000  1.0000
