data_image0
_chemical_formula_structural       Co4Ni6
_chemical_formula_sum              "Co4 Ni6"
_cell_length_a       5.89802
_cell_length_b       5.89802
_cell_length_c       5.19612
_cell_angle_alpha    124.579
_cell_angle_beta     55.4211
_cell_angle_gamma    120

_space_group_name_H-M_alt    "P 1"
_space_group_IT_number       1

loop_
  _space_group_symop_operation_xyz
  'x, y, z'

loop_
  _atom_site_type_symbol
  _atom_site_label
  _atom_site_symmetry_multiplicity
  _atom_site_fract_x
  _atom_site_fract_y
  _atom_site_fract_z
  _atom_site_occupancy
  Co  Co1       1.0  0.59200  0.40800  0.22400  1.0000
  Co  Co2       1.0  0.90800  0.09200  0.27600  1.0000
  Co  Co3       1.0  0.09200  0.90800  0.72400  1.0000
  Co  Co4       1.0  0.40800  0.59200  0.77600  1.0000
  Ni  Ni1       1.0  0.25000  0.99900  0.25000  1.0000
  Ni  Ni2       1.0  0.49900  0.75000  0.25000  1.0000
  Ni  Ni3       1.0  0.00107  0.50100  0.25000  1.0000
  Ni  Ni4       1.0  0.99900  0.49900  0.75000  1.0000
  Ni  Ni5       1.0  0.50100  0.25000  0.75000  1.0000
  Ni  Ni6       1.0  0.75000  0.00107  0.75000  1.0000
