data_image0
_chemical_formula_structural       Ti8U6
_chemical_formula_sum              "Ti8 U6"
_cell_length_a       7.97914
_cell_length_b       7.97623
_cell_length_c       4.72988
_cell_angle_alpha    90
_cell_angle_beta     90
_cell_angle_gamma    60.0537

_space_group_name_H-M_alt    "P 1"
_space_group_IT_number       1

loop_
  _space_group_symop_operation_xyz
  'x, y, z'

loop_
  _atom_site_type_symbol
  _atom_site_label
  _atom_site_symmetry_multiplicity
  _atom_site_fract_x
  _atom_site_fract_y
  _atom_site_fract_z
  _atom_site_occupancy
  Ti  Ti1       1.0  0.01610  0.06210  0.00000  1.0000
  Ti  Ti2       1.0  0.63300  0.06460  0.00000  1.0000
  Ti  Ti3       1.0  0.63600  0.44500  0.00000  1.0000
  Ti  Ti4       1.0  0.42900  0.85700  0.00000  1.0000
  Ti  Ti5       1.0  0.89000  0.31600  0.50000  1.0000
  Ti  Ti6       1.0  0.50800  0.31900  0.50000  1.0000
  Ti  Ti7       1.0  0.09560  0.52400  0.50000  1.0000
  Ti  Ti8       1.0  0.88800  0.93600  0.50000  1.0000
  U   U1        1.0  0.21200  0.28400  0.00000  1.0000
  U   U2        1.0  0.21900  0.64200  0.00000  1.0000
  U   U3        1.0  0.85500  0.64500  0.00000  1.0000
  U   U4        1.0  0.30900  0.09750  0.50000  1.0000
  U   U5        1.0  0.66900  0.73500  0.50000  1.0000
  U   U6        1.0  0.30700  0.73900  0.50000  1.0000
