data_image0
_chemical_formula_structural       Co4Sb6
_chemical_formula_sum              "Co4 Sb6"
_cell_length_a       6.49812
_cell_length_b       6.49812
_cell_length_c       6.49304
_cell_angle_alpha    120.026
_cell_angle_beta     59.9741
_cell_angle_gamma    120

_space_group_name_H-M_alt    "P 1"
_space_group_IT_number       1

loop_
  _space_group_symop_operation_xyz
  'x, y, z'

loop_
  _atom_site_type_symbol
  _atom_site_label
  _atom_site_symmetry_multiplicity
  _atom_site_fract_x
  _atom_site_fract_y
  _atom_site_fract_z
  _atom_site_occupancy
  Co  Co1       1.0  0.66600  0.33400  0.00116  1.0000
  Co  Co2       1.0  0.83400  0.16600  0.49900  1.0000
  Co  Co3       1.0  0.16600  0.83400  0.50100  1.0000
  Co  Co4       1.0  0.33400  0.66600  0.99900  1.0000
  Sb  Sb1       1.0  0.59000  0.75000  0.25000  1.0000
  Sb  Sb2       1.0  0.91000  0.41000  0.25000  1.0000
  Sb  Sb3       1.0  0.25000  0.08960  0.25000  1.0000
  Sb  Sb4       1.0  0.75000  0.91000  0.75000  1.0000
  Sb  Sb5       1.0  0.08960  0.59000  0.75000  1.0000
  Sb  Sb6       1.0  0.41000  0.25000  0.75000  1.0000
