data_image0
_chemical_formula_structural       Ba2H3I
_chemical_formula_sum              "Ba2 H3 I1"
_cell_length_a       4.48851
_cell_length_b       4.4884
_cell_length_c       8.09921
_cell_angle_alpha    90
_cell_angle_beta     89.9988
_cell_angle_gamma    119.999

_space_group_name_H-M_alt    "P 1"
_space_group_IT_number       1

loop_
  _space_group_symop_operation_xyz
  'x, y, z'

loop_
  _atom_site_type_symbol
  _atom_site_label
  _atom_site_symmetry_multiplicity
  _atom_site_fract_x
  _atom_site_fract_y
  _atom_site_fract_z
  _atom_site_occupancy
  Ba  Ba1       1.0  0.33300  0.66700  0.31500  1.0000
  Ba  Ba2       1.0  0.66700  0.33300  0.68500  1.0000
  H   H1        1.0  0.66700  0.33300  0.35800  1.0000
  H   H2        1.0  0.00000  0.00000  0.50000  1.0000
  H   H3        1.0  0.33300  0.66700  0.64200  1.0000
  I   I1        1.0  0.00000  0.00000  0.00000  1.0000
