data_image0
_chemical_formula_structural       Ce4Co6
_chemical_formula_sum              "Ce4 Co6"
_cell_length_a       6.55734
_cell_length_b       6.55734
_cell_length_c       6.88837
_cell_angle_alpha    118.423
_cell_angle_beta     61.5773
_cell_angle_gamma    120

_space_group_name_H-M_alt    "P 1"
_space_group_IT_number       1

loop_
  _space_group_symop_operation_xyz
  'x, y, z'

loop_
  _atom_site_type_symbol
  _atom_site_label
  _atom_site_symmetry_multiplicity
  _atom_site_fract_x
  _atom_site_fract_y
  _atom_site_fract_z
  _atom_site_occupancy
  Ce  Ce1       1.0  0.60000  0.40000  0.20100  1.0000
  Ce  Ce2       1.0  0.90000  0.09960  0.29900  1.0000
  Ce  Ce3       1.0  0.09960  0.90000  0.70100  1.0000
  Ce  Ce4       1.0  0.40000  0.60000  0.79900  1.0000
  Co  Co1       1.0  0.25000  0.95200  0.25000  1.0000
  Co  Co2       1.0  0.45200  0.75000  0.25000  1.0000
  Co  Co3       1.0  0.04780  0.54800  0.25000  1.0000
  Co  Co4       1.0  0.75000  0.04780  0.75000  1.0000
  Co  Co5       1.0  0.54800  0.25000  0.75000  1.0000
  Co  Co6       1.0  0.95200  0.45200  0.75000  1.0000
