data_image0
_chemical_formula_structural       Co4S6
_chemical_formula_sum              "Co4 S6"
_cell_length_a       5.67007
_cell_length_b       5.67008
_cell_length_c       5.98199
_cell_angle_alpha    118.29
_cell_angle_beta     61.7104
_cell_angle_gamma    120

_space_group_name_H-M_alt    "P 1"
_space_group_IT_number       1

loop_
  _space_group_symop_operation_xyz
  'x, y, z'

loop_
  _atom_site_type_symbol
  _atom_site_label
  _atom_site_symmetry_multiplicity
  _atom_site_fract_x
  _atom_site_fract_y
  _atom_site_fract_z
  _atom_site_occupancy
  Co  Co1       1.0  0.65000  0.35000  0.05110  1.0000
  Co  Co2       1.0  0.85000  0.15000  0.44900  1.0000
  Co  Co3       1.0  0.15000  0.85000  0.55100  1.0000
  Co  Co4       1.0  0.35000  0.65000  0.94900  1.0000
  S   S1        1.0  0.55300  0.75000  0.25000  1.0000
  S   S2        1.0  0.25000  0.05340  0.25000  1.0000
  S   S3        1.0  0.94700  0.44700  0.25000  1.0000
  S   S4        1.0  0.05340  0.55300  0.75000  1.0000
  S   S5        1.0  0.75000  0.94700  0.75000  1.0000
  S   S6        1.0  0.44700  0.25000  0.75000  1.0000
