data_image0
_chemical_formula_structural       Be6Zr8
_chemical_formula_sum              "Be6 Zr8"
_cell_length_a       8.20982
_cell_length_b       8.20986
_cell_length_c       4.13129
_cell_angle_alpha    90
_cell_angle_beta     90
_cell_angle_gamma    60.0001

_space_group_name_H-M_alt    "P 1"
_space_group_IT_number       1

loop_
  _space_group_symop_operation_xyz
  'x, y, z'

loop_
  _atom_site_type_symbol
  _atom_site_label
  _atom_site_symmetry_multiplicity
  _atom_site_fract_x
  _atom_site_fract_y
  _atom_site_fract_z
  _atom_site_occupancy
  Be  Be1       1.0  0.16600  0.24700  0.00000  1.0000
  Be  Be2       1.0  0.30200  0.59400  0.00000  1.0000
  Be  Be3       1.0  0.81800  0.73100  0.00000  1.0000
  Be  Be4       1.0  0.35800  0.13400  0.50000  1.0000
  Be  Be5       1.0  0.70600  0.65000  0.50000  1.0000
  Be  Be6       1.0  0.22200  0.78700  0.50000  1.0000
  Zr  Zr1       1.0  0.50100  0.20800  0.00000  1.0000
  Zr  Zr2       1.0  0.78000  0.43400  0.00000  1.0000
  Zr  Zr3       1.0  0.42900  0.85700  0.00000  1.0000
  Zr  Zr4       1.0  0.00518  0.92900  0.00000  1.0000
  Zr  Zr5       1.0  0.02290  0.17300  0.50000  1.0000
  Zr  Zr6       1.0  0.51900  0.45200  0.50000  1.0000
  Zr  Zr7       1.0  0.09520  0.52400  0.50000  1.0000
  Zr  Zr8       1.0  0.74400  0.94700  0.50000  1.0000
