data_image0
_chemical_formula_structural       Co4Nb6
_chemical_formula_sum              "Co4 Nb6"
_cell_length_a       6.80625
_cell_length_b       6.80625
_cell_length_c       5.56199
_cell_angle_alpha    127.724
_cell_angle_beta     52.2763
_cell_angle_gamma    120

_space_group_name_H-M_alt    "P 1"
_space_group_IT_number       1

loop_
  _space_group_symop_operation_xyz
  'x, y, z'

loop_
  _atom_site_type_symbol
  _atom_site_label
  _atom_site_symmetry_multiplicity
  _atom_site_fract_x
  _atom_site_fract_y
  _atom_site_fract_z
  _atom_site_occupancy
  Co  Co1       1.0  0.59400  0.40600  0.21700  1.0000
  Co  Co2       1.0  0.90600  0.09450  0.28300  1.0000
  Co  Co3       1.0  0.09450  0.90600  0.71700  1.0000
  Co  Co4       1.0  0.40600  0.59400  0.78300  1.0000
  Nb  Nb1       1.0  0.52500  0.75000  0.25000  1.0000
  Nb  Nb2       1.0  0.97500  0.47500  0.25000  1.0000
  Nb  Nb3       1.0  0.25000  0.02480  0.25000  1.0000
  Nb  Nb4       1.0  0.75000  0.97500  0.75000  1.0000
  Nb  Nb5       1.0  0.02480  0.52500  0.75000  1.0000
  Nb  Nb6       1.0  0.47500  0.25000  0.75000  1.0000
