data_image0
_chemical_formula_structural       Co4Pb6
_chemical_formula_sum              "Co4 Pb6"
_cell_length_a       6.58234
_cell_length_b       6.58234
_cell_length_c       6.96031
_cell_angle_alpha    118.219
_cell_angle_beta     61.7807
_cell_angle_gamma    120

_space_group_name_H-M_alt    "P 1"
_space_group_IT_number       1

loop_
  _space_group_symop_operation_xyz
  'x, y, z'

loop_
  _atom_site_type_symbol
  _atom_site_label
  _atom_site_symmetry_multiplicity
  _atom_site_fract_x
  _atom_site_fract_y
  _atom_site_fract_z
  _atom_site_occupancy
  Co  Co1       1.0  0.32600  0.67400  0.02310  1.0000
  Co  Co2       1.0  0.17400  0.82600  0.47700  1.0000
  Co  Co3       1.0  0.82600  0.17400  0.52300  1.0000
  Co  Co4       1.0  0.67400  0.32600  0.97700  1.0000
  Pb  Pb1       1.0  0.60400  0.75000  0.25000  1.0000
  Pb  Pb2       1.0  0.89600  0.39600  0.25000  1.0000
  Pb  Pb3       1.0  0.25000  0.10400  0.25000  1.0000
  Pb  Pb4       1.0  0.75000  0.89600  0.75000  1.0000
  Pb  Pb5       1.0  0.10400  0.60400  0.75000  1.0000
  Pb  Pb6       1.0  0.39600  0.25000  0.75000  1.0000
