data_image0
_chemical_formula_structural       Co4Te6
_chemical_formula_sum              "Co4 Te6"
_cell_length_a       6.53781
_cell_length_b       6.53781
_cell_length_c       6.72267
_cell_angle_alpha    119.094
_cell_angle_beta     60.9055
_cell_angle_gamma    120

_space_group_name_H-M_alt    "P 1"
_space_group_IT_number       1

loop_
  _space_group_symop_operation_xyz
  'x, y, z'

loop_
  _atom_site_type_symbol
  _atom_site_label
  _atom_site_symmetry_multiplicity
  _atom_site_fract_x
  _atom_site_fract_y
  _atom_site_fract_z
  _atom_site_occupancy
  Co  Co1       1.0  0.65000  0.35000  0.05070  1.0000
  Co  Co2       1.0  0.85000  0.15000  0.44900  1.0000
  Co  Co3       1.0  0.15000  0.85000  0.55100  1.0000
  Co  Co4       1.0  0.35000  0.65000  0.94900  1.0000
  Te  Te1       1.0  0.55800  0.75000  0.25000  1.0000
  Te  Te2       1.0  0.94200  0.44200  0.25000  1.0000
  Te  Te3       1.0  0.25000  0.05800  0.25000  1.0000
  Te  Te4       1.0  0.75000  0.94200  0.75000  1.0000
  Te  Te5       1.0  0.05800  0.55800  0.75000  1.0000
  Te  Te6       1.0  0.44200  0.25000  0.75000  1.0000
