data_image0
_chemical_formula_structural       C4Co6
_chemical_formula_sum              "C4 Co6"
_cell_length_a       4.963
_cell_length_b       4.963
_cell_length_c       4.9835
_cell_angle_alpha    119.864
_cell_angle_beta     60.136
_cell_angle_gamma    120

_space_group_name_H-M_alt    "P 1"
_space_group_IT_number       1

loop_
  _space_group_symop_operation_xyz
  'x, y, z'

loop_
  _atom_site_type_symbol
  _atom_site_label
  _atom_site_symmetry_multiplicity
  _atom_site_fract_x
  _atom_site_fract_y
  _atom_site_fract_z
  _atom_site_occupancy
  C   C1        1.0  0.64600  0.35400  0.06120  1.0000
  C   C2        1.0  0.85400  0.14600  0.43900  1.0000
  C   C3        1.0  0.14600  0.85400  0.56100  1.0000
  C   C4        1.0  0.35400  0.64600  0.93900  1.0000
  Co  Co1       1.0  0.55800  0.75000  0.25000  1.0000
  Co  Co2       1.0  0.94200  0.44200  0.25000  1.0000
  Co  Co3       1.0  0.25000  0.05760  0.25000  1.0000
  Co  Co4       1.0  0.75000  0.94200  0.75000  1.0000
  Co  Co5       1.0  0.05760  0.55800  0.75000  1.0000
  Co  Co6       1.0  0.44200  0.25000  0.75000  1.0000
