data_image0
_chemical_formula_structural       Co4I6
_chemical_formula_sum              "Co4 I6"
_cell_length_a       7.05244
_cell_length_b       7.05244
_cell_length_c       7.34502
_cell_angle_alpha    118.691
_cell_angle_beta     61.3092
_cell_angle_gamma    120

_space_group_name_H-M_alt    "P 1"
_space_group_IT_number       1

loop_
  _space_group_symop_operation_xyz
  'x, y, z'

loop_
  _atom_site_type_symbol
  _atom_site_label
  _atom_site_symmetry_multiplicity
  _atom_site_fract_x
  _atom_site_fract_y
  _atom_site_fract_z
  _atom_site_occupancy
  Co  Co1       1.0  0.32700  0.67300  0.02010  1.0000
  Co  Co2       1.0  0.17300  0.82700  0.48000  1.0000
  Co  Co3       1.0  0.82700  0.17300  0.52000  1.0000
  Co  Co4       1.0  0.67300  0.32700  0.98000  1.0000
  I   I1        1.0  0.57800  0.75000  0.25000  1.0000
  I   I2        1.0  0.92200  0.42200  0.25000  1.0000
  I   I3        1.0  0.25000  0.07780  0.25000  1.0000
  I   I4        1.0  0.75000  0.92200  0.75000  1.0000
  I   I5        1.0  0.07780  0.57800  0.75000  1.0000
  I   I6        1.0  0.42200  0.25000  0.75000  1.0000
