data_image0
_chemical_formula_structural       Co8Mn12
_chemical_formula_sum              "Co8 Mn12"
_cell_length_a       5.95146
_cell_length_b       5.95146
_cell_length_c       5.95146
_cell_angle_alpha    90
_cell_angle_beta     90
_cell_angle_gamma    90

_space_group_name_H-M_alt    "P 1"
_space_group_IT_number       1

loop_
  _space_group_symop_operation_xyz
  'x, y, z'

loop_
  _atom_site_type_symbol
  _atom_site_label
  _atom_site_symmetry_multiplicity
  _atom_site_fract_x
  _atom_site_fract_y
  _atom_site_fract_z
  _atom_site_occupancy
  Co  Co1       1.0  0.05150  0.05150  0.05150  1.0000
  Co  Co2       1.0  0.80200  0.30200  0.19800  1.0000
  Co  Co3       1.0  0.19800  0.80200  0.30200  1.0000
  Co  Co4       1.0  0.94800  0.55200  0.44800  1.0000
  Co  Co5       1.0  0.44800  0.94800  0.55200  1.0000
  Co  Co6       1.0  0.69800  0.69800  0.69800  1.0000
  Co  Co7       1.0  0.30200  0.19800  0.80200  1.0000
  Co  Co8       1.0  0.55200  0.44800  0.94800  1.0000
  Mn  Mn1       1.0  0.87500  0.69400  0.05610  1.0000
  Mn  Mn2       1.0  0.19400  0.44400  0.12500  1.0000
  Mn  Mn3       1.0  0.44400  0.12500  0.19400  1.0000
  Mn  Mn4       1.0  0.55600  0.62500  0.30600  1.0000
  Mn  Mn5       1.0  0.80600  0.94400  0.37500  1.0000
  Mn  Mn6       1.0  0.12500  0.19400  0.44400  1.0000
  Mn  Mn7       1.0  0.62500  0.30600  0.55600  1.0000
  Mn  Mn8       1.0  0.30600  0.55600  0.62500  1.0000
  Mn  Mn9       1.0  0.05610  0.87500  0.69400  1.0000
  Mn  Mn10      1.0  0.94400  0.37500  0.80600  1.0000
  Mn  Mn11      1.0  0.69400  0.05610  0.87500  1.0000
  Mn  Mn12      1.0  0.37500  0.80600  0.94400  1.0000
