data_image0
_chemical_formula_structural       Au4Co6
_chemical_formula_sum              "Au4 Co6"
_cell_length_a       6.25593
_cell_length_b       6.25593
_cell_length_c       5.94684
_cell_angle_alpha    121.735
_cell_angle_beta     58.2652
_cell_angle_gamma    120

_space_group_name_H-M_alt    "P 1"
_space_group_IT_number       1

loop_
  _space_group_symop_operation_xyz
  'x, y, z'

loop_
  _atom_site_type_symbol
  _atom_site_label
  _atom_site_symmetry_multiplicity
  _atom_site_fract_x
  _atom_site_fract_y
  _atom_site_fract_z
  _atom_site_occupancy
  Au  Au1       1.0  0.59300  0.40700  0.22200  1.0000
  Au  Au2       1.0  0.90700  0.09280  0.27800  1.0000
  Au  Au3       1.0  0.09280  0.90700  0.72200  1.0000
  Au  Au4       1.0  0.40700  0.59300  0.77800  1.0000
  Co  Co1       1.0  0.25000  0.96700  0.25000  1.0000
  Co  Co2       1.0  0.46700  0.75000  0.25000  1.0000
  Co  Co3       1.0  0.03330  0.53300  0.25000  1.0000
  Co  Co4       1.0  0.96700  0.46700  0.75000  1.0000
  Co  Co5       1.0  0.53300  0.25000  0.75000  1.0000
  Co  Co6       1.0  0.75000  0.03330  0.75000  1.0000
