data_image0
_chemical_formula_structural       Mg8U6
_chemical_formula_sum              "Mg8 U6"
_cell_length_a       8.41134
_cell_length_b       8.40647
_cell_length_c       5.34603
_cell_angle_alpha    90
_cell_angle_beta     90
_cell_angle_gamma    59.8591

_space_group_name_H-M_alt    "P 1"
_space_group_IT_number       1

loop_
  _space_group_symop_operation_xyz
  'x, y, z'

loop_
  _atom_site_type_symbol
  _atom_site_label
  _atom_site_symmetry_multiplicity
  _atom_site_fract_x
  _atom_site_fract_y
  _atom_site_fract_z
  _atom_site_occupancy
  Mg  Mg1       1.0  0.00663  0.01960  0.00000  1.0000
  Mg  Mg2       1.0  0.59000  0.11700  0.00000  1.0000
  Mg  Mg3       1.0  0.68700  0.43500  0.00000  1.0000
  Mg  Mg4       1.0  0.42800  0.85700  0.00000  1.0000
  Mg  Mg5       1.0  0.93300  0.26400  0.50000  1.0000
  Mg  Mg6       1.0  0.51700  0.36100  0.50000  1.0000
  Mg  Mg7       1.0  0.09560  0.52400  0.50000  1.0000
  Mg  Mg8       1.0  0.83700  0.94600  0.50000  1.0000
  U   U1        1.0  0.14700  0.32500  0.00000  1.0000
  U   U2        1.0  0.24100  0.57600  0.00000  1.0000
  U   U3        1.0  0.89500  0.67000  0.00000  1.0000
  U   U4        1.0  0.37700  0.05550  0.50000  1.0000
  U   U5        1.0  0.62900  0.71100  0.50000  1.0000
  U   U6        1.0  0.28300  0.80600  0.50000  1.0000
