data_image0
_chemical_formula_structural       Co4Eu6
_chemical_formula_sum              "Co4 Eu6"
_cell_length_a       7.22904
_cell_length_b       7.22904
_cell_length_c       7.22557
_cell_angle_alpha    120.016
_cell_angle_beta     59.9841
_cell_angle_gamma    120

_space_group_name_H-M_alt    "P 1"
_space_group_IT_number       1

loop_
  _space_group_symop_operation_xyz
  'x, y, z'

loop_
  _atom_site_type_symbol
  _atom_site_label
  _atom_site_symmetry_multiplicity
  _atom_site_fract_x
  _atom_site_fract_y
  _atom_site_fract_z
  _atom_site_occupancy
  Co  Co1       1.0  0.31300  0.68700  0.06160  1.0000
  Co  Co2       1.0  0.18700  0.81300  0.43800  1.0000
  Co  Co3       1.0  0.81300  0.18700  0.56200  1.0000
  Co  Co4       1.0  0.68700  0.31300  0.93800  1.0000
  Eu  Eu1       1.0  0.60500  0.75000  0.25000  1.0000
  Eu  Eu2       1.0  0.89500  0.39500  0.25000  1.0000
  Eu  Eu3       1.0  0.25000  0.10500  0.25000  1.0000
  Eu  Eu4       1.0  0.75000  0.89500  0.75000  1.0000
  Eu  Eu5       1.0  0.10500  0.60500  0.75000  1.0000
  Eu  Eu6       1.0  0.39500  0.25000  0.75000  1.0000
