data_image0
_chemical_formula_structural       Co4F6
_chemical_formula_sum              "Co4 F6"
_cell_length_a       5.45926
_cell_length_b       5.45926
_cell_length_c       5.26602
_cell_angle_alpha    121.221
_cell_angle_beta     58.7785
_cell_angle_gamma    120

_space_group_name_H-M_alt    "P 1"
_space_group_IT_number       1

loop_
  _space_group_symop_operation_xyz
  'x, y, z'

loop_
  _atom_site_type_symbol
  _atom_site_label
  _atom_site_symmetry_multiplicity
  _atom_site_fract_x
  _atom_site_fract_y
  _atom_site_fract_z
  _atom_site_occupancy
  Co  Co1       1.0  0.65600  0.34400  0.03210  1.0000
  Co  Co2       1.0  0.84400  0.15600  0.46800  1.0000
  Co  Co3       1.0  0.15600  0.84400  0.53200  1.0000
  Co  Co4       1.0  0.34400  0.65600  0.96800  1.0000
  F   F1        1.0  0.58100  0.75000  0.25000  1.0000
  F   F2        1.0  0.91900  0.41900  0.25000  1.0000
  F   F3        1.0  0.25000  0.08140  0.25000  1.0000
  F   F4        1.0  0.75000  0.91900  0.75000  1.0000
  F   F5        1.0  0.08140  0.58100  0.75000  1.0000
  F   F6        1.0  0.41900  0.25000  0.75000  1.0000
