data_image0
_chemical_formula_structural       Co4Tc6
_chemical_formula_sum              "Co4 Tc6"
_cell_length_a       6.14814
_cell_length_b       6.14814
_cell_length_c       5.41212
_cell_angle_alpha    124.611
_cell_angle_beta     55.3893
_cell_angle_gamma    120

_space_group_name_H-M_alt    "P 1"
_space_group_IT_number       1

loop_
  _space_group_symop_operation_xyz
  'x, y, z'

loop_
  _atom_site_type_symbol
  _atom_site_label
  _atom_site_symmetry_multiplicity
  _atom_site_fract_x
  _atom_site_fract_y
  _atom_site_fract_z
  _atom_site_occupancy
  Co  Co1       1.0  0.59100  0.40900  0.22800  1.0000
  Co  Co2       1.0  0.90900  0.09070  0.27200  1.0000
  Co  Co3       1.0  0.09070  0.90900  0.72800  1.0000
  Co  Co4       1.0  0.40900  0.59100  0.77200  1.0000
  Tc  Tc1       1.0  0.25000  0.00561  0.25000  1.0000
  Tc  Tc2       1.0  0.99400  0.49400  0.25000  1.0000
  Tc  Tc3       1.0  0.50600  0.75000  0.25000  1.0000
  Tc  Tc4       1.0  0.49400  0.25000  0.75000  1.0000
  Tc  Tc5       1.0  0.00560  0.50600  0.75000  1.0000
  Tc  Tc6       1.0  0.75000  0.99400  0.75000  1.0000
