data_image0
_chemical_formula_structural       Co4Rh6
_chemical_formula_sum              "Co4 Rh6"
_cell_length_a       6.43509
_cell_length_b       6.43465
_cell_length_c       5.46464
_cell_angle_alpha    126.232
_cell_angle_beta     53.84
_cell_angle_gamma    120.023

_space_group_name_H-M_alt    "P 1"
_space_group_IT_number       1

loop_
  _space_group_symop_operation_xyz
  'x, y, z'

loop_
  _atom_site_type_symbol
  _atom_site_label
  _atom_site_symmetry_multiplicity
  _atom_site_fract_x
  _atom_site_fract_y
  _atom_site_fract_z
  _atom_site_occupancy
  Co  Co1       1.0  0.59300  0.40700  0.21900  1.0000
  Co  Co2       1.0  0.90600  0.09350  0.28100  1.0000
  Co  Co3       1.0  0.09410  0.90700  0.71900  1.0000
  Co  Co4       1.0  0.40700  0.59300  0.78100  1.0000
  Rh  Rh1       1.0  0.25000  0.00820  0.25000  1.0000
  Rh  Rh2       1.0  0.50800  0.75000  0.25000  1.0000
  Rh  Rh3       1.0  0.99200  0.49200  0.25000  1.0000
  Rh  Rh4       1.0  0.00800  0.50800  0.75000  1.0000
  Rh  Rh5       1.0  0.49200  0.25000  0.75000  1.0000
  Rh  Rh6       1.0  0.75000  0.99200  0.75000  1.0000
