data_image0
_chemical_formula_structural       Co4La12
_chemical_formula_sum              "Co4 La12"
_cell_length_a       7.0955
_cell_length_b       10.0894
_cell_length_c       6.56116
_cell_angle_alpha    90
_cell_angle_beta     90
_cell_angle_gamma    90

_space_group_name_H-M_alt    "P 1"
_space_group_IT_number       1

loop_
  _space_group_symop_operation_xyz
  'x, y, z'

loop_
  _atom_site_type_symbol
  _atom_site_label
  _atom_site_symmetry_multiplicity
  _atom_site_fract_x
  _atom_site_fract_y
  _atom_site_fract_z
  _atom_site_occupancy
  Co  Co1       1.0  0.62000  0.75000  0.06600  1.0000
  Co  Co2       1.0  0.12000  0.75000  0.43400  1.0000
  Co  Co3       1.0  0.88000  0.25000  0.56600  1.0000
  Co  Co4       1.0  0.38000  0.25000  0.93400  1.0000
  La  La1       1.0  0.05680  0.25000  0.14400  1.0000
  La  La2       1.0  0.34000  0.57200  0.17200  1.0000
  La  La3       1.0  0.34000  0.92800  0.17200  1.0000
  La  La4       1.0  0.84000  0.57200  0.32800  1.0000
  La  La5       1.0  0.84000  0.92800  0.32800  1.0000
  La  La6       1.0  0.55700  0.25000  0.35600  1.0000
  La  La7       1.0  0.44300  0.75000  0.64400  1.0000
  La  La8       1.0  0.16000  0.07150  0.67200  1.0000
  La  La9       1.0  0.16000  0.42800  0.67200  1.0000
  La  La10      1.0  0.66000  0.07150  0.82800  1.0000
  La  La11      1.0  0.66000  0.42800  0.82800  1.0000
  La  La12      1.0  0.94300  0.75000  0.85600  1.0000
