data_image0
_chemical_formula_structural       Co4Na6
_chemical_formula_sum              "Co4 Na6"
_cell_length_a       6.02579
_cell_length_b       6.0258
_cell_length_c       7.61712
_cell_angle_alpha    113.3
_cell_angle_beta     66.7002
_cell_angle_gamma    120

_space_group_name_H-M_alt    "P 1"
_space_group_IT_number       1

loop_
  _space_group_symop_operation_xyz
  'x, y, z'

loop_
  _atom_site_type_symbol
  _atom_site_label
  _atom_site_symmetry_multiplicity
  _atom_site_fract_x
  _atom_site_fract_y
  _atom_site_fract_z
  _atom_site_occupancy
  Co  Co1       1.0  0.30100  0.69900  0.09600  1.0000
  Co  Co2       1.0  0.19900  0.80100  0.40400  1.0000
  Co  Co3       1.0  0.80100  0.19900  0.59600  1.0000
  Co  Co4       1.0  0.69900  0.30100  0.90400  1.0000
  Na  Na1       1.0  0.25000  0.23800  0.25000  1.0000
  Na  Na2       1.0  0.76200  0.26200  0.25000  1.0000
  Na  Na3       1.0  0.73800  0.75000  0.25000  1.0000
  Na  Na4       1.0  0.26200  0.25000  0.75000  1.0000
  Na  Na5       1.0  0.23800  0.73800  0.75000  1.0000
  Na  Na6       1.0  0.75000  0.76200  0.75000  1.0000
