data_image0
_chemical_formula_structural       Bi4Co6
_chemical_formula_sum              "Bi4 Co6"
_cell_length_a       6.52414
_cell_length_b       6.52414
_cell_length_c       6.50451
_cell_angle_alpha    120.1
_cell_angle_beta     59.9001
_cell_angle_gamma    120

_space_group_name_H-M_alt    "P 1"
_space_group_IT_number       1

loop_
  _space_group_symop_operation_xyz
  'x, y, z'

loop_
  _atom_site_type_symbol
  _atom_site_label
  _atom_site_symmetry_multiplicity
  _atom_site_fract_x
  _atom_site_fract_y
  _atom_site_fract_z
  _atom_site_occupancy
  Bi  Bi1       1.0  0.60500  0.39500  0.18500  1.0000
  Bi  Bi2       1.0  0.89500  0.10500  0.31500  1.0000
  Bi  Bi3       1.0  0.10500  0.89500  0.68500  1.0000
  Bi  Bi4       1.0  0.39500  0.60500  0.81500  1.0000
  Co  Co1       1.0  0.46600  0.75000  0.25000  1.0000
  Co  Co2       1.0  0.25000  0.96600  0.25000  1.0000
  Co  Co3       1.0  0.03420  0.53400  0.25000  1.0000
  Co  Co4       1.0  0.96600  0.46600  0.75000  1.0000
  Co  Co5       1.0  0.75000  0.03420  0.75000  1.0000
  Co  Co6       1.0  0.53400  0.25000  0.75000  1.0000
