data_image0
_chemical_formula_structural       Co4Se6
_chemical_formula_sum              "Co4 Se6"
_cell_length_a       6.04
_cell_length_b       6.04
_cell_length_c       6.30664
_cell_angle_alpha    118.611
_cell_angle_beta     61.389
_cell_angle_gamma    120

_space_group_name_H-M_alt    "P 1"
_space_group_IT_number       1

loop_
  _space_group_symop_operation_xyz
  'x, y, z'

loop_
  _atom_site_type_symbol
  _atom_site_label
  _atom_site_symmetry_multiplicity
  _atom_site_fract_x
  _atom_site_fract_y
  _atom_site_fract_z
  _atom_site_occupancy
  Co  Co1       1.0  0.64900  0.35100  0.05190  1.0000
  Co  Co2       1.0  0.85100  0.14900  0.44800  1.0000
  Co  Co3       1.0  0.14900  0.85100  0.55200  1.0000
  Co  Co4       1.0  0.35100  0.64900  0.94800  1.0000
  Se  Se1       1.0  0.55600  0.75000  0.25000  1.0000
  Se  Se2       1.0  0.94400  0.44400  0.25000  1.0000
  Se  Se3       1.0  0.25000  0.05550  0.25000  1.0000
  Se  Se4       1.0  0.75000  0.94400  0.75000  1.0000
  Se  Se5       1.0  0.05550  0.55600  0.75000  1.0000
  Se  Se6       1.0  0.44400  0.25000  0.75000  1.0000
