data_image0
_chemical_formula_structural       Co4La6
_chemical_formula_sum              "Co4 La6"
_cell_length_a       6.95292
_cell_length_b       6.95292
_cell_length_c       7.51684
_cell_angle_alpha    117.548
_cell_angle_beta     62.4522
_cell_angle_gamma    120

_space_group_name_H-M_alt    "P 1"
_space_group_IT_number       1

loop_
  _space_group_symop_operation_xyz
  'x, y, z'

loop_
  _atom_site_type_symbol
  _atom_site_label
  _atom_site_symmetry_multiplicity
  _atom_site_fract_x
  _atom_site_fract_y
  _atom_site_fract_z
  _atom_site_occupancy
  Co  Co1       1.0  0.32400  0.67600  0.02800  1.0000
  Co  Co2       1.0  0.17600  0.82400  0.47200  1.0000
  Co  Co3       1.0  0.82400  0.17600  0.52800  1.0000
  Co  Co4       1.0  0.67600  0.32400  0.97200  1.0000
  La  La1       1.0  0.25000  0.08800  0.25000  1.0000
  La  La2       1.0  0.58800  0.75000  0.25000  1.0000
  La  La3       1.0  0.91200  0.41200  0.25000  1.0000
  La  La4       1.0  0.08800  0.58800  0.75000  1.0000
  La  La5       1.0  0.41200  0.25000  0.75000  1.0000
  La  La6       1.0  0.75000  0.91200  0.75000  1.0000
