data_image0
_chemical_formula_structural       Co4Tb6
_chemical_formula_sum              "Co4 Tb6"
_cell_length_a       6.64581
_cell_length_b       6.64581
_cell_length_c       7.17798
_cell_angle_alpha    117.576
_cell_angle_beta     62.4236
_cell_angle_gamma    120

_space_group_name_H-M_alt    "P 1"
_space_group_IT_number       1

loop_
  _space_group_symop_operation_xyz
  'x, y, z'

loop_
  _atom_site_type_symbol
  _atom_site_label
  _atom_site_symmetry_multiplicity
  _atom_site_fract_x
  _atom_site_fract_y
  _atom_site_fract_z
  _atom_site_occupancy
  Co  Co1       1.0  0.32000  0.68000  0.04110  1.0000
  Co  Co2       1.0  0.18000  0.82000  0.45900  1.0000
  Co  Co3       1.0  0.82000  0.18000  0.54100  1.0000
  Co  Co4       1.0  0.68000  0.32000  0.95900  1.0000
  Tb  Tb1       1.0  0.60700  0.75000  0.25000  1.0000
  Tb  Tb2       1.0  0.25000  0.10700  0.25000  1.0000
  Tb  Tb3       1.0  0.89300  0.39300  0.25000  1.0000
  Tb  Tb4       1.0  0.10700  0.60700  0.75000  1.0000
  Tb  Tb5       1.0  0.75000  0.89300  0.75000  1.0000
  Tb  Tb6       1.0  0.39300  0.25000  0.75000  1.0000
