data_image0
_chemical_formula_structural       Co4Er6
_chemical_formula_sum              "Co4 Er6"
_cell_length_a       6.55308
_cell_length_b       6.55308
_cell_length_c       7.11689
_cell_angle_alpha    117.412
_cell_angle_beta     62.5878
_cell_angle_gamma    120

_space_group_name_H-M_alt    "P 1"
_space_group_IT_number       1

loop_
  _space_group_symop_operation_xyz
  'x, y, z'

loop_
  _atom_site_type_symbol
  _atom_site_label
  _atom_site_symmetry_multiplicity
  _atom_site_fract_x
  _atom_site_fract_y
  _atom_site_fract_z
  _atom_site_occupancy
  Co  Co1       1.0  0.32100  0.67900  0.03590  1.0000
  Co  Co2       1.0  0.17900  0.82100  0.46400  1.0000
  Co  Co3       1.0  0.82100  0.17900  0.53600  1.0000
  Co  Co4       1.0  0.67900  0.32100  0.96400  1.0000
  Er  Er1       1.0  0.25000  0.10600  0.25000  1.0000
  Er  Er2       1.0  0.89400  0.39400  0.25000  1.0000
  Er  Er3       1.0  0.60600  0.75000  0.25000  1.0000
  Er  Er4       1.0  0.39400  0.25000  0.75000  1.0000
  Er  Er5       1.0  0.10600  0.60600  0.75000  1.0000
  Er  Er6       1.0  0.75000  0.89400  0.75000  1.0000
