data_image0
_chemical_formula_structural       Ac6Zr8
_chemical_formula_sum              "Ac6 Zr8"
_cell_length_a       9.5014
_cell_length_b       9.5013
_cell_length_c       5.56009
_cell_angle_alpha    90
_cell_angle_beta     90
_cell_angle_gamma    59.9994

_space_group_name_H-M_alt    "P 1"
_space_group_IT_number       1

loop_
  _space_group_symop_operation_xyz
  'x, y, z'

loop_
  _atom_site_type_symbol
  _atom_site_label
  _atom_site_symmetry_multiplicity
  _atom_site_fract_x
  _atom_site_fract_y
  _atom_site_fract_z
  _atom_site_occupancy
  Ac  Ac1       1.0  0.11700  0.28700  0.00000  1.0000
  Ac  Ac2       1.0  0.31100  0.54600  0.00000  1.0000
  Ac  Ac3       1.0  0.85800  0.73900  0.00000  1.0000
  Ac  Ac4       1.0  0.40700  0.09430  0.50000  1.0000
  Ac  Ac5       1.0  0.66600  0.64200  0.50000  1.0000
  Ac  Ac6       1.0  0.21300  0.83500  0.50000  1.0000
  Zr  Zr1       1.0  0.96800  0.03350  0.00000  1.0000
  Zr  Zr2       1.0  0.60500  0.14100  0.00000  1.0000
  Zr  Zr3       1.0  0.71200  0.39700  0.00000  1.0000
  Zr  Zr4       1.0  0.42900  0.85700  0.00000  1.0000
  Zr  Zr5       1.0  0.91900  0.24000  0.50000  1.0000
  Zr  Zr6       1.0  0.55500  0.34700  0.50000  1.0000
  Zr  Zr7       1.0  0.09520  0.52400  0.50000  1.0000
  Zr  Zr8       1.0  0.81100  0.98400  0.50000  1.0000
