data_image0
_chemical_formula_structural       Co4Ir6
_chemical_formula_sum              "Co4 Ir6"
_cell_length_a       6.38915
_cell_length_b       6.38915
_cell_length_c       5.38742
_cell_angle_alpha    126.368
_cell_angle_beta     53.6321
_cell_angle_gamma    120

_space_group_name_H-M_alt    "P 1"
_space_group_IT_number       1

loop_
  _space_group_symop_operation_xyz
  'x, y, z'

loop_
  _atom_site_type_symbol
  _atom_site_label
  _atom_site_symmetry_multiplicity
  _atom_site_fract_x
  _atom_site_fract_y
  _atom_site_fract_z
  _atom_site_occupancy
  Co  Co1       1.0  0.59200  0.40800  0.22400  1.0000
  Co  Co2       1.0  0.90800  0.09190  0.27600  1.0000
  Co  Co3       1.0  0.09190  0.90800  0.72400  1.0000
  Co  Co4       1.0  0.40800  0.59200  0.77600  1.0000
  Ir  Ir1       1.0  0.99500  0.49500  0.25000  1.0000
  Ir  Ir2       1.0  0.25000  0.00506  0.25000  1.0000
  Ir  Ir3       1.0  0.50500  0.75000  0.25000  1.0000
  Ir  Ir4       1.0  0.49500  0.25000  0.75000  1.0000
  Ir  Ir5       1.0  0.75000  0.99500  0.75000  1.0000
  Ir  Ir6       1.0  0.00506  0.50500  0.75000  1.0000
