data_image0
_chemical_formula_structural       Co4Sm6
_chemical_formula_sum              "Co4 Sm6"
_cell_length_a       6.74353
_cell_length_b       6.74354
_cell_length_c       7.28397
_cell_angle_alpha    117.575
_cell_angle_beta     62.4254
_cell_angle_gamma    120

_space_group_name_H-M_alt    "P 1"
_space_group_IT_number       1

loop_
  _space_group_symop_operation_xyz
  'x, y, z'

loop_
  _atom_site_type_symbol
  _atom_site_label
  _atom_site_symmetry_multiplicity
  _atom_site_fract_x
  _atom_site_fract_y
  _atom_site_fract_z
  _atom_site_occupancy
  Co  Co1       1.0  0.32200  0.67800  0.03510  1.0000
  Co  Co2       1.0  0.17800  0.82200  0.46500  1.0000
  Co  Co3       1.0  0.82200  0.17800  0.53500  1.0000
  Co  Co4       1.0  0.67800  0.32200  0.96500  1.0000
  Sm  Sm1       1.0  0.60200  0.75000  0.25000  1.0000
  Sm  Sm2       1.0  0.25000  0.10200  0.25000  1.0000
  Sm  Sm3       1.0  0.89800  0.39800  0.25000  1.0000
  Sm  Sm4       1.0  0.10200  0.60200  0.75000  1.0000
  Sm  Sm5       1.0  0.75000  0.89800  0.75000  1.0000
  Sm  Sm6       1.0  0.39800  0.25000  0.75000  1.0000
