data_image0
_chemical_formula_structural       Co4V6
_chemical_formula_sum              "Co4 V6"
_cell_length_a       5.82834
_cell_length_b       5.82834
_cell_length_c       5.46485
_cell_angle_alpha    122.226
_cell_angle_beta     57.7742
_cell_angle_gamma    120

_space_group_name_H-M_alt    "P 1"
_space_group_IT_number       1

loop_
  _space_group_symop_operation_xyz
  'x, y, z'

loop_
  _atom_site_type_symbol
  _atom_site_label
  _atom_site_symmetry_multiplicity
  _atom_site_fract_x
  _atom_site_fract_y
  _atom_site_fract_z
  _atom_site_occupancy
  Co  Co1       1.0  0.59000  0.41000  0.22900  1.0000
  Co  Co2       1.0  0.91000  0.09040  0.27100  1.0000
  Co  Co3       1.0  0.09040  0.91000  0.72900  1.0000
  Co  Co4       1.0  0.41000  0.59000  0.77100  1.0000
  V   V1        1.0  0.50500  0.75000  0.25000  1.0000
  V   V2        1.0  0.99500  0.49500  0.25000  1.0000
  V   V3        1.0  0.25000  0.00539  0.25000  1.0000
  V   V4        1.0  0.00539  0.50500  0.75000  1.0000
  V   V5        1.0  0.49500  0.25000  0.75000  1.0000
  V   V6        1.0  0.75000  0.99500  0.75000  1.0000
