data_image0
_chemical_formula_structural       Ca2Cu4O8
_chemical_formula_sum              "Ca2 Cu4 O8"
_cell_length_a       6.6753
_cell_length_b       6.6753
_cell_length_c       6.6753
_cell_angle_alpha    130.379
_cell_angle_beta     72.8015
_cell_angle_gamma    130.379

_space_group_name_H-M_alt    "P 1"
_space_group_IT_number       1

loop_
  _space_group_symop_operation_xyz
  'x, y, z'

loop_
  _atom_site_type_symbol
  _atom_site_label
  _atom_site_symmetry_multiplicity
  _atom_site_fract_x
  _atom_site_fract_y
  _atom_site_fract_z
  _atom_site_occupancy
  Ca  Ca1       1.0  0.00000  0.00000  0.00000  1.0000
  Ca  Ca2       1.0  0.75000  0.50000  0.25000  1.0000
  Cu  Cu1       1.0  0.37500  0.75000  0.12500  1.0000
  Cu  Cu2       1.0  0.87500  0.25000  0.62500  1.0000
  Cu  Cu3       1.0  0.37500  0.25000  0.62500  1.0000
  Cu  Cu4       1.0  0.37500  0.75000  0.62500  1.0000
  O   O1        1.0  0.60300  0.21400  0.38900  1.0000
  O   O2        1.0  0.17400  0.78600  0.38900  1.0000
  O   O3        1.0  0.61100  0.78600  0.39700  1.0000
  O   O4        1.0  0.13900  0.28600  0.42400  1.0000
  O   O5        1.0  0.61100  0.21400  0.82600  1.0000
  O   O6        1.0  0.13900  0.71400  0.85300  1.0000
  O   O7        1.0  0.14700  0.28600  0.86100  1.0000
  O   O8        1.0  0.57600  0.71400  0.86100  1.0000
