data_image0
_chemical_formula_structural       Co4Ru6
_chemical_formula_sum              "Co4 Ru6"
_cell_length_a       6.30488
_cell_length_b       6.30488
_cell_length_c       5.33765
_cell_angle_alpha    126.2
_cell_angle_beta     53.8001
_cell_angle_gamma    120

_space_group_name_H-M_alt    "P 1"
_space_group_IT_number       1

loop_
  _space_group_symop_operation_xyz
  'x, y, z'

loop_
  _atom_site_type_symbol
  _atom_site_label
  _atom_site_symmetry_multiplicity
  _atom_site_fract_x
  _atom_site_fract_y
  _atom_site_fract_z
  _atom_site_occupancy
  Co  Co1       1.0  0.59300  0.40700  0.22000  1.0000
  Co  Co2       1.0  0.90700  0.09340  0.28000  1.0000
  Co  Co3       1.0  0.09340  0.90700  0.72000  1.0000
  Co  Co4       1.0  0.40700  0.59300  0.78000  1.0000
  Ru  Ru1       1.0  0.50900  0.75000  0.25000  1.0000
  Ru  Ru2       1.0  0.99100  0.49100  0.25000  1.0000
  Ru  Ru3       1.0  0.25000  0.00872  0.25000  1.0000
  Ru  Ru4       1.0  0.75000  0.99100  0.75000  1.0000
  Ru  Ru5       1.0  0.00872  0.50900  0.75000  1.0000
  Ru  Ru6       1.0  0.49100  0.25000  0.75000  1.0000
