data_image0
_chemical_formula_structural       Co4Pr6
_chemical_formula_sum              "Co4 Pr6"
_cell_length_a       6.91223
_cell_length_b       6.91223
_cell_length_c       7.43542
_cell_angle_alpha    117.698
_cell_angle_beta     62.3016
_cell_angle_gamma    120

_space_group_name_H-M_alt    "P 1"
_space_group_IT_number       1

loop_
  _space_group_symop_operation_xyz
  'x, y, z'

loop_
  _atom_site_type_symbol
  _atom_site_label
  _atom_site_symmetry_multiplicity
  _atom_site_fract_x
  _atom_site_fract_y
  _atom_site_fract_z
  _atom_site_occupancy
  Co  Co1       1.0  0.32100  0.67900  0.03840  1.0000
  Co  Co2       1.0  0.17900  0.82100  0.46200  1.0000
  Co  Co3       1.0  0.82100  0.17900  0.53800  1.0000
  Co  Co4       1.0  0.67900  0.32100  0.96200  1.0000
  Pr  Pr1       1.0  0.89800  0.39800  0.25000  1.0000
  Pr  Pr2       1.0  0.25000  0.10200  0.25000  1.0000
  Pr  Pr3       1.0  0.60200  0.75000  0.25000  1.0000
  Pr  Pr4       1.0  0.39800  0.25000  0.75000  1.0000
  Pr  Pr5       1.0  0.75000  0.89800  0.75000  1.0000
  Pr  Pr6       1.0  0.10200  0.60200  0.75000  1.0000
