data_image0
_chemical_formula_structural       Co4Li6
_chemical_formula_sum              "Co4 Li6"
_cell_length_a       4.81135
_cell_length_b       4.81135
_cell_length_c       6.77471
_cell_angle_alpha    110.799
_cell_angle_beta     69.2006
_cell_angle_gamma    120

_space_group_name_H-M_alt    "P 1"
_space_group_IT_number       1

loop_
  _space_group_symop_operation_xyz
  'x, y, z'

loop_
  _atom_site_type_symbol
  _atom_site_label
  _atom_site_symmetry_multiplicity
  _atom_site_fract_x
  _atom_site_fract_y
  _atom_site_fract_z
  _atom_site_occupancy
  Co  Co1       1.0  0.30900  0.69100  0.07360  1.0000
  Co  Co2       1.0  0.19100  0.80900  0.42600  1.0000
  Co  Co3       1.0  0.80900  0.19100  0.57400  1.0000
  Co  Co4       1.0  0.69100  0.30900  0.92600  1.0000
  Li  Li1       1.0  0.75400  0.25400  0.25000  1.0000
  Li  Li2       1.0  0.25000  0.24600  0.25000  1.0000
  Li  Li3       1.0  0.74600  0.75000  0.25000  1.0000
  Li  Li4       1.0  0.25400  0.25000  0.75000  1.0000
  Li  Li5       1.0  0.75000  0.75400  0.75000  1.0000
  Li  Li6       1.0  0.24600  0.74600  0.75000  1.0000
