data_image0
_chemical_formula_structural       Cu6Zr8
_chemical_formula_sum              "Cu6 Zr8"
_cell_length_a       8.0657
_cell_length_b       8.06663
_cell_length_c       4.548
_cell_angle_alpha    90
_cell_angle_beta     90
_cell_angle_gamma    60.0024

_space_group_name_H-M_alt    "P 1"
_space_group_IT_number       1

loop_
  _space_group_symop_operation_xyz
  'x, y, z'

loop_
  _atom_site_type_symbol
  _atom_site_label
  _atom_site_symmetry_multiplicity
  _atom_site_fract_x
  _atom_site_fract_y
  _atom_site_fract_z
  _atom_site_occupancy
  Cu  Cu1       1.0  0.68000  0.46000  0.00000  1.0000
  Cu  Cu2       1.0  0.31800  0.57300  0.00000  1.0000
  Cu  Cu3       1.0  0.43100  0.82300  0.00000  1.0000
  Cu  Cu4       1.0  0.52200  0.41500  0.50000  1.0000
  Cu  Cu5       1.0  0.63500  0.66500  0.50000  1.0000
  Cu  Cu6       1.0  0.27200  0.77800  0.50000  1.0000
  Zr  Zr1       1.0  0.57200  0.18300  0.00000  1.0000
  Zr  Zr2       1.0  0.14300  0.28600  0.00000  1.0000
  Zr  Zr3       1.0  0.81600  0.71500  0.00000  1.0000
  Zr  Zr4       1.0  0.04020  0.95900  0.00000  1.0000
  Zr  Zr5       1.0  0.38000  0.05510  0.50000  1.0000
  Zr  Zr6       1.0  0.91200  0.27900  0.50000  1.0000
  Zr  Zr7       1.0  0.13600  0.52300  0.50000  1.0000
  Zr  Zr8       1.0  0.81000  0.95200  0.50000  1.0000
