data_image0
_chemical_formula_structural       B2Co4O8
_chemical_formula_sum              "B2 Co4 O8"
_cell_length_a       5.47412
_cell_length_b       5.47412
_cell_length_c       5.47412
_cell_angle_alpha    120.211
_cell_angle_beta     89.6341
_cell_angle_gamma    120.211

_space_group_name_H-M_alt    "P 1"
_space_group_IT_number       1

loop_
  _space_group_symop_operation_xyz
  'x, y, z'

loop_
  _atom_site_type_symbol
  _atom_site_label
  _atom_site_symmetry_multiplicity
  _atom_site_fract_x
  _atom_site_fract_y
  _atom_site_fract_z
  _atom_site_occupancy
  B   B1        1.0  0.00000  0.00000  0.00000  1.0000
  B   B2        1.0  0.75000  0.50000  0.25000  1.0000
  Co  Co1       1.0  0.37500  0.75000  0.12500  1.0000
  Co  Co2       1.0  0.37500  0.75000  0.62500  1.0000
  Co  Co3       1.0  0.87500  0.25000  0.62500  1.0000
  Co  Co4       1.0  0.37500  0.25000  0.62500  1.0000
  O   O1        1.0  0.11200  0.22700  0.33900  1.0000
  O   O2        1.0  0.08860  0.72700  0.36200  1.0000
  O   O3        1.0  0.63500  0.27300  0.36200  1.0000
  O   O4        1.0  0.63800  0.72700  0.36500  1.0000
  O   O5        1.0  0.11200  0.77300  0.88500  1.0000
  O   O6        1.0  0.11500  0.22700  0.88800  1.0000
  O   O7        1.0  0.66100  0.77300  0.88800  1.0000
  O   O8        1.0  0.63800  0.27300  0.91100  1.0000
