data_image0
_chemical_formula_structural       Ce6Zr8
_chemical_formula_sum              "Ce6 Zr8"
_cell_length_a       9.1691
_cell_length_b       9.16911
_cell_length_c       5.50665
_cell_angle_alpha    90
_cell_angle_beta     90
_cell_angle_gamma    59.9998

_space_group_name_H-M_alt    "P 1"
_space_group_IT_number       1

loop_
  _space_group_symop_operation_xyz
  'x, y, z'

loop_
  _atom_site_type_symbol
  _atom_site_label
  _atom_site_symmetry_multiplicity
  _atom_site_fract_x
  _atom_site_fract_y
  _atom_site_fract_z
  _atom_site_occupancy
  Ce  Ce1       1.0  0.12500  0.28500  0.00000  1.0000
  Ce  Ce2       1.0  0.30400  0.55400  0.00000  1.0000
  Ce  Ce3       1.0  0.85700  0.73200  0.00000  1.0000
  Ce  Ce4       1.0  0.39800  0.09580  0.50000  1.0000
  Ce  Ce5       1.0  0.66700  0.64900  0.50000  1.0000
  Ce  Ce6       1.0  0.22000  0.82700  0.50000  1.0000
  Zr  Zr1       1.0  0.97800  0.02620  0.00000  1.0000
  Zr  Zr2       1.0  0.59800  0.13900  0.00000  1.0000
  Zr  Zr3       1.0  0.71100  0.40600  0.00000  1.0000
  Zr  Zr4       1.0  0.42900  0.85700  0.00000  1.0000
  Zr  Zr5       1.0  0.92600  0.24200  0.50000  1.0000
  Zr  Zr6       1.0  0.54600  0.35500  0.50000  1.0000
  Zr  Zr7       1.0  0.09520  0.52400  0.50000  1.0000
  Zr  Zr8       1.0  0.81300  0.97500  0.50000  1.0000
