data_image0
_chemical_formula_structural       Ge6Zr8
_chemical_formula_sum              "Ge6 Zr8"
_cell_length_a       8.03623
_cell_length_b       8.03628
_cell_length_c       5.03563
_cell_angle_alpha    90
_cell_angle_beta     90
_cell_angle_gamma    60.0003

_space_group_name_H-M_alt    "P 1"
_space_group_IT_number       1

loop_
  _space_group_symop_operation_xyz
  'x, y, z'

loop_
  _atom_site_type_symbol
  _atom_site_label
  _atom_site_symmetry_multiplicity
  _atom_site_fract_x
  _atom_site_fract_y
  _atom_site_fract_z
  _atom_site_occupancy
  Ge  Ge1       1.0  0.14400  0.25300  0.00000  1.0000
  Ge  Ge2       1.0  0.31700  0.57300  0.00000  1.0000
  Ge  Ge3       1.0  0.82400  0.74600  0.00000  1.0000
  Ge  Ge4       1.0  0.38000  0.12800  0.50000  1.0000
  Ge  Ge5       1.0  0.69900  0.63500  0.50000  1.0000
  Ge  Ge6       1.0  0.20700  0.80800  0.50000  1.0000
  Zr  Zr1       1.0  0.52600  0.18300  0.00000  1.0000
  Zr  Zr2       1.0  0.75400  0.43500  0.00000  1.0000
  Zr  Zr3       1.0  0.42900  0.85700  0.00000  1.0000
  Zr  Zr4       1.0  0.00595  0.95400  0.00000  1.0000
  Zr  Zr5       1.0  0.99800  0.19800  0.50000  1.0000
  Zr  Zr6       1.0  0.51800  0.42700  0.50000  1.0000
  Zr  Zr7       1.0  0.09520  0.52400  0.50000  1.0000
  Zr  Zr8       1.0  0.77000  0.94600  0.50000  1.0000
