data_image0
_chemical_formula_structural       Hg6Zr8
_chemical_formula_sum              "Hg6 Zr8"
_cell_length_a       8.40272
_cell_length_b       8.4029
_cell_length_c       5.0652
_cell_angle_alpha    90
_cell_angle_beta     90
_cell_angle_gamma    59.9963

_space_group_name_H-M_alt    "P 1"
_space_group_IT_number       1

loop_
  _space_group_symop_operation_xyz
  'x, y, z'

loop_
  _atom_site_type_symbol
  _atom_site_label
  _atom_site_symmetry_multiplicity
  _atom_site_fract_x
  _atom_site_fract_y
  _atom_site_fract_z
  _atom_site_occupancy
  Hg  Hg1       1.0  0.72100  0.42400  0.00000  1.0000
  Hg  Hg2       1.0  0.28100  0.56900  0.00000  1.0000
  Hg  Hg3       1.0  0.42700  0.86400  0.00000  1.0000
  Hg  Hg4       1.0  0.52600  0.37400  0.50000  1.0000
  Hg  Hg5       1.0  0.67100  0.66900  0.50000  1.0000
  Hg  Hg6       1.0  0.23100  0.81400  0.50000  1.0000
  Zr  Zr1       1.0  0.57600  0.15000  0.00000  1.0000
  Zr  Zr2       1.0  0.14300  0.28600  0.00000  1.0000
  Zr  Zr3       1.0  0.84500  0.71900  0.00000  1.0000
  Zr  Zr4       1.0  0.00710  0.98800  0.00000  1.0000
  Zr  Zr5       1.0  0.37600  0.08810  0.50000  1.0000
  Zr  Zr6       1.0  0.94500  0.25000  0.50000  1.0000
  Zr  Zr7       1.0  0.10700  0.51900  0.50000  1.0000
  Zr  Zr8       1.0  0.80900  0.95200  0.50000  1.0000
