data_image0
_chemical_formula_structural       Ca4Co6
_chemical_formula_sum              "Ca4 Co6"
_cell_length_a       6.70972
_cell_length_b       6.70972
_cell_length_c       6.78989
_cell_angle_alpha    119.61
_cell_angle_beta     60.3898
_cell_angle_gamma    120

_space_group_name_H-M_alt    "P 1"
_space_group_IT_number       1

loop_
  _space_group_symop_operation_xyz
  'x, y, z'

loop_
  _atom_site_type_symbol
  _atom_site_label
  _atom_site_symmetry_multiplicity
  _atom_site_fract_x
  _atom_site_fract_y
  _atom_site_fract_z
  _atom_site_occupancy
  Ca  Ca1       1.0  0.59800  0.40200  0.20600  1.0000
  Ca  Ca2       1.0  0.90200  0.09800  0.29400  1.0000
  Ca  Ca3       1.0  0.09800  0.90200  0.70600  1.0000
  Ca  Ca4       1.0  0.40200  0.59800  0.79400  1.0000
  Co  Co1       1.0  0.05860  0.55900  0.25000  1.0000
  Co  Co2       1.0  0.44100  0.75000  0.25000  1.0000
  Co  Co3       1.0  0.25000  0.94100  0.25000  1.0000
  Co  Co4       1.0  0.94100  0.44100  0.75000  1.0000
  Co  Co5       1.0  0.55900  0.25000  0.75000  1.0000
  Co  Co6       1.0  0.75000  0.05860  0.75000  1.0000
