data_image0
_chemical_formula_structural       Co4Zr6
_chemical_formula_sum              "Co4 Zr6"
_cell_length_a       6.11645
_cell_length_b       6.11645
_cell_length_c       6.7693
_cell_angle_alpha    116.858
_cell_angle_beta     63.1421
_cell_angle_gamma    120

_space_group_name_H-M_alt    "P 1"
_space_group_IT_number       1

loop_
  _space_group_symop_operation_xyz
  'x, y, z'

loop_
  _atom_site_type_symbol
  _atom_site_label
  _atom_site_symmetry_multiplicity
  _atom_site_fract_x
  _atom_site_fract_y
  _atom_site_fract_z
  _atom_site_occupancy
  Co  Co1       1.0  0.31700  0.68300  0.04990  1.0000
  Co  Co2       1.0  0.18300  0.81700  0.45000  1.0000
  Co  Co3       1.0  0.81700  0.18300  0.55000  1.0000
  Co  Co4       1.0  0.68300  0.31700  0.95000  1.0000
  Zr  Zr1       1.0  0.25000  0.14000  0.25000  1.0000
  Zr  Zr2       1.0  0.86000  0.36000  0.25000  1.0000
  Zr  Zr3       1.0  0.64000  0.75000  0.25000  1.0000
  Zr  Zr4       1.0  0.36000  0.25000  0.75000  1.0000
  Zr  Zr5       1.0  0.14000  0.64000  0.75000  1.0000
  Zr  Zr6       1.0  0.75000  0.86000  0.75000  1.0000
