data_image0
_chemical_formula_structural       Co4Mg6
_chemical_formula_sum              "Co4 Mg6"
_cell_length_a       5.59691
_cell_length_b       5.59691
_cell_length_c       7.02445
_cell_angle_alpha    113.477
_cell_angle_beta     66.5226
_cell_angle_gamma    120

_space_group_name_H-M_alt    "P 1"
_space_group_IT_number       1

loop_
  _space_group_symop_operation_xyz
  'x, y, z'

loop_
  _atom_site_type_symbol
  _atom_site_label
  _atom_site_symmetry_multiplicity
  _atom_site_fract_x
  _atom_site_fract_y
  _atom_site_fract_z
  _atom_site_occupancy
  Co  Co1       1.0  0.30800  0.69200  0.07490  1.0000
  Co  Co2       1.0  0.19200  0.80800  0.42500  1.0000
  Co  Co3       1.0  0.80800  0.19200  0.57500  1.0000
  Co  Co4       1.0  0.69200  0.30800  0.92500  1.0000
  Mg  Mg1       1.0  0.25000  0.21000  0.25000  1.0000
  Mg  Mg2       1.0  0.71000  0.75000  0.25000  1.0000
  Mg  Mg3       1.0  0.79000  0.29000  0.25000  1.0000
  Mg  Mg4       1.0  0.21000  0.71000  0.75000  1.0000
  Mg  Mg5       1.0  0.29000  0.25000  0.75000  1.0000
  Mg  Mg6       1.0  0.75000  0.79000  0.75000  1.0000
