data_image0
_chemical_formula_structural       Co4Tl6
_chemical_formula_sum              "Co4 Tl6"
_cell_length_a       6.54957
_cell_length_b       6.54957
_cell_length_c       6.9574
_cell_angle_alpha    118.079
_cell_angle_beta     61.9208
_cell_angle_gamma    120

_space_group_name_H-M_alt    "P 1"
_space_group_IT_number       1

loop_
  _space_group_symop_operation_xyz
  'x, y, z'

loop_
  _atom_site_type_symbol
  _atom_site_label
  _atom_site_symmetry_multiplicity
  _atom_site_fract_x
  _atom_site_fract_y
  _atom_site_fract_z
  _atom_site_occupancy
  Co  Co1       1.0  0.31600  0.68400  0.05290  1.0000
  Co  Co2       1.0  0.18400  0.81600  0.44700  1.0000
  Co  Co3       1.0  0.81600  0.18400  0.55300  1.0000
  Co  Co4       1.0  0.68400  0.31600  0.94700  1.0000
  Tl  Tl1       1.0  0.87300  0.37300  0.25000  1.0000
  Tl  Tl2       1.0  0.25000  0.12700  0.25000  1.0000
  Tl  Tl3       1.0  0.62700  0.75000  0.25000  1.0000
  Tl  Tl4       1.0  0.37300  0.25000  0.75000  1.0000
  Tl  Tl5       1.0  0.75000  0.87300  0.75000  1.0000
  Tl  Tl6       1.0  0.12700  0.62700  0.75000  1.0000
