data_image0
_chemical_formula_structural       Gd6Zr8
_chemical_formula_sum              "Gd6 Zr8"
_cell_length_a       8.99046
_cell_length_b       8.99052
_cell_length_c       5.33526
_cell_angle_alpha    90
_cell_angle_beta     90
_cell_angle_gamma    60.0038

_space_group_name_H-M_alt    "P 1"
_space_group_IT_number       1

loop_
  _space_group_symop_operation_xyz
  'x, y, z'

loop_
  _atom_site_type_symbol
  _atom_site_label
  _atom_site_symmetry_multiplicity
  _atom_site_fract_x
  _atom_site_fract_y
  _atom_site_fract_z
  _atom_site_occupancy
  Gd  Gd1       1.0  0.73300  0.41900  0.00000  1.0000
  Gd  Gd2       1.0  0.27600  0.56200  0.00000  1.0000
  Gd  Gd3       1.0  0.41900  0.87600  0.00000  1.0000
  Gd  Gd4       1.0  0.53300  0.36200  0.50000  1.0000
  Gd  Gd5       1.0  0.67600  0.67600  0.50000  1.0000
  Gd  Gd6       1.0  0.21900  0.81900  0.50000  1.0000
  Zr  Zr1       1.0  0.97700  0.01130  0.00000  1.0000
  Zr  Zr2       1.0  0.58400  0.11900  0.00000  1.0000
  Zr  Zr3       1.0  0.14300  0.28600  0.00000  1.0000
  Zr  Zr4       1.0  0.86800  0.72600  0.00000  1.0000
  Zr  Zr5       1.0  0.36900  0.11900  0.50000  1.0000
  Zr  Zr6       1.0  0.97600  0.22700  0.50000  1.0000
  Zr  Zr7       1.0  0.08390  0.51200  0.50000  1.0000
  Zr  Zr8       1.0  0.81000  0.95200  0.50000  1.0000
