data_image0
_chemical_formula_structural       Hf6Zr8
_chemical_formula_sum              "Hf6 Zr8"
_cell_length_a       8.5059
_cell_length_b       8.50595
_cell_length_c       5.12339
_cell_angle_alpha    90
_cell_angle_beta     90
_cell_angle_gamma    60.0002

_space_group_name_H-M_alt    "P 1"
_space_group_IT_number       1

loop_
  _space_group_symop_operation_xyz
  'x, y, z'

loop_
  _atom_site_type_symbol
  _atom_site_label
  _atom_site_symmetry_multiplicity
  _atom_site_fract_x
  _atom_site_fract_y
  _atom_site_fract_z
  _atom_site_occupancy
  Hf  Hf1       1.0  0.71100  0.43000  0.00000  1.0000
  Hf  Hf2       1.0  0.28700  0.57300  0.00000  1.0000
  Hf  Hf3       1.0  0.43000  0.85400  0.00000  1.0000
  Hf  Hf4       1.0  0.52200  0.38400  0.50000  1.0000
  Hf  Hf5       1.0  0.66500  0.66500  0.50000  1.0000
  Hf  Hf6       1.0  0.24100  0.80800  0.50000  1.0000
  Zr  Zr1       1.0  0.57000  0.14700  0.00000  1.0000
  Zr  Zr2       1.0  0.14300  0.28600  0.00000  1.0000
  Zr  Zr3       1.0  0.85400  0.71300  0.00000  1.0000
  Zr  Zr4       1.0  0.00425  0.99700  0.00000  1.0000
  Zr  Zr5       1.0  0.38300  0.09100  0.50000  1.0000
  Zr  Zr6       1.0  0.94800  0.24100  0.50000  1.0000
  Zr  Zr7       1.0  0.09790  0.52500  0.50000  1.0000
  Zr  Zr8       1.0  0.81000  0.95200  0.50000  1.0000
