data_image0
_chemical_formula_structural       Co4In6
_chemical_formula_sum              "Co4 In6"
_cell_length_a       6.16236
_cell_length_b       6.16236
_cell_length_c       6.91477
_cell_angle_alpha    116.461
_cell_angle_beta     63.5387
_cell_angle_gamma    120

_space_group_name_H-M_alt    "P 1"
_space_group_IT_number       1

loop_
  _space_group_symop_operation_xyz
  'x, y, z'

loop_
  _atom_site_type_symbol
  _atom_site_label
  _atom_site_symmetry_multiplicity
  _atom_site_fract_x
  _atom_site_fract_y
  _atom_site_fract_z
  _atom_site_occupancy
  Co  Co1       1.0  0.31800  0.68200  0.04720  1.0000
  Co  Co2       1.0  0.18200  0.81800  0.45300  1.0000
  Co  Co3       1.0  0.81800  0.18200  0.54700  1.0000
  Co  Co4       1.0  0.68200  0.31800  0.95300  1.0000
  In  In1       1.0  0.86700  0.36700  0.25000  1.0000
  In  In2       1.0  0.25000  0.13300  0.25000  1.0000
  In  In3       1.0  0.63300  0.75000  0.25000  1.0000
  In  In4       1.0  0.36700  0.25000  0.75000  1.0000
  In  In5       1.0  0.75000  0.86700  0.75000  1.0000
  In  In6       1.0  0.13300  0.63300  0.75000  1.0000
