data_image0
_chemical_formula_structural       Co4Zn6
_chemical_formula_sum              "Co4 Zn6"
_cell_length_a       5.06858
_cell_length_b       5.06858
_cell_length_c       6.4843
_cell_angle_alpha    113.006
_cell_angle_beta     66.9935
_cell_angle_gamma    120

_space_group_name_H-M_alt    "P 1"
_space_group_IT_number       1

loop_
  _space_group_symop_operation_xyz
  'x, y, z'

loop_
  _atom_site_type_symbol
  _atom_site_label
  _atom_site_symmetry_multiplicity
  _atom_site_fract_x
  _atom_site_fract_y
  _atom_site_fract_z
  _atom_site_occupancy
  Co  Co1       1.0  0.31100  0.68900  0.06790  1.0000
  Co  Co2       1.0  0.18900  0.81100  0.43200  1.0000
  Co  Co3       1.0  0.81100  0.18900  0.56800  1.0000
  Co  Co4       1.0  0.68900  0.31100  0.93200  1.0000
  Zn  Zn1       1.0  0.76000  0.26000  0.25000  1.0000
  Zn  Zn2       1.0  0.74000  0.75000  0.25000  1.0000
  Zn  Zn3       1.0  0.25000  0.24000  0.25000  1.0000
  Zn  Zn4       1.0  0.75000  0.76000  0.75000  1.0000
  Zn  Zn5       1.0  0.26000  0.25000  0.75000  1.0000
  Zn  Zn6       1.0  0.24000  0.74000  0.75000  1.0000
