data_image0
_chemical_formula_structural       Mg8Np6
_chemical_formula_sum              "Mg8 Np6"
_cell_length_a       8.14081
_cell_length_b       8.2985
_cell_length_c       5.21183
_cell_angle_alpha    90
_cell_angle_beta     90
_cell_angle_gamma    65.1029

_space_group_name_H-M_alt    "P 1"
_space_group_IT_number       1

loop_
  _space_group_symop_operation_xyz
  'x, y, z'

loop_
  _atom_site_type_symbol
  _atom_site_label
  _atom_site_symmetry_multiplicity
  _atom_site_fract_x
  _atom_site_fract_y
  _atom_site_fract_z
  _atom_site_occupancy
  Mg  Mg1       1.0  0.02390  0.01650  0.00000  1.0000
  Mg  Mg2       1.0  0.61300  0.11500  0.00000  1.0000
  Mg  Mg3       1.0  0.70900  0.43400  0.00000  1.0000
  Mg  Mg4       1.0  0.44500  0.86100  0.00000  1.0000
  Mg  Mg5       1.0  0.91000  0.26600  0.50000  1.0000
  Mg  Mg6       1.0  0.50000  0.36400  0.50000  1.0000
  Mg  Mg7       1.0  0.07920  0.52000  0.50000  1.0000
  Mg  Mg8       1.0  0.81500  0.94600  0.50000  1.0000
  Np  Np1       1.0  0.19600  0.29500  0.00000  1.0000
  Np  Np2       1.0  0.25400  0.56800  0.00000  1.0000
  Np  Np3       1.0  0.92400  0.69100  0.00000  1.0000
  Np  Np4       1.0  0.32700  0.08680  0.50000  1.0000
  Np  Np5       1.0  0.59900  0.69000  0.50000  1.0000
  Np  Np6       1.0  0.27000  0.81300  0.50000  1.0000
