data_image0
_chemical_formula_structural       Cd6Zr8
_chemical_formula_sum              "Cd6 Zr8"
_cell_length_a       8.40962
_cell_length_b       8.40933
_cell_length_c       4.99553
_cell_angle_alpha    90
_cell_angle_beta     90
_cell_angle_gamma    60.0017

_space_group_name_H-M_alt    "P 1"
_space_group_IT_number       1

loop_
  _space_group_symop_operation_xyz
  'x, y, z'

loop_
  _atom_site_type_symbol
  _atom_site_label
  _atom_site_symmetry_multiplicity
  _atom_site_fract_x
  _atom_site_fract_y
  _atom_site_fract_z
  _atom_site_occupancy
  Cd  Cd1       1.0  0.14700  0.28000  0.00000  1.0000
  Cd  Cd2       1.0  0.28700  0.57600  0.00000  1.0000
  Cd  Cd3       1.0  0.85100  0.71600  0.00000  1.0000
  Cd  Cd4       1.0  0.37700  0.10100  0.50000  1.0000
  Cd  Cd5       1.0  0.67200  0.66500  0.50000  1.0000
  Cd  Cd6       1.0  0.23700  0.80500  0.50000  1.0000
  Zr  Zr1       1.0  0.55800  0.16300  0.00000  1.0000
  Zr  Zr2       1.0  0.73500  0.42200  0.00000  1.0000
  Zr  Zr3       1.0  0.42800  0.85700  0.00000  1.0000
  Zr  Zr4       1.0  0.99300  0.98600  0.00000  1.0000
  Zr  Zr5       1.0  0.96600  0.21700  0.50000  1.0000
  Zr  Zr6       1.0  0.53100  0.39500  0.50000  1.0000
  Zr  Zr7       1.0  0.09510  0.52400  0.50000  1.0000
  Zr  Zr8       1.0  0.78900  0.95900  0.50000  1.0000
