data_image0
_chemical_formula_structural       Co4Sn6
_chemical_formula_sum              "Co4 Sn6"
_cell_length_a       6.1911
_cell_length_b       6.1911
_cell_length_c       6.88264
_cell_angle_alpha    116.728
_cell_angle_beta     63.2716
_cell_angle_gamma    120

_space_group_name_H-M_alt    "P 1"
_space_group_IT_number       1

loop_
  _space_group_symop_operation_xyz
  'x, y, z'

loop_
  _atom_site_type_symbol
  _atom_site_label
  _atom_site_symmetry_multiplicity
  _atom_site_fract_x
  _atom_site_fract_y
  _atom_site_fract_z
  _atom_site_occupancy
  Co  Co1       1.0  0.32800  0.67200  0.01590  1.0000
  Co  Co2       1.0  0.17200  0.82800  0.48400  1.0000
  Co  Co3       1.0  0.82800  0.17200  0.51600  1.0000
  Co  Co4       1.0  0.67200  0.32800  0.98400  1.0000
  Sn  Sn1       1.0  0.60200  0.75000  0.25000  1.0000
  Sn  Sn2       1.0  0.25000  0.10200  0.25000  1.0000
  Sn  Sn3       1.0  0.89800  0.39800  0.25000  1.0000
  Sn  Sn4       1.0  0.10200  0.60200  0.75000  1.0000
  Sn  Sn5       1.0  0.75000  0.89800  0.75000  1.0000
  Sn  Sn6       1.0  0.39800  0.25000  0.75000  1.0000
