data_image0
_chemical_formula_structural       Co4Tm6
_chemical_formula_sum              "Co4 Tm6"
_cell_length_a       6.53872
_cell_length_b       6.53872
_cell_length_c       7.07537
_cell_angle_alpha    117.521
_cell_angle_beta     62.4788
_cell_angle_gamma    120

_space_group_name_H-M_alt    "P 1"
_space_group_IT_number       1

loop_
  _space_group_symop_operation_xyz
  'x, y, z'

loop_
  _atom_site_type_symbol
  _atom_site_label
  _atom_site_symmetry_multiplicity
  _atom_site_fract_x
  _atom_site_fract_y
  _atom_site_fract_z
  _atom_site_occupancy
  Co  Co1       1.0  0.32200  0.67800  0.03480  1.0000
  Co  Co2       1.0  0.17800  0.82200  0.46500  1.0000
  Co  Co3       1.0  0.82200  0.17800  0.53500  1.0000
  Co  Co4       1.0  0.67800  0.32200  0.96500  1.0000
  Tm  Tm1       1.0  0.25000  0.10500  0.25000  1.0000
  Tm  Tm2       1.0  0.89500  0.39500  0.25000  1.0000
  Tm  Tm3       1.0  0.60500  0.75000  0.25000  1.0000
  Tm  Tm4       1.0  0.39500  0.25000  0.75000  1.0000
  Tm  Tm5       1.0  0.10500  0.60500  0.75000  1.0000
  Tm  Tm6       1.0  0.75000  0.89500  0.75000  1.0000
