data_image0
_chemical_formula_structural       Er6Zr8
_chemical_formula_sum              "Er6 Zr8"
_cell_length_a       8.86939
_cell_length_b       8.86936
_cell_length_c       5.32604
_cell_angle_alpha    90
_cell_angle_beta     90
_cell_angle_gamma    59.9998

_space_group_name_H-M_alt    "P 1"
_space_group_IT_number       1

loop_
  _space_group_symop_operation_xyz
  'x, y, z'

loop_
  _atom_site_type_symbol
  _atom_site_label
  _atom_site_symmetry_multiplicity
  _atom_site_fract_x
  _atom_site_fract_y
  _atom_site_fract_z
  _atom_site_occupancy
  Er  Er1       1.0  0.13300  0.28400  0.00000  1.0000
  Er  Er2       1.0  0.29700  0.56200  0.00000  1.0000
  Er  Er3       1.0  0.85600  0.72500  0.00000  1.0000
  Er  Er4       1.0  0.39000  0.09650  0.50000  1.0000
  Er  Er5       1.0  0.66800  0.65600  0.50000  1.0000
  Er  Er6       1.0  0.22700  0.81900  0.50000  1.0000
  Zr  Zr1       1.0  0.98900  0.01320  0.00000  1.0000
  Zr  Zr2       1.0  0.58500  0.14000  0.00000  1.0000
  Zr  Zr3       1.0  0.71200  0.41800  0.00000  1.0000
  Zr  Zr4       1.0  0.42900  0.85700  0.00000  1.0000
  Zr  Zr5       1.0  0.93900  0.24100  0.50000  1.0000
  Zr  Zr6       1.0  0.53400  0.36800  0.50000  1.0000
  Zr  Zr7       1.0  0.09520  0.52400  0.50000  1.0000
  Zr  Zr8       1.0  0.81200  0.96300  0.50000  1.0000
