data_image0
_chemical_formula_structural       Cd2Co4O8
_chemical_formula_sum              "Cd2 Co4 O8"
_cell_length_a       6.08461
_cell_length_b       6.08461
_cell_length_c       6.08461
_cell_angle_alpha    118.746
_cell_angle_beta     92.1865
_cell_angle_gamma    118.746

_space_group_name_H-M_alt    "P 1"
_space_group_IT_number       1

loop_
  _space_group_symop_operation_xyz
  'x, y, z'

loop_
  _atom_site_type_symbol
  _atom_site_label
  _atom_site_symmetry_multiplicity
  _atom_site_fract_x
  _atom_site_fract_y
  _atom_site_fract_z
  _atom_site_occupancy
  Cd  Cd1       1.0  0.00000  0.00000  0.00000  1.0000
  Cd  Cd2       1.0  0.75000  0.50000  0.25000  1.0000
  Co  Co1       1.0  0.37500  0.75000  0.12500  1.0000
  Co  Co2       1.0  0.37500  0.25000  0.62500  1.0000
  Co  Co3       1.0  0.37500  0.75000  0.62500  1.0000
  Co  Co4       1.0  0.87500  0.25000  0.62500  1.0000
  O   O1        1.0  0.60500  0.78400  0.38900  1.0000
  O   O2        1.0  0.61100  0.21600  0.39500  1.0000
  O   O3        1.0  0.17800  0.78400  0.39500  1.0000
  O   O4        1.0  0.14500  0.28400  0.42800  1.0000
  O   O5        1.0  0.60500  0.21600  0.82200  1.0000
  O   O6        1.0  0.13900  0.28400  0.85500  1.0000
  O   O7        1.0  0.57200  0.71600  0.85500  1.0000
  O   O8        1.0  0.14500  0.71600  0.86100  1.0000
