data_image0
_chemical_formula_structural       Co4Yb6
_chemical_formula_sum              "Co4 Yb6"
_cell_length_a       6.90001
_cell_length_b       6.90001
_cell_length_c       7.12551
_cell_angle_alpha    118.959
_cell_angle_beta     61.0415
_cell_angle_gamma    120

_space_group_name_H-M_alt    "P 1"
_space_group_IT_number       1

loop_
  _space_group_symop_operation_xyz
  'x, y, z'

loop_
  _atom_site_type_symbol
  _atom_site_label
  _atom_site_symmetry_multiplicity
  _atom_site_fract_x
  _atom_site_fract_y
  _atom_site_fract_z
  _atom_site_occupancy
  Co  Co1       1.0  0.31200  0.68800  0.06290  1.0000
  Co  Co2       1.0  0.18800  0.81200  0.43700  1.0000
  Co  Co3       1.0  0.81200  0.18800  0.56300  1.0000
  Co  Co4       1.0  0.68800  0.31200  0.93700  1.0000
  Yb  Yb1       1.0  0.25000  0.11500  0.25000  1.0000
  Yb  Yb2       1.0  0.61500  0.75000  0.25000  1.0000
  Yb  Yb3       1.0  0.88500  0.38500  0.25000  1.0000
  Yb  Yb4       1.0  0.11500  0.61500  0.75000  1.0000
  Yb  Yb5       1.0  0.38500  0.25000  0.75000  1.0000
  Yb  Yb6       1.0  0.75000  0.88500  0.75000  1.0000
