data_image0
_chemical_formula_structural       Co4Rb6
_chemical_formula_sum              "Co4 Rb6"
_cell_length_a       8.5707
_cell_length_b       8.5707
_cell_length_c       8.92694
_cell_angle_alpha    118.688
_cell_angle_beta     61.3115
_cell_angle_gamma    120

_space_group_name_H-M_alt    "P 1"
_space_group_IT_number       1

loop_
  _space_group_symop_operation_xyz
  'x, y, z'

loop_
  _atom_site_type_symbol
  _atom_site_label
  _atom_site_symmetry_multiplicity
  _atom_site_fract_x
  _atom_site_fract_y
  _atom_site_fract_z
  _atom_site_occupancy
  Co  Co1       1.0  0.29600  0.70400  0.11100  1.0000
  Co  Co2       1.0  0.20400  0.79600  0.38900  1.0000
  Co  Co3       1.0  0.79600  0.20400  0.61100  1.0000
  Co  Co4       1.0  0.70400  0.29600  0.88900  1.0000
  Rb  Rb1       1.0  0.63200  0.75000  0.25000  1.0000
  Rb  Rb2       1.0  0.86800  0.36800  0.25000  1.0000
  Rb  Rb3       1.0  0.25000  0.13200  0.25000  1.0000
  Rb  Rb4       1.0  0.75000  0.86800  0.75000  1.0000
  Rb  Rb5       1.0  0.13200  0.63200  0.75000  1.0000
  Rb  Rb6       1.0  0.36800  0.25000  0.75000  1.0000
