data_image0
_chemical_formula_structural       B6Zr8
_chemical_formula_sum              "B6 Zr8"
_cell_length_a       8.70228
_cell_length_b       8.7023
_cell_length_c       3.25395
_cell_angle_alpha    90
_cell_angle_beta     90
_cell_angle_gamma    60.0004

_space_group_name_H-M_alt    "P 1"
_space_group_IT_number       1

loop_
  _space_group_symop_operation_xyz
  'x, y, z'

loop_
  _atom_site_type_symbol
  _atom_site_label
  _atom_site_symmetry_multiplicity
  _atom_site_fract_x
  _atom_site_fract_y
  _atom_site_fract_z
  _atom_site_occupancy
  B   B1        1.0  0.20100  0.22800  0.00000  1.0000
  B   B2        1.0  0.28500  0.63000  0.00000  1.0000
  B   B3        1.0  0.80000  0.71300  0.00000  1.0000
  B   B4        1.0  0.32300  0.15200  0.50000  1.0000
  B   B5        1.0  0.72400  0.66800  0.50000  1.0000
  B   B6        1.0  0.23900  0.75100  0.50000  1.0000
  Zr  Zr1       1.0  0.45400  0.27100  0.00000  1.0000
  Zr  Zr2       1.0  0.84200  0.41800  0.00000  1.0000
  Zr  Zr3       1.0  0.42900  0.85700  0.00000  1.0000
  Zr  Zr4       1.0  0.99000  0.88200  0.00000  1.0000
  Zr  Zr5       1.0  0.07020  0.11000  0.50000  1.0000
  Zr  Zr6       1.0  0.53400  0.49900  0.50000  1.0000
  Zr  Zr7       1.0  0.09520  0.52400  0.50000  1.0000
  Zr  Zr8       1.0  0.68100  0.96300  0.50000  1.0000
