data_image0
_chemical_formula_structural       Eu6Zr8
_chemical_formula_sum              "Eu6 Zr8"
_cell_length_a       8.98015
_cell_length_b       8.98018
_cell_length_c       5.50589
_cell_angle_alpha    90
_cell_angle_beta     90
_cell_angle_gamma    60

_space_group_name_H-M_alt    "P 1"
_space_group_IT_number       1

loop_
  _space_group_symop_operation_xyz
  'x, y, z'

loop_
  _atom_site_type_symbol
  _atom_site_label
  _atom_site_symmetry_multiplicity
  _atom_site_fract_x
  _atom_site_fract_y
  _atom_site_fract_z
  _atom_site_occupancy
  Eu  Eu1       1.0  0.13800  0.28100  0.00000  1.0000
  Eu  Eu2       1.0  0.29400  0.56700  0.00000  1.0000
  Eu  Eu3       1.0  0.85300  0.72300  0.00000  1.0000
  Eu  Eu4       1.0  0.38600  0.09930  0.50000  1.0000
  Eu  Eu5       1.0  0.67100  0.65800  0.50000  1.0000
  Eu  Eu6       1.0  0.22900  0.81400  0.50000  1.0000
  Zr  Zr1       1.0  0.98500  0.02720  0.00000  1.0000
  Zr  Zr2       1.0  0.59900  0.13100  0.00000  1.0000
  Zr  Zr3       1.0  0.70300  0.41300  0.00000  1.0000
  Zr  Zr4       1.0  0.42900  0.85700  0.00000  1.0000
  Zr  Zr5       1.0  0.92500  0.25000  0.50000  1.0000
  Zr  Zr6       1.0  0.53900  0.35400  0.50000  1.0000
  Zr  Zr7       1.0  0.09520  0.52400  0.50000  1.0000
  Zr  Zr8       1.0  0.82100  0.96800  0.50000  1.0000
