data_image0
_chemical_formula_structural       Pu6Ti8
_chemical_formula_sum              "Pu6 Ti8"
_cell_length_a       8.03968
_cell_length_b       8.0393
_cell_length_c       4.93437
_cell_angle_alpha    90
_cell_angle_beta     90
_cell_angle_gamma    59.9355

_space_group_name_H-M_alt    "P 1"
_space_group_IT_number       1

loop_
  _space_group_symop_operation_xyz
  'x, y, z'

loop_
  _atom_site_type_symbol
  _atom_site_label
  _atom_site_symmetry_multiplicity
  _atom_site_fract_x
  _atom_site_fract_y
  _atom_site_fract_z
  _atom_site_occupancy
  Pu  Pu1       1.0  0.13200  0.28600  0.00000  1.0000
  Pu  Pu2       1.0  0.29600  0.56100  0.00000  1.0000
  Pu  Pu3       1.0  0.85700  0.72400  0.00000  1.0000
  Pu  Pu4       1.0  0.39100  0.09520  0.50000  1.0000
  Pu  Pu5       1.0  0.66700  0.65700  0.50000  1.0000
  Pu  Pu6       1.0  0.22800  0.82000  0.50000  1.0000
  Ti  Ti1       1.0  0.98600  0.01070  0.00000  1.0000
  Ti  Ti2       1.0  0.58200  0.14600  0.00000  1.0000
  Ti  Ti3       1.0  0.71700  0.41500  0.00000  1.0000
  Ti  Ti4       1.0  0.42800  0.85700  0.00000  1.0000
  Ti  Ti5       1.0  0.94200  0.23500  0.50000  1.0000
  Ti  Ti6       1.0  0.53700  0.37000  0.50000  1.0000
  Ti  Ti7       1.0  0.09570  0.52400  0.50000  1.0000
  Ti  Ti8       1.0  0.80700  0.96600  0.50000  1.0000
