data_image0
_chemical_formula_structural       Ba6Zr8
_chemical_formula_sum              "Ba6 Zr8"
_cell_length_a       9.64566
_cell_length_b       9.64582
_cell_length_c       5.67319
_cell_angle_alpha    90
_cell_angle_beta     90
_cell_angle_gamma    59.9989

_space_group_name_H-M_alt    "P 1"
_space_group_IT_number       1

loop_
  _space_group_symop_operation_xyz
  'x, y, z'

loop_
  _atom_site_type_symbol
  _atom_site_label
  _atom_site_symmetry_multiplicity
  _atom_site_fract_x
  _atom_site_fract_y
  _atom_site_fract_z
  _atom_site_occupancy
  Ba  Ba1       1.0  0.12900  0.28000  0.00000  1.0000
  Ba  Ba2       1.0  0.30500  0.55800  0.00000  1.0000
  Ba  Ba3       1.0  0.85200  0.73300  0.00000  1.0000
  Ba  Ba4       1.0  0.39400  0.10100  0.50000  1.0000
  Ba  Ba5       1.0  0.67200  0.64700  0.50000  1.0000
  Ba  Ba6       1.0  0.21900  0.82300  0.50000  1.0000
  Zr  Zr1       1.0  0.96400  0.04210  0.00000  1.0000
  Zr  Zr2       1.0  0.61300  0.13600  0.00000  1.0000
  Zr  Zr3       1.0  0.70800  0.39300  0.00000  1.0000
  Zr  Zr4       1.0  0.42900  0.85700  0.00000  1.0000
  Zr  Zr5       1.0  0.91000  0.24400  0.50000  1.0000
  Zr  Zr6       1.0  0.55900  0.33900  0.50000  1.0000
  Zr  Zr7       1.0  0.09520  0.52400  0.50000  1.0000
  Zr  Zr8       1.0  0.81600  0.98800  0.50000  1.0000
