data_image0
_chemical_formula_structural       Co4W6
_chemical_formula_sum              "Co4 W6"
_cell_length_a       6.69633
_cell_length_b       4.87976
_cell_length_c       5.17433
_cell_angle_alpha    119.826
_cell_angle_beta     87.8553
_cell_angle_gamma    106.237

_space_group_name_H-M_alt    "P 1"
_space_group_IT_number       1

loop_
  _space_group_symop_operation_xyz
  'x, y, z'

loop_
  _atom_site_type_symbol
  _atom_site_label
  _atom_site_symmetry_multiplicity
  _atom_site_fract_x
  _atom_site_fract_y
  _atom_site_fract_z
  _atom_site_occupancy
  Co  Co1       1.0  0.83000  0.91100  0.30200  1.0000
  Co  Co2       1.0  0.63300  0.35900  0.32600  1.0000
  Co  Co3       1.0  0.36700  0.64300  0.67300  1.0000
  Co  Co4       1.0  0.17000  0.09040  0.70000  1.0000
  W   W1        1.0  0.23000  0.10000  0.19100  1.0000
  W   W2        1.0  0.44600  0.73800  0.22200  1.0000
  W   W3        1.0  0.01120  0.50300  0.25100  1.0000
  W   W4        1.0  0.98900  0.49700  0.75100  1.0000
  W   W5        1.0  0.55400  0.25900  0.77300  1.0000
  W   W6        1.0  0.77000  0.89900  0.81000  1.0000
