data_image0
_chemical_formula_structural       Fe6Zr8
_chemical_formula_sum              "Fe6 Zr8"
_cell_length_a       8.01922
_cell_length_b       8.01998
_cell_length_c       4.37962
_cell_angle_alpha    90
_cell_angle_beta     90
_cell_angle_gamma    59.9918

_space_group_name_H-M_alt    "P 1"
_space_group_IT_number       1

loop_
  _space_group_symop_operation_xyz
  'x, y, z'

loop_
  _atom_site_type_symbol
  _atom_site_label
  _atom_site_symmetry_multiplicity
  _atom_site_fract_x
  _atom_site_fract_y
  _atom_site_fract_z
  _atom_site_occupancy
  Fe  Fe1       1.0  0.14000  0.29500  0.00000  1.0000
  Fe  Fe2       1.0  0.27900  0.56900  0.00000  1.0000
  Fe  Fe3       1.0  0.86600  0.70800  0.00000  1.0000
  Fe  Fe4       1.0  0.38400  0.08600  0.50000  1.0000
  Fe  Fe5       1.0  0.65700  0.67300  0.50000  1.0000
  Fe  Fe6       1.0  0.24500  0.81200  0.50000  1.0000
  Zr  Zr1       1.0  0.48500  0.21300  0.00000  1.0000
  Zr  Zr2       1.0  0.78400  0.44500  0.00000  1.0000
  Zr  Zr3       1.0  0.42900  0.85700  0.00000  1.0000
  Zr  Zr4       1.0  0.01620  0.91400  0.00000  1.0000
  Zr  Zr5       1.0  0.03830  0.16800  0.50000  1.0000
  Zr  Zr6       1.0  0.50800  0.46700  0.50000  1.0000
  Zr  Zr7       1.0  0.09520  0.52400  0.50000  1.0000
  Zr  Zr8       1.0  0.74000  0.93600  0.50000  1.0000
