data_image0
_chemical_formula_structural       Ga6Zr8
_chemical_formula_sum              "Ga6 Zr8"
_cell_length_a       8.13198
_cell_length_b       8.13214
_cell_length_c       4.94058
_cell_angle_alpha    90
_cell_angle_beta     90
_cell_angle_gamma    59.9974

_space_group_name_H-M_alt    "P 1"
_space_group_IT_number       1

loop_
  _space_group_symop_operation_xyz
  'x, y, z'

loop_
  _atom_site_type_symbol
  _atom_site_label
  _atom_site_symmetry_multiplicity
  _atom_site_fract_x
  _atom_site_fract_y
  _atom_site_fract_z
  _atom_site_occupancy
  Ga  Ga1       1.0  0.70600  0.43500  0.00000  1.0000
  Ga  Ga2       1.0  0.29200  0.57300  0.00000  1.0000
  Ga  Ga3       1.0  0.43000  0.84900  0.00000  1.0000
  Ga  Ga4       1.0  0.52200  0.38900  0.50000  1.0000
  Ga  Ga5       1.0  0.66100  0.66500  0.50000  1.0000
  Ga  Ga6       1.0  0.24600  0.80300  0.50000  1.0000
  Zr  Zr1       1.0  0.56900  0.17400  0.00000  1.0000
  Zr  Zr2       1.0  0.14300  0.28600  0.00000  1.0000
  Zr  Zr3       1.0  0.82900  0.71100  0.00000  1.0000
  Zr  Zr4       1.0  0.03100  0.97200  0.00000  1.0000
  Zr  Zr5       1.0  0.38400  0.06420  0.50000  1.0000
  Zr  Zr6       1.0  0.92100  0.26600  0.50000  1.0000
  Zr  Zr7       1.0  0.12300  0.52700  0.50000  1.0000
  Zr  Zr8       1.0  0.81000  0.95200  0.50000  1.0000
