data_image0
_chemical_formula_structural       Ba2Co4O8
_chemical_formula_sum              "Ba2 Co4 O8"
_cell_length_a       6.31992
_cell_length_b       6.31992
_cell_length_c       6.31992
_cell_angle_alpha    114.694
_cell_angle_beta     99.4648
_cell_angle_gamma    114.694

_space_group_name_H-M_alt    "P 1"
_space_group_IT_number       1

loop_
  _space_group_symop_operation_xyz
  'x, y, z'

loop_
  _atom_site_type_symbol
  _atom_site_label
  _atom_site_symmetry_multiplicity
  _atom_site_fract_x
  _atom_site_fract_y
  _atom_site_fract_z
  _atom_site_occupancy
  Ba  Ba1       1.0  0.00000  0.00000  0.00000  1.0000
  Ba  Ba2       1.0  0.75000  0.50000  0.25000  1.0000
  Co  Co1       1.0  0.37500  0.75000  0.12500  1.0000
  Co  Co2       1.0  0.87500  0.25000  0.62500  1.0000
  Co  Co3       1.0  0.37500  0.25000  0.62500  1.0000
  Co  Co4       1.0  0.37500  0.75000  0.62500  1.0000
  O   O1        1.0  0.57700  0.18800  0.38900  1.0000
  O   O2        1.0  0.20100  0.81200  0.38900  1.0000
  O   O3        1.0  0.61100  0.81200  0.42300  1.0000
  O   O4        1.0  0.13900  0.31200  0.45100  1.0000
  O   O5        1.0  0.61100  0.18800  0.79900  1.0000
  O   O6        1.0  0.13900  0.68800  0.82700  1.0000
  O   O7        1.0  0.17300  0.31200  0.86100  1.0000
  O   O8        1.0  0.54900  0.68800  0.86100  1.0000
