data_image0
_chemical_formula_structural       Nd6Zr8
_chemical_formula_sum              "Nd6 Zr8"
_cell_length_a       9.06714
_cell_length_b       9.06716
_cell_length_c       5.46295
_cell_angle_alpha    90
_cell_angle_beta     90
_cell_angle_gamma    59.9991

_space_group_name_H-M_alt    "P 1"
_space_group_IT_number       1

loop_
  _space_group_symop_operation_xyz
  'x, y, z'

loop_
  _atom_site_type_symbol
  _atom_site_label
  _atom_site_symmetry_multiplicity
  _atom_site_fract_x
  _atom_site_fract_y
  _atom_site_fract_z
  _atom_site_occupancy
  Nd  Nd1       1.0  0.12800  0.28500  0.00000  1.0000
  Nd  Nd2       1.0  0.30100  0.55600  0.00000  1.0000
  Nd  Nd3       1.0  0.85700  0.73000  0.00000  1.0000
  Nd  Nd4       1.0  0.39600  0.09570  0.50000  1.0000
  Nd  Nd5       1.0  0.66700  0.65100  0.50000  1.0000
  Nd  Nd6       1.0  0.22300  0.82500  0.50000  1.0000
  Zr  Zr1       1.0  0.98100  0.02290  0.00000  1.0000
  Zr  Zr2       1.0  0.59400  0.13900  0.00000  1.0000
  Zr  Zr3       1.0  0.71000  0.41000  0.00000  1.0000
  Zr  Zr4       1.0  0.42900  0.85700  0.00000  1.0000
  Zr  Zr5       1.0  0.92900  0.24200  0.50000  1.0000
  Zr  Zr6       1.0  0.54200  0.35800  0.50000  1.0000
  Zr  Zr7       1.0  0.09520  0.52400  0.50000  1.0000
  Zr  Zr8       1.0  0.81400  0.97100  0.50000  1.0000
