data_image0
_chemical_formula_structural       Cr6Zr8
_chemical_formula_sum              "Cr6 Zr8"
_cell_length_a       8.21847
_cell_length_b       8.22161
_cell_length_c       4.34427
_cell_angle_alpha    90
_cell_angle_beta     90
_cell_angle_gamma    59.9677

_space_group_name_H-M_alt    "P 1"
_space_group_IT_number       1

loop_
  _space_group_symop_operation_xyz
  'x, y, z'

loop_
  _atom_site_type_symbol
  _atom_site_label
  _atom_site_symmetry_multiplicity
  _atom_site_fract_x
  _atom_site_fract_y
  _atom_site_fract_z
  _atom_site_occupancy
  Cr  Cr1       1.0  0.17900  0.26700  0.00000  1.0000
  Cr  Cr2       1.0  0.26800  0.60800  0.00000  1.0000
  Cr  Cr3       1.0  0.83900  0.69600  0.00000  1.0000
  Cr  Cr4       1.0  0.34500  0.11300  0.50000  1.0000
  Cr  Cr5       1.0  0.68500  0.68500  0.50000  1.0000
  Cr  Cr6       1.0  0.25600  0.77300  0.50000  1.0000
  Zr  Zr1       1.0  0.49500  0.22800  0.00000  1.0000
  Zr  Zr2       1.0  0.79900  0.42000  0.00000  1.0000
  Zr  Zr3       1.0  0.42800  0.85700  0.00000  1.0000
  Zr  Zr4       1.0  0.99100  0.92400  0.00000  1.0000
  Zr  Zr5       1.0  0.02890  0.15300  0.50000  1.0000
  Zr  Zr6       1.0  0.53200  0.45700  0.50000  1.0000
  Zr  Zr7       1.0  0.09540  0.52400  0.50000  1.0000
  Zr  Zr8       1.0  0.72400  0.96100  0.50000  1.0000
