data_image0
_chemical_formula_structural       Co2O8Si4
_chemical_formula_sum              "Co2 O8 Si4"
_cell_length_a       5.7568
_cell_length_b       5.7568
_cell_length_c       5.7568
_cell_angle_alpha    119.542
_cell_angle_beta     90.7947
_cell_angle_gamma    119.542

_space_group_name_H-M_alt    "P 1"
_space_group_IT_number       1

loop_
  _space_group_symop_operation_xyz
  'x, y, z'

loop_
  _atom_site_type_symbol
  _atom_site_label
  _atom_site_symmetry_multiplicity
  _atom_site_fract_x
  _atom_site_fract_y
  _atom_site_fract_z
  _atom_site_occupancy
  Co  Co1       1.0  0.00000  0.00000  0.00000  1.0000
  Co  Co2       1.0  0.75000  0.50000  0.25000  1.0000
  O   O1        1.0  0.60100  0.20900  0.39300  1.0000
  O   O2        1.0  0.18400  0.79100  0.39300  1.0000
  O   O3        1.0  0.60700  0.79100  0.39900  1.0000
  O   O4        1.0  0.14300  0.29100  0.43400  1.0000
  O   O5        1.0  0.60700  0.20900  0.81600  1.0000
  O   O6        1.0  0.14300  0.70900  0.85100  1.0000
  O   O7        1.0  0.14900  0.29100  0.85700  1.0000
  O   O8        1.0  0.56600  0.70900  0.85700  1.0000
  Si  Si1       1.0  0.37500  0.75000  0.12500  1.0000
  Si  Si2       1.0  0.87500  0.25000  0.62500  1.0000
  Si  Si3       1.0  0.37500  0.25000  0.62500  1.0000
  Si  Si4       1.0  0.37500  0.75000  0.62500  1.0000
