data_image0
_chemical_formula_structural       Co2O8W4
_chemical_formula_sum              "Co2 O8 W4"
_cell_length_a       6.05124
_cell_length_b       6.05124
_cell_length_c       6.05124
_cell_angle_alpha    119.988
_cell_angle_beta     90.0214
_cell_angle_gamma    119.988

_space_group_name_H-M_alt    "P 1"
_space_group_IT_number       1

loop_
  _space_group_symop_operation_xyz
  'x, y, z'

loop_
  _atom_site_type_symbol
  _atom_site_label
  _atom_site_symmetry_multiplicity
  _atom_site_fract_x
  _atom_site_fract_y
  _atom_site_fract_z
  _atom_site_occupancy
  Co  Co1       1.0  0.00000  0.00000  0.00000  1.0000
  Co  Co2       1.0  0.75000  0.50000  0.25000  1.0000
  O   O1        1.0  0.13000  0.75300  0.37700  1.0000
  O   O2        1.0  0.62300  0.24700  0.37700  1.0000
  O   O3        1.0  0.62300  0.75300  0.37700  1.0000
  O   O4        1.0  0.12700  0.25300  0.38000  1.0000
  O   O5        1.0  0.62300  0.24700  0.87000  1.0000
  O   O6        1.0  0.12700  0.74700  0.87300  1.0000
  O   O7        1.0  0.12700  0.25300  0.87300  1.0000
  O   O8        1.0  0.62000  0.74700  0.87300  1.0000
  W   W1        1.0  0.37500  0.75000  0.12500  1.0000
  W   W2        1.0  0.87500  0.25000  0.62500  1.0000
  W   W3        1.0  0.37500  0.75000  0.62500  1.0000
  W   W4        1.0  0.37500  0.25000  0.62500  1.0000
