data_image0
_chemical_formula_structural       Co2Mn4O8
_chemical_formula_sum              "Co2 Mn4 O8"
_cell_length_a       5.78193
_cell_length_b       5.78193
_cell_length_c       6.13748
_cell_angle_alpha    118.101
_cell_angle_beta     118.101
_cell_angle_gamma    90

_space_group_name_H-M_alt    "P 1"
_space_group_IT_number       1

loop_
  _space_group_symop_operation_xyz
  'x, y, z'

loop_
  _atom_site_type_symbol
  _atom_site_label
  _atom_site_symmetry_multiplicity
  _atom_site_fract_x
  _atom_site_fract_y
  _atom_site_fract_z
  _atom_site_occupancy
  Co  Co1       1.0  0.00000  0.00000  0.00000  1.0000
  Co  Co2       1.0  0.25000  0.75000  0.50000  1.0000
  Mn  Mn1       1.0  0.62500  0.37500  0.25000  1.0000
  Mn  Mn2       1.0  0.62500  0.87500  0.25000  1.0000
  Mn  Mn3       1.0  0.12500  0.37500  0.75000  1.0000
  Mn  Mn4       1.0  0.62500  0.37500  0.75000  1.0000
  O   O1        1.0  0.39300  0.62000  0.24000  1.0000
  O   O2        1.0  0.84700  0.62000  0.24000  1.0000
  O   O3        1.0  0.40300  0.13000  0.26000  1.0000
  O   O4        1.0  0.85700  0.13000  0.26000  1.0000
  O   O5        1.0  0.87000  0.14300  0.74000  1.0000
  O   O6        1.0  0.87000  0.59700  0.74000  1.0000
  O   O7        1.0  0.38000  0.15300  0.76000  1.0000
  O   O8        1.0  0.38000  0.60700  0.76000  1.0000
