data_image0
_chemical_formula_structural       Dy6Zr8
_chemical_formula_sum              "Dy6 Zr8"
_cell_length_a       8.91483
_cell_length_b       8.91489
_cell_length_c       5.36119
_cell_angle_alpha    90
_cell_angle_beta     90
_cell_angle_gamma    59.9996

_space_group_name_H-M_alt    "P 1"
_space_group_IT_number       1

loop_
  _space_group_symop_operation_xyz
  'x, y, z'

loop_
  _atom_site_type_symbol
  _atom_site_label
  _atom_site_symmetry_multiplicity
  _atom_site_fract_x
  _atom_site_fract_y
  _atom_site_fract_z
  _atom_site_occupancy
  Dy  Dy1       1.0  0.13300  0.28500  0.00000  1.0000
  Dy  Dy2       1.0  0.29700  0.56100  0.00000  1.0000
  Dy  Dy3       1.0  0.85600  0.72600  0.00000  1.0000
  Dy  Dy4       1.0  0.39100  0.09630  0.50000  1.0000
  Dy  Dy5       1.0  0.66800  0.65500  0.50000  1.0000
  Dy  Dy6       1.0  0.22700  0.82000  0.50000  1.0000
  Zr  Zr1       1.0  0.98800  0.01550  0.00000  1.0000
  Zr  Zr2       1.0  0.58700  0.14000  0.00000  1.0000
  Zr  Zr3       1.0  0.71100  0.41600  0.00000  1.0000
  Zr  Zr4       1.0  0.42900  0.85700  0.00000  1.0000
  Zr  Zr5       1.0  0.93700  0.24100  0.50000  1.0000
  Zr  Zr6       1.0  0.53600  0.36500  0.50000  1.0000
  Zr  Zr7       1.0  0.09520  0.52400  0.50000  1.0000
  Zr  Zr8       1.0  0.81300  0.96500  0.50000  1.0000
