data_image0
_chemical_formula_structural       In6Zr8
_chemical_formula_sum              "In6 Zr8"
_cell_length_a       8.35942
_cell_length_b       8.35937
_cell_length_c       5.3228
_cell_angle_alpha    90
_cell_angle_beta     90
_cell_angle_gamma    59.9944

_space_group_name_H-M_alt    "P 1"
_space_group_IT_number       1

loop_
  _space_group_symop_operation_xyz
  'x, y, z'

loop_
  _atom_site_type_symbol
  _atom_site_label
  _atom_site_symmetry_multiplicity
  _atom_site_fract_x
  _atom_site_fract_y
  _atom_site_fract_z
  _atom_site_occupancy
  In  In1       1.0  0.71900  0.42400  0.00000  1.0000
  In  In2       1.0  0.28100  0.57100  0.00000  1.0000
  In  In3       1.0  0.42900  0.86200  0.00000  1.0000
  In  In4       1.0  0.52400  0.37600  0.50000  1.0000
  In  In5       1.0  0.67100  0.66700  0.50000  1.0000
  In  In6       1.0  0.23400  0.81400  0.50000  1.0000
  Zr  Zr1       1.0  0.57100  0.14900  0.00000  1.0000
  Zr  Zr2       1.0  0.14300  0.28600  0.00000  1.0000
  Zr  Zr3       1.0  0.85100  0.71400  0.00000  1.0000
  Zr  Zr4       1.0  0.00623  0.99400  0.00000  1.0000
  Zr  Zr5       1.0  0.38200  0.08890  0.50000  1.0000
  Zr  Zr6       1.0  0.94600  0.24400  0.50000  1.0000
  Zr  Zr7       1.0  0.10100  0.52400  0.50000  1.0000
  Zr  Zr8       1.0  0.81000  0.95200  0.50000  1.0000
