data_image0
_chemical_formula_structural       Ho6Zr8
_chemical_formula_sum              "Ho6 Zr8"
_cell_length_a       8.93471
_cell_length_b       8.93561
_cell_length_c       5.30686
_cell_angle_alpha    90
_cell_angle_beta     90
_cell_angle_gamma    59.9951

_space_group_name_H-M_alt    "P 1"
_space_group_IT_number       1

loop_
  _space_group_symop_operation_xyz
  'x, y, z'

loop_
  _atom_site_type_symbol
  _atom_site_label
  _atom_site_symmetry_multiplicity
  _atom_site_fract_x
  _atom_site_fract_y
  _atom_site_fract_z
  _atom_site_occupancy
  Ho  Ho1       1.0  0.73000  0.42000  0.00000  1.0000
  Ho  Ho2       1.0  0.27700  0.56500  0.00000  1.0000
  Ho  Ho3       1.0  0.42200  0.87300  0.00000  1.0000
  Ho  Ho4       1.0  0.53000  0.36600  0.50000  1.0000
  Ho  Ho5       1.0  0.67600  0.67300  0.50000  1.0000
  Ho  Ho6       1.0  0.22300  0.81800  0.50000  1.0000
  Zr  Zr1       1.0  0.98100  0.00918  0.00000  1.0000
  Zr  Zr2       1.0  0.58100  0.12400  0.00000  1.0000
  Zr  Zr3       1.0  0.14300  0.28600  0.00000  1.0000
  Zr  Zr4       1.0  0.86600  0.72400  0.00000  1.0000
  Zr  Zr5       1.0  0.37100  0.11400  0.50000  1.0000
  Zr  Zr6       1.0  0.97100  0.22900  0.50000  1.0000
  Zr  Zr7       1.0  0.08600  0.51400  0.50000  1.0000
  Zr  Zr8       1.0  0.80900  0.95200  0.50000  1.0000
