data_image0
_chemical_formula_structural       Co2O8Re4
_chemical_formula_sum              "Co2 O8 Re4"
_cell_length_a       6.02449
_cell_length_b       6.02449
_cell_length_c       6.02449
_cell_angle_alpha    119.981
_cell_angle_beta     90.0338
_cell_angle_gamma    119.981

_space_group_name_H-M_alt    "P 1"
_space_group_IT_number       1

loop_
  _space_group_symop_operation_xyz
  'x, y, z'

loop_
  _atom_site_type_symbol
  _atom_site_label
  _atom_site_symmetry_multiplicity
  _atom_site_fract_x
  _atom_site_fract_y
  _atom_site_fract_z
  _atom_site_occupancy
  Co  Co1       1.0  0.00000  0.00000  0.00000  1.0000
  Co  Co2       1.0  0.75000  0.50000  0.25000  1.0000
  O   O1        1.0  0.13200  0.75500  0.37700  1.0000
  O   O2        1.0  0.62200  0.24500  0.37700  1.0000
  O   O3        1.0  0.62300  0.75500  0.37800  1.0000
  O   O4        1.0  0.12700  0.25500  0.38200  1.0000
  O   O5        1.0  0.62300  0.24500  0.86800  1.0000
  O   O6        1.0  0.12700  0.74500  0.87200  1.0000
  O   O7        1.0  0.12800  0.25500  0.87300  1.0000
  O   O8        1.0  0.61800  0.74500  0.87300  1.0000
  Re  Re1       1.0  0.37500  0.75000  0.12500  1.0000
  Re  Re2       1.0  0.37500  0.25000  0.62500  1.0000
  Re  Re3       1.0  0.37500  0.75000  0.62500  1.0000
  Re  Re4       1.0  0.87500  0.25000  0.62500  1.0000
