data_image0
_chemical_formula_structural       Co4Pu6
_chemical_formula_sum              "Co4 Pu6"
_cell_length_a       6.32267
_cell_length_b       6.32267
_cell_length_c       7.00809
_cell_angle_alpha    116.814
_cell_angle_beta     63.1858
_cell_angle_gamma    120

_space_group_name_H-M_alt    "P 1"
_space_group_IT_number       1

loop_
  _space_group_symop_operation_xyz
  'x, y, z'

loop_
  _atom_site_type_symbol
  _atom_site_label
  _atom_site_symmetry_multiplicity
  _atom_site_fract_x
  _atom_site_fract_y
  _atom_site_fract_z
  _atom_site_occupancy
  Co  Co1       1.0  0.31800  0.68200  0.04640  1.0000
  Co  Co2       1.0  0.18200  0.81800  0.45400  1.0000
  Co  Co3       1.0  0.81800  0.18200  0.54600  1.0000
  Co  Co4       1.0  0.68200  0.31800  0.95400  1.0000
  Pu  Pu1       1.0  0.25000  0.14300  0.25000  1.0000
  Pu  Pu2       1.0  0.85700  0.35700  0.25000  1.0000
  Pu  Pu3       1.0  0.64300  0.75000  0.25000  1.0000
  Pu  Pu4       1.0  0.35700  0.25000  0.75000  1.0000
  Pu  Pu5       1.0  0.14300  0.64300  0.75000  1.0000
  Pu  Pu6       1.0  0.75000  0.85700  0.75000  1.0000
