data_image0
_chemical_formula_structural       Co4U6
_chemical_formula_sum              "Co4 U6"
_cell_length_a       6.36548
_cell_length_b       6.36548
_cell_length_c       6.6032
_cell_angle_alpha    118.816
_cell_angle_beta     61.1839
_cell_angle_gamma    120

_space_group_name_H-M_alt    "P 1"
_space_group_IT_number       1

loop_
  _space_group_symop_operation_xyz
  'x, y, z'

loop_
  _atom_site_type_symbol
  _atom_site_label
  _atom_site_symmetry_multiplicity
  _atom_site_fract_x
  _atom_site_fract_y
  _atom_site_fract_z
  _atom_site_occupancy
  Co  Co1       1.0  0.32000  0.68000  0.03890  1.0000
  Co  Co2       1.0  0.18000  0.82000  0.46100  1.0000
  Co  Co3       1.0  0.82000  0.18000  0.53900  1.0000
  Co  Co4       1.0  0.68000  0.32000  0.96100  1.0000
  U   U1        1.0  0.25000  0.19100  0.25000  1.0000
  U   U2        1.0  0.80900  0.30900  0.25000  1.0000
  U   U3        1.0  0.69100  0.75000  0.25000  1.0000
  U   U4        1.0  0.30900  0.25000  0.75000  1.0000
  U   U5        1.0  0.19100  0.69100  0.75000  1.0000
  U   U6        1.0  0.75000  0.80900  0.75000  1.0000
