data_image0
_chemical_formula_structural       Li6Zr8
_chemical_formula_sum              "Li6 Zr8"
_cell_length_a       8.10257
_cell_length_b       8.10505
_cell_length_c       4.814
_cell_angle_alpha    90
_cell_angle_beta     90
_cell_angle_gamma    60.0137

_space_group_name_H-M_alt    "P 1"
_space_group_IT_number       1

loop_
  _space_group_symop_operation_xyz
  'x, y, z'

loop_
  _atom_site_type_symbol
  _atom_site_label
  _atom_site_symmetry_multiplicity
  _atom_site_fract_x
  _atom_site_fract_y
  _atom_site_fract_z
  _atom_site_occupancy
  Li  Li1       1.0  0.14800  0.28700  0.00000  1.0000
  Li  Li2       1.0  0.27900  0.57600  0.00000  1.0000
  Li  Li3       1.0  0.85900  0.70800  0.00000  1.0000
  Li  Li4       1.0  0.37600  0.09390  0.50000  1.0000
  Li  Li5       1.0  0.66500  0.67300  0.50000  1.0000
  Li  Li6       1.0  0.24400  0.80500  0.50000  1.0000
  Zr  Zr1       1.0  0.54300  0.16400  0.00000  1.0000
  Zr  Zr2       1.0  0.73600  0.43600  0.00000  1.0000
  Zr  Zr3       1.0  0.42900  0.85700  0.00000  1.0000
  Zr  Zr4       1.0  0.00761  0.97100  0.00000  1.0000
  Zr  Zr5       1.0  0.98100  0.21700  0.50000  1.0000
  Zr  Zr6       1.0  0.51600  0.41000  0.50000  1.0000
  Zr  Zr7       1.0  0.09520  0.52400  0.50000  1.0000
  Zr  Zr8       1.0  0.78800  0.94500  0.50000  1.0000
