data_image0
_chemical_formula_structural       Ba6Ti8
_chemical_formula_sum              "Ba6 Ti8"
_cell_length_a       10.9869
_cell_length_b       11.9712
_cell_length_c       4.45359
_cell_angle_alpha    90
_cell_angle_beta     90
_cell_angle_gamma    61.5335

_space_group_name_H-M_alt    "P 1"
_space_group_IT_number       1

loop_
  _space_group_symop_operation_xyz
  'x, y, z'

loop_
  _atom_site_type_symbol
  _atom_site_label
  _atom_site_symmetry_multiplicity
  _atom_site_fract_x
  _atom_site_fract_y
  _atom_site_fract_z
  _atom_site_occupancy
  Ba  Ba1       1.0  0.97700  0.30800  0.00000  1.0000
  Ba  Ba2       1.0  0.17400  0.53600  0.00000  1.0000
  Ba  Ba3       1.0  0.38800  0.80300  0.00000  1.0000
  Ba  Ba4       1.0  0.56500  0.43500  0.50000  1.0000
  Ba  Ba5       1.0  0.77900  0.70200  0.50000  1.0000
  Ba  Ba6       1.0  0.97600  0.93000  0.50000  1.0000
  Ti  Ti1       1.0  0.33000  0.10700  0.00000  1.0000
  Ti  Ti2       1.0  0.73700  0.17000  0.00000  1.0000
  Ti  Ti3       1.0  0.47500  0.23800  0.00000  1.0000
  Ti  Ti4       1.0  0.66700  0.98700  0.00000  1.0000
  Ti  Ti5       1.0  0.47700  0.00000  0.50000  1.0000
  Ti  Ti6       1.0  0.21600  0.06850  0.50000  1.0000
  Ti  Ti7       1.0  0.62200  0.13100  0.50000  1.0000
  Ti  Ti8       1.0  0.28500  0.25100  0.50000  1.0000
