data_image0
_chemical_formula_structural       Ce2Co4O8
_chemical_formula_sum              "Ce2 Co4 O8"
_cell_length_a       6.27869
_cell_length_b       6.27869
_cell_length_c       6.27869
_cell_angle_alpha    117.924
_cell_angle_beta     93.6353
_cell_angle_gamma    117.924

_space_group_name_H-M_alt    "P 1"
_space_group_IT_number       1

loop_
  _space_group_symop_operation_xyz
  'x, y, z'

loop_
  _atom_site_type_symbol
  _atom_site_label
  _atom_site_symmetry_multiplicity
  _atom_site_fract_x
  _atom_site_fract_y
  _atom_site_fract_z
  _atom_site_occupancy
  Ce  Ce1       1.0  0.00000  0.00000  0.00000  1.0000
  Ce  Ce2       1.0  0.75000  0.50000  0.25000  1.0000
  Co  Co1       1.0  0.37500  0.75000  0.12500  1.0000
  Co  Co2       1.0  0.37500  0.75000  0.62500  1.0000
  Co  Co3       1.0  0.37500  0.25000  0.62500  1.0000
  Co  Co4       1.0  0.87500  0.25000  0.62500  1.0000
  O   O1        1.0  0.18100  0.79100  0.39000  1.0000
  O   O2        1.0  0.59900  0.20900  0.39000  1.0000
  O   O3        1.0  0.61000  0.79100  0.40100  1.0000
  O   O4        1.0  0.14000  0.29100  0.43100  1.0000
  O   O5        1.0  0.61000  0.20900  0.81900  1.0000
  O   O6        1.0  0.14000  0.70900  0.84900  1.0000
  O   O7        1.0  0.15100  0.29100  0.86000  1.0000
  O   O8        1.0  0.56900  0.70900  0.86000  1.0000
