data_image0
_chemical_formula_structural       Mg6Zr8
_chemical_formula_sum              "Mg6 Zr8"
_cell_length_a       8.53378
_cell_length_b       8.53583
_cell_length_c       5.02206
_cell_angle_alpha    90
_cell_angle_beta     90
_cell_angle_gamma    60.0114

_space_group_name_H-M_alt    "P 1"
_space_group_IT_number       1

loop_
  _space_group_symop_operation_xyz
  'x, y, z'

loop_
  _atom_site_type_symbol
  _atom_site_label
  _atom_site_symmetry_multiplicity
  _atom_site_fract_x
  _atom_site_fract_y
  _atom_site_fract_z
  _atom_site_occupancy
  Mg  Mg1       1.0  0.71300  0.42900  0.00000  1.0000
  Mg  Mg2       1.0  0.28700  0.57200  0.00000  1.0000
  Mg  Mg3       1.0  0.42900  0.85600  0.00000  1.0000
  Mg  Mg4       1.0  0.52300  0.38200  0.50000  1.0000
  Mg  Mg5       1.0  0.66600  0.66600  0.50000  1.0000
  Mg  Mg6       1.0  0.23900  0.80900  0.50000  1.0000
  Zr  Zr1       1.0  0.57500  0.14500  0.00000  1.0000
  Zr  Zr2       1.0  0.14300  0.28600  0.00000  1.0000
  Zr  Zr3       1.0  0.85200  0.71800  0.00000  1.0000
  Zr  Zr4       1.0  0.00169  0.99500  0.00000  1.0000
  Zr  Zr5       1.0  0.37700  0.09350  0.50000  1.0000
  Zr  Zr6       1.0  0.95100  0.24400  0.50000  1.0000
  Zr  Zr7       1.0  0.10100  0.52000  0.50000  1.0000
  Zr  Zr8       1.0  0.80900  0.95200  0.50000  1.0000
