data_image0
_chemical_formula_structural       Sb6Zr8
_chemical_formula_sum              "Sb6 Zr8"
_cell_length_a       8.43642
_cell_length_b       8.43642
_cell_length_c       5.66233
_cell_angle_alpha    90
_cell_angle_beta     90
_cell_angle_gamma    60.0005

_space_group_name_H-M_alt    "P 1"
_space_group_IT_number       1

loop_
  _space_group_symop_operation_xyz
  'x, y, z'

loop_
  _atom_site_type_symbol
  _atom_site_label
  _atom_site_symmetry_multiplicity
  _atom_site_fract_x
  _atom_site_fract_y
  _atom_site_fract_z
  _atom_site_occupancy
  Sb  Sb1       1.0  0.77100  0.37500  0.00000  1.0000
  Sb  Sb2       1.0  0.23200  0.56800  0.00000  1.0000
  Sb  Sb3       1.0  0.42500  0.91400  0.00000  1.0000
  Sb  Sb4       1.0  0.52700  0.32400  0.50000  1.0000
  Sb  Sb5       1.0  0.72000  0.67000  0.50000  1.0000
  Sb  Sb6       1.0  0.18100  0.86300  0.50000  1.0000
  Zr  Zr1       1.0  0.57400  0.17500  0.00000  1.0000
  Zr  Zr2       1.0  0.14300  0.28600  0.00000  1.0000
  Zr  Zr3       1.0  0.82200  0.71700  0.00000  1.0000
  Zr  Zr4       1.0  0.03250  0.96500  0.00000  1.0000
  Zr  Zr5       1.0  0.37800  0.06280  0.50000  1.0000
  Zr  Zr6       1.0  0.92000  0.27300  0.50000  1.0000
  Zr  Zr7       1.0  0.13000  0.52100  0.50000  1.0000
  Zr  Zr8       1.0  0.81000  0.95200  0.50000  1.0000
