data_image0
_chemical_formula_structural       Ca4Co8O16
_chemical_formula_sum              "Ca4 Co8 O16"
_cell_length_a       8.71389
_cell_length_b       2.89722
_cell_length_c       10.2194
_cell_angle_alpha    90
_cell_angle_beta     90
_cell_angle_gamma    90

_space_group_name_H-M_alt    "P 1"
_space_group_IT_number       1

loop_
  _space_group_symop_operation_xyz
  'x, y, z'

loop_
  _atom_site_type_symbol
  _atom_site_label
  _atom_site_symmetry_multiplicity
  _atom_site_fract_x
  _atom_site_fract_y
  _atom_site_fract_z
  _atom_site_occupancy
  Ca  Ca1       1.0  0.76100  0.25000  0.66400  1.0000
  Ca  Ca2       1.0  0.73900  0.75000  0.16400  1.0000
  Ca  Ca3       1.0  0.26100  0.25000  0.83600  1.0000
  Ca  Ca4       1.0  0.23900  0.75000  0.33600  1.0000
  Co  Co1       1.0  0.41600  0.25000  0.09790  1.0000
  Co  Co2       1.0  0.08430  0.75000  0.59800  1.0000
  Co  Co3       1.0  0.91600  0.25000  0.40200  1.0000
  Co  Co4       1.0  0.58400  0.75000  0.90200  1.0000
  Co  Co5       1.0  0.44300  0.25000  0.61200  1.0000
  Co  Co6       1.0  0.05690  0.75000  0.11200  1.0000
  Co  Co7       1.0  0.94300  0.25000  0.88800  1.0000
  Co  Co8       1.0  0.55700  0.75000  0.38800  1.0000
  O   O1        1.0  0.41900  0.25000  0.42800  1.0000
  O   O2        1.0  0.08140  0.75000  0.92800  1.0000
  O   O3        1.0  0.91900  0.25000  0.07240  1.0000
  O   O4        1.0  0.58100  0.75000  0.57200  1.0000
  O   O5        1.0  0.53100  0.25000  0.78800  1.0000
  O   O6        1.0  0.96900  0.75000  0.28800  1.0000
  O   O7        1.0  0.03100  0.25000  0.71200  1.0000
  O   O8        1.0  0.46900  0.75000  0.21200  1.0000
  O   O9        1.0  0.11600  0.25000  0.47600  1.0000
  O   O10       1.0  0.38400  0.75000  0.97600  1.0000
  O   O11       1.0  0.61600  0.25000  0.02360  1.0000
  O   O12       1.0  0.88400  0.75000  0.52400  1.0000
  O   O13       1.0  0.19800  0.25000  0.15600  1.0000
  O   O14       1.0  0.30200  0.75000  0.65600  1.0000
  O   O15       1.0  0.69800  0.25000  0.34400  1.0000
  O   O16       1.0  0.80200  0.75000  0.84400  1.0000
