data_image0
_chemical_formula_structural       Os6Zr8
_chemical_formula_sum              "Os6 Zr8"
_cell_length_a       7.99339
_cell_length_b       7.99304
_cell_length_c       4.80528
_cell_angle_alpha    90
_cell_angle_beta     90
_cell_angle_gamma    60.0015

_space_group_name_H-M_alt    "P 1"
_space_group_IT_number       1

loop_
  _space_group_symop_operation_xyz
  'x, y, z'

loop_
  _atom_site_type_symbol
  _atom_site_label
  _atom_site_symmetry_multiplicity
  _atom_site_fract_x
  _atom_site_fract_y
  _atom_site_fract_z
  _atom_site_occupancy
  Os  Os1       1.0  0.70800  0.44100  0.00000  1.0000
  Os  Os2       1.0  0.29900  0.56400  0.00000  1.0000
  Os  Os3       1.0  0.42100  0.85100  0.00000  1.0000
  Os  Os4       1.0  0.53100  0.38700  0.50000  1.0000
  Os  Os5       1.0  0.65400  0.67400  0.50000  1.0000
  Os  Os6       1.0  0.24400  0.79700  0.50000  1.0000
  Zr  Zr1       1.0  0.57100  0.19400  0.00000  1.0000
  Zr  Zr2       1.0  0.14300  0.28600  0.00000  1.0000
  Zr  Zr3       1.0  0.80700  0.71400  0.00000  1.0000
  Zr  Zr4       1.0  0.05070  0.95000  0.00000  1.0000
  Zr  Zr5       1.0  0.38100  0.04460  0.50000  1.0000
  Zr  Zr6       1.0  0.90200  0.28800  0.50000  1.0000
  Zr  Zr7       1.0  0.14600  0.52400  0.50000  1.0000
  Zr  Zr8       1.0  0.81000  0.95200  0.50000  1.0000
