data_image0
_chemical_formula_structural       La6Zr8
_chemical_formula_sum              "La6 Zr8"
_cell_length_a       9.13676
_cell_length_b       9.13649
_cell_length_c       5.4862
_cell_angle_alpha    90
_cell_angle_beta     90
_cell_angle_gamma    60.0014

_space_group_name_H-M_alt    "P 1"
_space_group_IT_number       1

loop_
  _space_group_symop_operation_xyz
  'x, y, z'

loop_
  _atom_site_type_symbol
  _atom_site_label
  _atom_site_symmetry_multiplicity
  _atom_site_fract_x
  _atom_site_fract_y
  _atom_site_fract_z
  _atom_site_occupancy
  La  La1       1.0  0.12500  0.28700  0.00000  1.0000
  La  La2       1.0  0.30200  0.55400  0.00000  1.0000
  La  La3       1.0  0.85800  0.73000  0.00000  1.0000
  La  La4       1.0  0.39800  0.09390  0.50000  1.0000
  La  La5       1.0  0.66500  0.65100  0.50000  1.0000
  La  La6       1.0  0.22200  0.82700  0.50000  1.0000
  Zr  Zr1       1.0  0.97800  0.02630  0.00000  1.0000
  Zr  Zr2       1.0  0.59800  0.13800  0.00000  1.0000
  Zr  Zr3       1.0  0.71000  0.40700  0.00000  1.0000
  Zr  Zr4       1.0  0.42900  0.85700  0.00000  1.0000
  Zr  Zr5       1.0  0.92600  0.24300  0.50000  1.0000
  Zr  Zr6       1.0  0.54500  0.35500  0.50000  1.0000
  Zr  Zr7       1.0  0.09520  0.52400  0.50000  1.0000
  Zr  Zr8       1.0  0.81400  0.97400  0.50000  1.0000
