data_image0
_chemical_formula_structural       Pd6Zr8
_chemical_formula_sum              "Pd6 Zr8"
_cell_length_a       8.02144
_cell_length_b       8.02123
_cell_length_c       4.80157
_cell_angle_alpha    90
_cell_angle_beta     90
_cell_angle_gamma    59.9993

_space_group_name_H-M_alt    "P 1"
_space_group_IT_number       1

loop_
  _space_group_symop_operation_xyz
  'x, y, z'

loop_
  _atom_site_type_symbol
  _atom_site_label
  _atom_site_symmetry_multiplicity
  _atom_site_fract_x
  _atom_site_fract_y
  _atom_site_fract_z
  _atom_site_occupancy
  Pd  Pd1       1.0  0.14300  0.28100  0.00000  1.0000
  Pd  Pd2       1.0  0.29000  0.57200  0.00000  1.0000
  Pd  Pd3       1.0  0.85200  0.71900  0.00000  1.0000
  Pd  Pd4       1.0  0.38000  0.10000  0.50000  1.0000
  Pd  Pd5       1.0  0.67200  0.66200  0.50000  1.0000
  Pd  Pd6       1.0  0.23400  0.80900  0.50000  1.0000
  Zr  Zr1       1.0  0.53100  0.17300  0.00000  1.0000
  Zr  Zr2       1.0  0.74500  0.43800  0.00000  1.0000
  Zr  Zr3       1.0  0.42900  0.85700  0.00000  1.0000
  Zr  Zr4       1.0  0.00979  0.96000  0.00000  1.0000
  Zr  Zr5       1.0  0.99300  0.20800  0.50000  1.0000
  Zr  Zr6       1.0  0.51400  0.42100  0.50000  1.0000
  Zr  Zr7       1.0  0.09520  0.52400  0.50000  1.0000
  Zr  Zr8       1.0  0.77900  0.94300  0.50000  1.0000
