data_image0
_chemical_formula_structural       Na6Zr8
_chemical_formula_sum              "Na6 Zr8"
_cell_length_a       8.57698
_cell_length_b       8.5759
_cell_length_c       5.43818
_cell_angle_alpha    90
_cell_angle_beta     90
_cell_angle_gamma    59.9655

_space_group_name_H-M_alt    "P 1"
_space_group_IT_number       1

loop_
  _space_group_symop_operation_xyz
  'x, y, z'

loop_
  _atom_site_type_symbol
  _atom_site_label
  _atom_site_symmetry_multiplicity
  _atom_site_fract_x
  _atom_site_fract_y
  _atom_site_fract_z
  _atom_site_occupancy
  Na  Na1       1.0  0.14900  0.28800  0.00000  1.0000
  Na  Na2       1.0  0.27700  0.57800  0.00000  1.0000
  Na  Na3       1.0  0.85900  0.70600  0.00000  1.0000
  Na  Na4       1.0  0.37500  0.09360  0.50000  1.0000
  Na  Na5       1.0  0.66500  0.67500  0.50000  1.0000
  Na  Na6       1.0  0.24600  0.80300  0.50000  1.0000
  Zr  Zr1       1.0  0.98800  0.02190  0.00000  1.0000
  Zr  Zr2       1.0  0.59300  0.13300  0.00000  1.0000
  Zr  Zr3       1.0  0.70500  0.41600  0.00000  1.0000
  Zr  Zr4       1.0  0.42800  0.85700  0.00000  1.0000
  Zr  Zr5       1.0  0.93000  0.24800  0.50000  1.0000
  Zr  Zr6       1.0  0.53600  0.35900  0.50000  1.0000
  Zr  Zr7       1.0  0.09530  0.52400  0.50000  1.0000
  Zr  Zr8       1.0  0.81900  0.96500  0.50000  1.0000
