data_image0
_chemical_formula_structural       Nb6Zr8
_chemical_formula_sum              "Nb6 Zr8"
_cell_length_a       8.08461
_cell_length_b       8.13925
_cell_length_c       5.20492
_cell_angle_alpha    90
_cell_angle_beta     90
_cell_angle_gamma    60.0019

_space_group_name_H-M_alt    "P 1"
_space_group_IT_number       1

loop_
  _space_group_symop_operation_xyz
  'x, y, z'

loop_
  _atom_site_type_symbol
  _atom_site_label
  _atom_site_symmetry_multiplicity
  _atom_site_fract_x
  _atom_site_fract_y
  _atom_site_fract_z
  _atom_site_occupancy
  Nb  Nb1       1.0  0.16400  0.29200  0.00000  1.0000
  Nb  Nb2       1.0  0.25700  0.59400  0.00000  1.0000
  Nb  Nb3       1.0  0.86400  0.68800  0.00000  1.0000
  Nb  Nb4       1.0  0.36000  0.08880  0.50000  1.0000
  Nb  Nb5       1.0  0.66000  0.69300  0.50000  1.0000
  Nb  Nb6       1.0  0.26700  0.78700  0.50000  1.0000
  Zr  Zr1       1.0  0.01400  0.00375  0.00000  1.0000
  Zr  Zr2       1.0  0.57400  0.12700  0.00000  1.0000
  Zr  Zr3       1.0  0.69800  0.44400  0.00000  1.0000
  Zr  Zr4       1.0  0.42900  0.85800  0.00000  1.0000
  Zr  Zr5       1.0  0.95000  0.25400  0.50000  1.0000
  Zr  Zr6       1.0  0.51000  0.37700  0.50000  1.0000
  Zr  Zr7       1.0  0.09480  0.52300  0.50000  1.0000
  Zr  Zr8       1.0  0.82600  0.93700  0.50000  1.0000
