data_image0
_chemical_formula_structural       Co6Zr8
_chemical_formula_sum              "Co6 Zr8"
_cell_length_a       7.91765
_cell_length_b       7.91789
_cell_length_c       4.45277
_cell_angle_alpha    90
_cell_angle_beta     90
_cell_angle_gamma    60.003

_space_group_name_H-M_alt    "P 1"
_space_group_IT_number       1

loop_
  _space_group_symop_operation_xyz
  'x, y, z'

loop_
  _atom_site_type_symbol
  _atom_site_label
  _atom_site_symmetry_multiplicity
  _atom_site_fract_x
  _atom_site_fract_y
  _atom_site_fract_z
  _atom_site_occupancy
  Co  Co1       1.0  0.13400  0.29500  0.00000  1.0000
  Co  Co2       1.0  0.28500  0.56300  0.00000  1.0000
  Co  Co3       1.0  0.86700  0.71300  0.00000  1.0000
  Co  Co4       1.0  0.39000  0.08570  0.50000  1.0000
  Co  Co5       1.0  0.65700  0.66800  0.50000  1.0000
  Co  Co6       1.0  0.23900  0.81800  0.50000  1.0000
  Zr  Zr1       1.0  0.49300  0.20400  0.00000  1.0000
  Zr  Zr2       1.0  0.77500  0.44600  0.00000  1.0000
  Zr  Zr3       1.0  0.42900  0.85700  0.00000  1.0000
  Zr  Zr4       1.0  0.01740  0.92200  0.00000  1.0000
  Zr  Zr5       1.0  0.03080  0.17700  0.50000  1.0000
  Zr  Zr6       1.0  0.50600  0.45900  0.50000  1.0000
  Zr  Zr7       1.0  0.09530  0.52400  0.50000  1.0000
  Zr  Zr8       1.0  0.74800  0.93500  0.50000  1.0000
