data_image0
_chemical_formula_structural       Co2O8Th4
_chemical_formula_sum              "Co2 O8 Th4"
_cell_length_a       6.84194
_cell_length_b       6.84194
_cell_length_c       6.84194
_cell_angle_alpha    119.994
_cell_angle_beta     90.0103
_cell_angle_gamma    119.994

_space_group_name_H-M_alt    "P 1"
_space_group_IT_number       1

loop_
  _space_group_symop_operation_xyz
  'x, y, z'

loop_
  _atom_site_type_symbol
  _atom_site_label
  _atom_site_symmetry_multiplicity
  _atom_site_fract_x
  _atom_site_fract_y
  _atom_site_fract_z
  _atom_site_occupancy
  Co  Co1       1.0  0.00000  0.00000  0.00000  1.0000
  Co  Co2       1.0  0.75000  0.50000  0.25000  1.0000
  O   O1        1.0  0.12000  0.24100  0.36200  1.0000
  O   O2        1.0  0.11200  0.74100  0.37000  1.0000
  O   O3        1.0  0.62900  0.25900  0.37000  1.0000
  O   O4        1.0  0.63000  0.74100  0.37100  1.0000
  O   O5        1.0  0.12000  0.75900  0.87900  1.0000
  O   O6        1.0  0.63800  0.75900  0.88000  1.0000
  O   O7        1.0  0.12100  0.24100  0.88000  1.0000
  O   O8        1.0  0.63000  0.25900  0.88800  1.0000
  Th  Th1       1.0  0.37500  0.75000  0.12500  1.0000
  Th  Th2       1.0  0.37500  0.25000  0.62500  1.0000
  Th  Th3       1.0  0.37500  0.75000  0.62500  1.0000
  Th  Th4       1.0  0.87500  0.25000  0.62500  1.0000
