data_image0
_chemical_formula_structural       Pr6Zr8
_chemical_formula_sum              "Pr6 Zr8"
_cell_length_a       9.10956
_cell_length_b       9.10949
_cell_length_c       5.48404
_cell_angle_alpha    90
_cell_angle_beta     90
_cell_angle_gamma    59.9989

_space_group_name_H-M_alt    "P 1"
_space_group_IT_number       1

loop_
  _space_group_symop_operation_xyz
  'x, y, z'

loop_
  _atom_site_type_symbol
  _atom_site_label
  _atom_site_symmetry_multiplicity
  _atom_site_fract_x
  _atom_site_fract_y
  _atom_site_fract_z
  _atom_site_occupancy
  Pr  Pr1       1.0  0.12700  0.28500  0.00000  1.0000
  Pr  Pr2       1.0  0.30200  0.55600  0.00000  1.0000
  Pr  Pr3       1.0  0.85700  0.73100  0.00000  1.0000
  Pr  Pr4       1.0  0.39700  0.09580  0.50000  1.0000
  Pr  Pr5       1.0  0.66700  0.65000  0.50000  1.0000
  Pr  Pr6       1.0  0.22200  0.82500  0.50000  1.0000
  Zr  Zr1       1.0  0.97900  0.02450  0.00000  1.0000
  Zr  Zr2       1.0  0.59600  0.13900  0.00000  1.0000
  Zr  Zr3       1.0  0.71000  0.40800  0.00000  1.0000
  Zr  Zr4       1.0  0.42900  0.85700  0.00000  1.0000
  Zr  Zr5       1.0  0.92800  0.24200  0.50000  1.0000
  Zr  Zr6       1.0  0.54400  0.35600  0.50000  1.0000
  Zr  Zr7       1.0  0.09520  0.52400  0.50000  1.0000
  Zr  Zr8       1.0  0.81300  0.97300  0.50000  1.0000
