data_image0
_chemical_formula_structural       Mo6Zr8
_chemical_formula_sum              "Mo6 Zr8"
_cell_length_a       8.36559
_cell_length_b       8.36707
_cell_length_c       4.57422
_cell_angle_alpha    90
_cell_angle_beta     90
_cell_angle_gamma    59.9773

_space_group_name_H-M_alt    "P 1"
_space_group_IT_number       1

loop_
  _space_group_symop_operation_xyz
  'x, y, z'

loop_
  _atom_site_type_symbol
  _atom_site_label
  _atom_site_symmetry_multiplicity
  _atom_site_fract_x
  _atom_site_fract_y
  _atom_site_fract_z
  _atom_site_occupancy
  Mo  Mo1       1.0  0.18900  0.28600  0.00000  1.0000
  Mo  Mo2       1.0  0.24000  0.61700  0.00000  1.0000
  Mo  Mo3       1.0  0.85700  0.66800  0.00000  1.0000
  Mo  Mo4       1.0  0.33500  0.09530  0.50000  1.0000
  Mo  Mo5       1.0  0.66700  0.71300  0.50000  1.0000
  Mo  Mo6       1.0  0.28400  0.76300  0.50000  1.0000
  Zr  Zr1       1.0  0.03500  0.03470  0.00000  1.0000
  Zr  Zr2       1.0  0.60600  0.07280  0.00000  1.0000
  Zr  Zr3       1.0  0.64400  0.46400  0.00000  1.0000
  Zr  Zr4       1.0  0.42800  0.85700  0.00000  1.0000
  Zr  Zr5       1.0  0.91800  0.30800  0.50000  1.0000
  Zr  Zr6       1.0  0.48900  0.34600  0.50000  1.0000
  Zr  Zr7       1.0  0.09540  0.52400  0.50000  1.0000
  Zr  Zr8       1.0  0.87900  0.91700  0.50000  1.0000
