data_image0
_chemical_formula_structural       Co4Np6
_chemical_formula_sum              "Co4 Np6"
_cell_length_a       5.79504
_cell_length_b       5.79504
_cell_length_c       7.19504
_cell_angle_alpha    113.748
_cell_angle_beta     66.2523
_cell_angle_gamma    120

_space_group_name_H-M_alt    "P 1"
_space_group_IT_number       1

loop_
  _space_group_symop_operation_xyz
  'x, y, z'

loop_
  _atom_site_type_symbol
  _atom_site_label
  _atom_site_symmetry_multiplicity
  _atom_site_fract_x
  _atom_site_fract_y
  _atom_site_fract_z
  _atom_site_occupancy
  Co  Co1       1.0  0.31200  0.68800  0.06540  1.0000
  Co  Co2       1.0  0.18800  0.81200  0.43500  1.0000
  Co  Co3       1.0  0.81200  0.18800  0.56500  1.0000
  Co  Co4       1.0  0.68800  0.31200  0.93500  1.0000
  Np  Np1       1.0  0.25000  0.17600  0.25000  1.0000
  Np  Np2       1.0  0.82400  0.32400  0.25000  1.0000
  Np  Np3       1.0  0.67600  0.75000  0.25000  1.0000
  Np  Np4       1.0  0.32400  0.25000  0.75000  1.0000
  Np  Np5       1.0  0.17600  0.67600  0.75000  1.0000
  Np  Np6       1.0  0.75000  0.82400  0.75000  1.0000
