data_image0
_chemical_formula_structural       Co2Eu4O8
_chemical_formula_sum              "Co2 Eu4 O8"
_cell_length_a       6.51621
_cell_length_b       6.51621
_cell_length_c       6.51621
_cell_angle_alpha    120.029
_cell_angle_beta     89.9497
_cell_angle_gamma    120.029

_space_group_name_H-M_alt    "P 1"
_space_group_IT_number       1

loop_
  _space_group_symop_operation_xyz
  'x, y, z'

loop_
  _atom_site_type_symbol
  _atom_site_label
  _atom_site_symmetry_multiplicity
  _atom_site_fract_x
  _atom_site_fract_y
  _atom_site_fract_z
  _atom_site_occupancy
  Co  Co1       1.0  0.00000  0.00000  0.00000  1.0000
  Co  Co2       1.0  0.75000  0.50000  0.25000  1.0000
  Eu  Eu1       1.0  0.37500  0.75000  0.12500  1.0000
  Eu  Eu2       1.0  0.87500  0.25000  0.62500  1.0000
  Eu  Eu3       1.0  0.37500  0.75000  0.62500  1.0000
  Eu  Eu4       1.0  0.37500  0.25000  0.62500  1.0000
  O   O1        1.0  0.11500  0.22900  0.34400  1.0000
  O   O2        1.0  0.63500  0.72900  0.36400  1.0000
  O   O3        1.0  0.63600  0.27100  0.36500  1.0000
  O   O4        1.0  0.09420  0.72900  0.36500  1.0000
  O   O5        1.0  0.11400  0.22900  0.88500  1.0000
  O   O6        1.0  0.65600  0.77100  0.88500  1.0000
  O   O7        1.0  0.11500  0.77100  0.88600  1.0000
  O   O8        1.0  0.63500  0.27100  0.90600  1.0000
