data_image0
_chemical_formula_structural       Si6Zr8
_chemical_formula_sum              "Si6 Zr8"
_cell_length_a       7.95969
_cell_length_b       7.95963
_cell_length_c       4.88386
_cell_angle_alpha    90
_cell_angle_beta     90
_cell_angle_gamma    60

_space_group_name_H-M_alt    "P 1"
_space_group_IT_number       1

loop_
  _space_group_symop_operation_xyz
  'x, y, z'

loop_
  _atom_site_type_symbol
  _atom_site_label
  _atom_site_symmetry_multiplicity
  _atom_site_fract_x
  _atom_site_fract_y
  _atom_site_fract_z
  _atom_site_occupancy
  Si  Si1       1.0  0.14900  0.25000  0.00000  1.0000
  Si  Si2       1.0  0.31500  0.57800  0.00000  1.0000
  Si  Si3       1.0  0.82100  0.74300  0.00000  1.0000
  Si  Si4       1.0  0.37400  0.13100  0.50000  1.0000
  Si  Si5       1.0  0.70200  0.63700  0.50000  1.0000
  Si  Si6       1.0  0.20900  0.80300  0.50000  1.0000
  Zr  Zr1       1.0  0.52000  0.18800  0.00000  1.0000
  Zr  Zr2       1.0  0.75900  0.43500  0.00000  1.0000
  Zr  Zr3       1.0  0.42900  0.85700  0.00000  1.0000
  Zr  Zr4       1.0  0.00610  0.94900  0.00000  1.0000
  Zr  Zr5       1.0  0.00354  0.19300  0.50000  1.0000
  Zr  Zr6       1.0  0.51800  0.43200  0.50000  1.0000
  Zr  Zr7       1.0  0.09520  0.52400  0.50000  1.0000
  Zr  Zr8       1.0  0.76400  0.94600  0.50000  1.0000
