data_image0
_chemical_formula_structural       Ir6Zr8
_chemical_formula_sum              "Ir6 Zr8"
_cell_length_a       8.05024
_cell_length_b       8.05062
_cell_length_c       4.72032
_cell_angle_alpha    90
_cell_angle_beta     90
_cell_angle_gamma    60.0049

_space_group_name_H-M_alt    "P 1"
_space_group_IT_number       1

loop_
  _space_group_symop_operation_xyz
  'x, y, z'

loop_
  _atom_site_type_symbol
  _atom_site_label
  _atom_site_symmetry_multiplicity
  _atom_site_fract_x
  _atom_site_fract_y
  _atom_site_fract_z
  _atom_site_occupancy
  Ir  Ir1       1.0  0.70500  0.43900  0.00000  1.0000
  Ir  Ir2       1.0  0.29600  0.57100  0.00000  1.0000
  Ir  Ir3       1.0  0.42800  0.84700  0.00000  1.0000
  Ir  Ir4       1.0  0.52500  0.39100  0.50000  1.0000
  Ir  Ir5       1.0  0.65600  0.66800  0.50000  1.0000
  Ir  Ir6       1.0  0.24800  0.79900  0.50000  1.0000
  Zr  Zr1       1.0  0.57000  0.18900  0.00000  1.0000
  Zr  Zr2       1.0  0.14300  0.28600  0.00000  1.0000
  Zr  Zr3       1.0  0.81200  0.71300  0.00000  1.0000
  Zr  Zr4       1.0  0.04650  0.95500  0.00000  1.0000
  Zr  Zr5       1.0  0.38300  0.04880  0.50000  1.0000
  Zr  Zr6       1.0  0.90600  0.28300  0.50000  1.0000
  Zr  Zr7       1.0  0.14000  0.52500  0.50000  1.0000
  Zr  Zr8       1.0  0.80900  0.95200  0.50000  1.0000
