data_image0
_chemical_formula_structural       Te6Zr8
_chemical_formula_sum              "Te6 Zr8"
_cell_length_a       8.5225
_cell_length_b       8.52262
_cell_length_c       5.57753
_cell_angle_alpha    90
_cell_angle_beta     90
_cell_angle_gamma    59.9979

_space_group_name_H-M_alt    "P 1"
_space_group_IT_number       1

loop_
  _space_group_symop_operation_xyz
  'x, y, z'

loop_
  _atom_site_type_symbol
  _atom_site_label
  _atom_site_symmetry_multiplicity
  _atom_site_fract_x
  _atom_site_fract_y
  _atom_site_fract_z
  _atom_site_occupancy
  Te  Te1       1.0  0.77700  0.37300  0.00000  1.0000
  Te  Te2       1.0  0.23000  0.56400  0.00000  1.0000
  Te  Te3       1.0  0.42200  0.91900  0.00000  1.0000
  Te  Te4       1.0  0.53100  0.31900  0.50000  1.0000
  Te  Te5       1.0  0.72200  0.67400  0.50000  1.0000
  Te  Te6       1.0  0.17600  0.86500  0.50000  1.0000
  Zr  Zr1       1.0  0.58200  0.16500  0.00000  1.0000
  Zr  Zr2       1.0  0.14300  0.28600  0.00000  1.0000
  Zr  Zr3       1.0  0.82500  0.72400  0.00000  1.0000
  Zr  Zr4       1.0  0.02190  0.96800  0.00000  1.0000
  Zr  Zr5       1.0  0.37100  0.07340  0.50000  1.0000
  Zr  Zr6       1.0  0.93000  0.27000  0.50000  1.0000
  Zr  Zr7       1.0  0.12700  0.51400  0.50000  1.0000
  Zr  Zr8       1.0  0.81000  0.95200  0.50000  1.0000
