data_image0
_chemical_formula_structural       Bi6Zr8
_chemical_formula_sum              "Bi6 Zr8"
_cell_length_a       8.58039
_cell_length_b       8.58072
_cell_length_c       5.43879
_cell_angle_alpha    90
_cell_angle_beta     90
_cell_angle_gamma    59.9976

_space_group_name_H-M_alt    "P 1"
_space_group_IT_number       1

loop_
  _space_group_symop_operation_xyz
  'x, y, z'

loop_
  _atom_site_type_symbol
  _atom_site_label
  _atom_site_symmetry_multiplicity
  _atom_site_fract_x
  _atom_site_fract_y
  _atom_site_fract_z
  _atom_site_occupancy
  Bi  Bi1       1.0  0.13400  0.26500  0.00000  1.0000
  Bi  Bi2       1.0  0.31500  0.56300  0.00000  1.0000
  Bi  Bi3       1.0  0.83700  0.74300  0.00000  1.0000
  Bi  Bi4       1.0  0.39000  0.11600  0.50000  1.0000
  Bi  Bi5       1.0  0.68700  0.63700  0.50000  1.0000
  Bi  Bi6       1.0  0.20900  0.81800  0.50000  1.0000
  Zr  Zr1       1.0  0.56800  0.15300  0.00000  1.0000
  Zr  Zr2       1.0  0.72500  0.42200  0.00000  1.0000
  Zr  Zr3       1.0  0.42900  0.85700  0.00000  1.0000
  Zr  Zr4       1.0  0.99300  0.99600  0.00000  1.0000
  Zr  Zr5       1.0  0.95600  0.22800  0.50000  1.0000
  Zr  Zr6       1.0  0.53100  0.38500  0.50000  1.0000
  Zr  Zr7       1.0  0.09520  0.52400  0.50000  1.0000
  Zr  Zr8       1.0  0.79900  0.95900  0.50000  1.0000
