data_image0
_chemical_formula_structural       Ni6Zr8
_chemical_formula_sum              "Ni6 Zr8"
_cell_length_a       7.92724
_cell_length_b       7.92398
_cell_length_c       4.49165
_cell_angle_alpha    90
_cell_angle_beta     90
_cell_angle_gamma    60.0054

_space_group_name_H-M_alt    "P 1"
_space_group_IT_number       1

loop_
  _space_group_symop_operation_xyz
  'x, y, z'

loop_
  _atom_site_type_symbol
  _atom_site_label
  _atom_site_symmetry_multiplicity
  _atom_site_fract_x
  _atom_site_fract_y
  _atom_site_fract_z
  _atom_site_occupancy
  Ni  Ni1       1.0  0.67900  0.46100  0.00000  1.0000
  Ni  Ni2       1.0  0.31800  0.57400  0.00000  1.0000
  Ni  Ni3       1.0  0.43200  0.82100  0.00000  1.0000
  Ni  Ni4       1.0  0.52100  0.41700  0.50000  1.0000
  Ni  Ni5       1.0  0.63400  0.66400  0.50000  1.0000
  Ni  Ni6       1.0  0.27400  0.77700  0.50000  1.0000
  Zr  Zr1       1.0  0.56500  0.20400  0.00000  1.0000
  Zr  Zr2       1.0  0.14300  0.28600  0.00000  1.0000
  Zr  Zr3       1.0  0.80200  0.70800  0.00000  1.0000
  Zr  Zr4       1.0  0.06130  0.94500  0.00000  1.0000
  Zr  Zr5       1.0  0.38700  0.03370  0.50000  1.0000
  Zr  Zr6       1.0  0.89100  0.29300  0.50000  1.0000
  Zr  Zr7       1.0  0.15100  0.53000  0.50000  1.0000
  Zr  Zr8       1.0  0.81000  0.95200  0.50000  1.0000
