data_image0
_chemical_formula_structural       Th6Zr8
_chemical_formula_sum              "Th6 Zr8"
_cell_length_a       8.87787
_cell_length_b       8.87814
_cell_length_c       5.55428
_cell_angle_alpha    90
_cell_angle_beta     90
_cell_angle_gamma    59.9997

_space_group_name_H-M_alt    "P 1"
_space_group_IT_number       1

loop_
  _space_group_symop_operation_xyz
  'x, y, z'

loop_
  _atom_site_type_symbol
  _atom_site_label
  _atom_site_symmetry_multiplicity
  _atom_site_fract_x
  _atom_site_fract_y
  _atom_site_fract_z
  _atom_site_occupancy
  Th  Th1       1.0  0.73100  0.42200  0.00000  1.0000
  Th  Th2       1.0  0.27900  0.56200  0.00000  1.0000
  Th  Th3       1.0  0.41900  0.87400  0.00000  1.0000
  Th  Th4       1.0  0.53300  0.36500  0.50000  1.0000
  Th  Th5       1.0  0.67400  0.67600  0.50000  1.0000
  Th  Th6       1.0  0.22200  0.81600  0.50000  1.0000
  Zr  Zr1       1.0  0.98100  0.01000  0.00000  1.0000
  Zr  Zr2       1.0  0.58000  0.12400  0.00000  1.0000
  Zr  Zr3       1.0  0.14300  0.28600  0.00000  1.0000
  Zr  Zr4       1.0  0.86700  0.72300  0.00000  1.0000
  Zr  Zr5       1.0  0.37200  0.11400  0.50000  1.0000
  Zr  Zr6       1.0  0.97100  0.22800  0.50000  1.0000
  Zr  Zr7       1.0  0.08520  0.51500  0.50000  1.0000
  Zr  Zr8       1.0  0.81000  0.95200  0.50000  1.0000
