data_image0
_chemical_formula_structural       Pm6Zr8
_chemical_formula_sum              "Pm6 Zr8"
_cell_length_a       9.0236
_cell_length_b       9.02361
_cell_length_c       5.44356
_cell_angle_alpha    90
_cell_angle_beta     90
_cell_angle_gamma    60

_space_group_name_H-M_alt    "P 1"
_space_group_IT_number       1

loop_
  _space_group_symop_operation_xyz
  'x, y, z'

loop_
  _atom_site_type_symbol
  _atom_site_label
  _atom_site_symmetry_multiplicity
  _atom_site_fract_x
  _atom_site_fract_y
  _atom_site_fract_z
  _atom_site_occupancy
  Pm  Pm1       1.0  0.12900  0.28500  0.00000  1.0000
  Pm  Pm2       1.0  0.30000  0.55800  0.00000  1.0000
  Pm  Pm3       1.0  0.85700  0.72900  0.00000  1.0000
  Pm  Pm4       1.0  0.39500  0.09580  0.50000  1.0000
  Pm  Pm5       1.0  0.66700  0.65200  0.50000  1.0000
  Pm  Pm6       1.0  0.22400  0.82300  0.50000  1.0000
  Zr  Zr1       1.0  0.98200  0.02160  0.00000  1.0000
  Zr  Zr2       1.0  0.59300  0.13900  0.00000  1.0000
  Zr  Zr3       1.0  0.71000  0.41100  0.00000  1.0000
  Zr  Zr4       1.0  0.42900  0.85700  0.00000  1.0000
  Zr  Zr5       1.0  0.93100  0.24200  0.50000  1.0000
  Zr  Zr6       1.0  0.54100  0.35900  0.50000  1.0000
  Zr  Zr7       1.0  0.09520  0.52400  0.50000  1.0000
  Zr  Zr8       1.0  0.81400  0.97000  0.50000  1.0000
