data_image0
_chemical_formula_structural       Rb6Zr8
_chemical_formula_sum              "Rb6 Zr8"
_cell_length_a       10.4343
_cell_length_b       10.4142
_cell_length_c       5.63485
_cell_angle_alpha    90
_cell_angle_beta     90
_cell_angle_gamma    60.0884

_space_group_name_H-M_alt    "P 1"
_space_group_IT_number       1

loop_
  _space_group_symop_operation_xyz
  'x, y, z'

loop_
  _atom_site_type_symbol
  _atom_site_label
  _atom_site_symmetry_multiplicity
  _atom_site_fract_x
  _atom_site_fract_y
  _atom_site_fract_z
  _atom_site_occupancy
  Rb  Rb1       1.0  0.13100  0.27900  0.00000  1.0000
  Rb  Rb2       1.0  0.30400  0.56000  0.00000  1.0000
  Rb  Rb3       1.0  0.85100  0.73200  0.00000  1.0000
  Rb  Rb4       1.0  0.39200  0.10200  0.50000  1.0000
  Rb  Rb5       1.0  0.67300  0.64900  0.50000  1.0000
  Rb  Rb6       1.0  0.22000  0.82100  0.50000  1.0000
  Zr  Zr1       1.0  0.94100  0.05920  0.00000  1.0000
  Zr  Zr2       1.0  0.63100  0.14200  0.00000  1.0000
  Zr  Zr3       1.0  0.71400  0.37000  0.00000  1.0000
  Zr  Zr4       1.0  0.42900  0.85700  0.00000  1.0000
  Zr  Zr5       1.0  0.81000  0.01060  0.50000  1.0000
  Zr  Zr6       1.0  0.89300  0.23900  0.50000  1.0000
  Zr  Zr7       1.0  0.58300  0.32200  0.50000  1.0000
  Zr  Zr8       1.0  0.09440  0.52400  0.50000  1.0000
