data_image0
_chemical_formula_structural       Ru6Zr8
_chemical_formula_sum              "Ru6 Zr8"
_cell_length_a       7.95787
_cell_length_b       7.95794
_cell_length_c       4.84581
_cell_angle_alpha    90
_cell_angle_beta     90
_cell_angle_gamma    60.0032

_space_group_name_H-M_alt    "P 1"
_space_group_IT_number       1

loop_
  _space_group_symop_operation_xyz
  'x, y, z'

loop_
  _atom_site_type_symbol
  _atom_site_label
  _atom_site_symmetry_multiplicity
  _atom_site_fract_x
  _atom_site_fract_y
  _atom_site_fract_z
  _atom_site_occupancy
  Ru  Ru1       1.0  0.71600  0.43500  0.00000  1.0000
  Ru  Ru2       1.0  0.29200  0.56400  0.00000  1.0000
  Ru  Ru3       1.0  0.42100  0.85900  0.00000  1.0000
  Ru  Ru4       1.0  0.53200  0.37900  0.50000  1.0000
  Ru  Ru5       1.0  0.66000  0.67400  0.50000  1.0000
  Ru  Ru6       1.0  0.23700  0.80300  0.50000  1.0000
  Zr  Zr1       1.0  0.57000  0.19700  0.00000  1.0000
  Zr  Zr2       1.0  0.14300  0.28600  0.00000  1.0000
  Zr  Zr3       1.0  0.80400  0.71300  0.00000  1.0000
  Zr  Zr4       1.0  0.05460  0.94700  0.00000  1.0000
  Zr  Zr5       1.0  0.38200  0.04070  0.50000  1.0000
  Zr  Zr6       1.0  0.89800  0.29200  0.50000  1.0000
  Zr  Zr7       1.0  0.14900  0.52500  0.50000  1.0000
  Zr  Zr8       1.0  0.81000  0.95200  0.50000  1.0000
