data_image0
_chemical_formula_structural       Sm6Zr8
_chemical_formula_sum              "Sm6 Zr8"
_cell_length_a       9.00357
_cell_length_b       9.00361
_cell_length_c       5.42891
_cell_angle_alpha    90
_cell_angle_beta     90
_cell_angle_gamma    59.9989

_space_group_name_H-M_alt    "P 1"
_space_group_IT_number       1

loop_
  _space_group_symop_operation_xyz
  'x, y, z'

loop_
  _atom_site_type_symbol
  _atom_site_label
  _atom_site_symmetry_multiplicity
  _atom_site_fract_x
  _atom_site_fract_y
  _atom_site_fract_z
  _atom_site_occupancy
  Sm  Sm1       1.0  0.13000  0.28500  0.00000  1.0000
  Sm  Sm2       1.0  0.29900  0.55800  0.00000  1.0000
  Sm  Sm3       1.0  0.85700  0.72800  0.00000  1.0000
  Sm  Sm4       1.0  0.39400  0.09580  0.50000  1.0000
  Sm  Sm5       1.0  0.66700  0.65300  0.50000  1.0000
  Sm  Sm6       1.0  0.22400  0.82300  0.50000  1.0000
  Zr  Zr1       1.0  0.98400  0.02040  0.00000  1.0000
  Zr  Zr2       1.0  0.59200  0.13900  0.00000  1.0000
  Zr  Zr3       1.0  0.71000  0.41200  0.00000  1.0000
  Zr  Zr4       1.0  0.42900  0.85700  0.00000  1.0000
  Zr  Zr5       1.0  0.93200  0.24200  0.50000  1.0000
  Zr  Zr6       1.0  0.54000  0.36100  0.50000  1.0000
  Zr  Zr7       1.0  0.09520  0.52400  0.50000  1.0000
  Zr  Zr8       1.0  0.81400  0.96900  0.50000  1.0000
