data_image0
_chemical_formula_structural       Rh6Zr8
_chemical_formula_sum              "Rh6 Zr8"
_cell_length_a       7.95518
_cell_length_b       7.95476
_cell_length_c       4.77583
_cell_angle_alpha    90
_cell_angle_beta     90
_cell_angle_gamma    59.9994

_space_group_name_H-M_alt    "P 1"
_space_group_IT_number       1

loop_
  _space_group_symop_operation_xyz
  'x, y, z'

loop_
  _atom_site_type_symbol
  _atom_site_label
  _atom_site_symmetry_multiplicity
  _atom_site_fract_x
  _atom_site_fract_y
  _atom_site_fract_z
  _atom_site_occupancy
  Rh  Rh1       1.0  0.71000  0.43400  0.00000  1.0000
  Rh  Rh2       1.0  0.29100  0.57100  0.00000  1.0000
  Rh  Rh3       1.0  0.42800  0.85200  0.00000  1.0000
  Rh  Rh4       1.0  0.52400  0.38600  0.50000  1.0000
  Rh  Rh5       1.0  0.66200  0.66700  0.50000  1.0000
  Rh  Rh6       1.0  0.24300  0.80400  0.50000  1.0000
  Zr  Zr1       1.0  0.56900  0.19200  0.00000  1.0000
  Zr  Zr2       1.0  0.14300  0.28600  0.00000  1.0000
  Zr  Zr3       1.0  0.81000  0.71200  0.00000  1.0000
  Zr  Zr4       1.0  0.04960  0.95300  0.00000  1.0000
  Zr  Zr5       1.0  0.38300  0.04560  0.50000  1.0000
  Zr  Zr6       1.0  0.90300  0.28500  0.50000  1.0000
  Zr  Zr7       1.0  0.14300  0.52600  0.50000  1.0000
  Zr  Zr8       1.0  0.81000  0.95200  0.50000  1.0000
