data_image0
_chemical_formula_structural       Pa6Zr8
_chemical_formula_sum              "Pa6 Zr8"
_cell_length_a       8.45275
_cell_length_b       8.45165
_cell_length_c       5.47073
_cell_angle_alpha    90
_cell_angle_beta     90
_cell_angle_gamma    59.9946

_space_group_name_H-M_alt    "P 1"
_space_group_IT_number       1

loop_
  _space_group_symop_operation_xyz
  'x, y, z'

loop_
  _atom_site_type_symbol
  _atom_site_label
  _atom_site_symmetry_multiplicity
  _atom_site_fract_x
  _atom_site_fract_y
  _atom_site_fract_z
  _atom_site_occupancy
  Pa  Pa1       1.0  0.14700  0.29300  0.00000  1.0000
  Pa  Pa2       1.0  0.27500  0.57500  0.00000  1.0000
  Pa  Pa3       1.0  0.86400  0.70400  0.00000  1.0000
  Pa  Pa4       1.0  0.37700  0.08840  0.50000  1.0000
  Pa  Pa5       1.0  0.66000  0.67700  0.50000  1.0000
  Pa  Pa6       1.0  0.24900  0.80600  0.50000  1.0000
  Zr  Zr1       1.0  0.99700  0.00496  0.00000  1.0000
  Zr  Zr2       1.0  0.57600  0.14100  0.00000  1.0000
  Zr  Zr3       1.0  0.71200  0.42600  0.00000  1.0000
  Zr  Zr4       1.0  0.42900  0.85700  0.00000  1.0000
  Zr  Zr5       1.0  0.94700  0.24000  0.50000  1.0000
  Zr  Zr6       1.0  0.52700  0.37600  0.50000  1.0000
  Zr  Zr7       1.0  0.09530  0.52400  0.50000  1.0000
  Zr  Zr8       1.0  0.81200  0.95500  0.50000  1.0000
