data_image0
_chemical_formula_structural       Sc6Zr8
_chemical_formula_sum              "Sc6 Zr8"
_cell_length_a       8.58757
_cell_length_b       8.58756
_cell_length_c       5.14224
_cell_angle_alpha    90
_cell_angle_beta     90
_cell_angle_gamma    60.0006

_space_group_name_H-M_alt    "P 1"
_space_group_IT_number       1

loop_
  _space_group_symop_operation_xyz
  'x, y, z'

loop_
  _atom_site_type_symbol
  _atom_site_label
  _atom_site_symmetry_multiplicity
  _atom_site_fract_x
  _atom_site_fract_y
  _atom_site_fract_z
  _atom_site_occupancy
  Sc  Sc1       1.0  0.71800  0.42500  0.00000  1.0000
  Sc  Sc2       1.0  0.28200  0.57200  0.00000  1.0000
  Sc  Sc3       1.0  0.42900  0.86000  0.00000  1.0000
  Sc  Sc4       1.0  0.52300  0.37800  0.50000  1.0000
  Sc  Sc5       1.0  0.67100  0.66600  0.50000  1.0000
  Sc  Sc6       1.0  0.23500  0.81400  0.50000  1.0000
  Zr  Zr1       1.0  0.99400  0.00357  0.00000  1.0000
  Zr  Zr2       1.0  0.57400  0.13600  0.00000  1.0000
  Zr  Zr3       1.0  0.14300  0.28600  0.00000  1.0000
  Zr  Zr4       1.0  0.86100  0.71700  0.00000  1.0000
  Zr  Zr5       1.0  0.37800  0.10200  0.50000  1.0000
  Zr  Zr6       1.0  0.95900  0.23500  0.50000  1.0000
  Zr  Zr7       1.0  0.09160  0.52100  0.50000  1.0000
  Zr  Zr8       1.0  0.81000  0.95200  0.50000  1.0000
