data_image0
_chemical_formula_structural       Sn6Zr8
_chemical_formula_sum              "Sn6 Zr8"
_cell_length_a       8.28118
_cell_length_b       8.28114
_cell_length_c       5.52697
_cell_angle_alpha    90
_cell_angle_beta     90
_cell_angle_gamma    59.9986

_space_group_name_H-M_alt    "P 1"
_space_group_IT_number       1

loop_
  _space_group_symop_operation_xyz
  'x, y, z'

loop_
  _atom_site_type_symbol
  _atom_site_label
  _atom_site_symmetry_multiplicity
  _atom_site_fract_x
  _atom_site_fract_y
  _atom_site_fract_z
  _atom_site_occupancy
  Sn  Sn1       1.0  0.73600  0.40900  0.00000  1.0000
  Sn  Sn2       1.0  0.26600  0.56900  0.00000  1.0000
  Sn  Sn3       1.0  0.42600  0.87900  0.00000  1.0000
  Sn  Sn4       1.0  0.52600  0.35900  0.50000  1.0000
  Sn  Sn5       1.0  0.68700  0.66900  0.50000  1.0000
  Sn  Sn6       1.0  0.21600  0.82900  0.50000  1.0000
  Zr  Zr1       1.0  0.57100  0.16400  0.00000  1.0000
  Zr  Zr2       1.0  0.14300  0.28600  0.00000  1.0000
  Zr  Zr3       1.0  0.83600  0.71400  0.00000  1.0000
  Zr  Zr4       1.0  0.02090  0.97900  0.00000  1.0000
  Zr  Zr5       1.0  0.38100  0.07440  0.50000  1.0000
  Zr  Zr6       1.0  0.93200  0.25900  0.50000  1.0000
  Zr  Zr7       1.0  0.11600  0.52400  0.50000  1.0000
  Zr  Zr8       1.0  0.81000  0.95200  0.50000  1.0000
