data_image0
_chemical_formula_structural       Tb6Zr8
_chemical_formula_sum              "Tb6 Zr8"
_cell_length_a       8.97192
_cell_length_b       8.97207
_cell_length_c       5.32895
_cell_angle_alpha    90
_cell_angle_beta     90
_cell_angle_gamma    59.9991

_space_group_name_H-M_alt    "P 1"
_space_group_IT_number       1

loop_
  _space_group_symop_operation_xyz
  'x, y, z'

loop_
  _atom_site_type_symbol
  _atom_site_label
  _atom_site_symmetry_multiplicity
  _atom_site_fract_x
  _atom_site_fract_y
  _atom_site_fract_z
  _atom_site_occupancy
  Tb  Tb1       1.0  0.73200  0.41900  0.00000  1.0000
  Tb  Tb2       1.0  0.27700  0.56300  0.00000  1.0000
  Tb  Tb3       1.0  0.42000  0.87500  0.00000  1.0000
  Tb  Tb4       1.0  0.53200  0.36300  0.50000  1.0000
  Tb  Tb5       1.0  0.67600  0.67500  0.50000  1.0000
  Tb  Tb6       1.0  0.22100  0.81900  0.50000  1.0000
  Zr  Zr1       1.0  0.97800  0.01050  0.00000  1.0000
  Zr  Zr2       1.0  0.58300  0.12100  0.00000  1.0000
  Zr  Zr3       1.0  0.14300  0.28600  0.00000  1.0000
  Zr  Zr4       1.0  0.86800  0.72600  0.00000  1.0000
  Zr  Zr5       1.0  0.37000  0.11700  0.50000  1.0000
  Zr  Zr6       1.0  0.97400  0.22800  0.50000  1.0000
  Zr  Zr7       1.0  0.08470  0.51300  0.50000  1.0000
  Zr  Zr8       1.0  0.80900  0.95200  0.50000  1.0000
