data_image0
_chemical_formula_structural       Ce6Ti8
_chemical_formula_sum              "Ce6 Ti8"
_cell_length_a       9.12363
_cell_length_b       9.12506
_cell_length_c       4.78004
_cell_angle_alpha    90
_cell_angle_beta     90
_cell_angle_gamma    59.9912

_space_group_name_H-M_alt    "P 1"
_space_group_IT_number       1

loop_
  _space_group_symop_operation_xyz
  'x, y, z'

loop_
  _atom_site_type_symbol
  _atom_site_label
  _atom_site_symmetry_multiplicity
  _atom_site_fract_x
  _atom_site_fract_y
  _atom_site_fract_z
  _atom_site_occupancy
  Ce  Ce1       1.0  0.32500  0.46600  0.00000  1.0000
  Ce  Ce2       1.0  0.78000  0.46800  0.00000  1.0000
  Ce  Ce3       1.0  0.32300  0.92300  0.00000  1.0000
  Ce  Ce4       1.0  0.62900  0.31500  0.50000  1.0000
  Ce  Ce5       1.0  0.17300  0.77000  0.50000  1.0000
  Ce  Ce6       1.0  0.62700  0.77200  0.50000  1.0000
  Ti  Ti1       1.0  0.60300  0.05540  0.00000  1.0000
  Ti  Ti2       1.0  0.91300  0.05600  0.00000  1.0000
  Ti  Ti3       1.0  0.14300  0.28600  0.00000  1.0000
  Ti  Ti4       1.0  0.91300  0.74500  0.00000  1.0000
  Ti  Ti5       1.0  0.03940  0.18200  0.50000  1.0000
  Ti  Ti6       1.0  0.35000  0.18200  0.50000  1.0000
  Ti  Ti7       1.0  0.03930  0.49300  0.50000  1.0000
  Ti  Ti8       1.0  0.81000  0.95200  0.50000  1.0000
