data_image0
_chemical_formula_structural       Pb6Zr8
_chemical_formula_sum              "Pb6 Zr8"
_cell_length_a       8.49563
_cell_length_b       8.49617
_cell_length_c       5.3941
_cell_angle_alpha    90
_cell_angle_beta     90
_cell_angle_gamma    59.9922

_space_group_name_H-M_alt    "P 1"
_space_group_IT_number       1

loop_
  _space_group_symop_operation_xyz
  'x, y, z'

loop_
  _atom_site_type_symbol
  _atom_site_label
  _atom_site_symmetry_multiplicity
  _atom_site_fract_x
  _atom_site_fract_y
  _atom_site_fract_z
  _atom_site_occupancy
  Pb  Pb1       1.0  0.13700  0.26800  0.00000  1.0000
  Pb  Pb2       1.0  0.30900  0.56600  0.00000  1.0000
  Pb  Pb3       1.0  0.83900  0.73700  0.00000  1.0000
  Pb  Pb4       1.0  0.38600  0.11300  0.50000  1.0000
  Pb  Pb5       1.0  0.68400  0.64400  0.50000  1.0000
  Pb  Pb6       1.0  0.21500  0.81500  0.50000  1.0000
  Zr  Zr1       1.0  0.55600  0.16400  0.00000  1.0000
  Zr  Zr2       1.0  0.73500  0.42300  0.00000  1.0000
  Zr  Zr3       1.0  0.42900  0.85700  0.00000  1.0000
  Zr  Zr4       1.0  0.99500  0.98400  0.00000  1.0000
  Zr  Zr5       1.0  0.96800  0.21700  0.50000  1.0000
  Zr  Zr6       1.0  0.52900  0.39700  0.50000  1.0000
  Zr  Zr7       1.0  0.09530  0.52400  0.50000  1.0000
  Zr  Zr8       1.0  0.78800  0.95800  0.50000  1.0000
