data_image0
_chemical_formula_structural       Ti6Zr8
_chemical_formula_sum              "Ti6 Zr8"
_cell_length_a       8.26512
_cell_length_b       8.26476
_cell_length_c       4.90334
_cell_angle_alpha    90
_cell_angle_beta     90
_cell_angle_gamma    60.0051

_space_group_name_H-M_alt    "P 1"
_space_group_IT_number       1

loop_
  _space_group_symop_operation_xyz
  'x, y, z'

loop_
  _atom_site_type_symbol
  _atom_site_label
  _atom_site_symmetry_multiplicity
  _atom_site_fract_x
  _atom_site_fract_y
  _atom_site_fract_z
  _atom_site_occupancy
  Ti  Ti1       1.0  0.69200  0.44200  0.00000  1.0000
  Ti  Ti2       1.0  0.29900  0.58100  0.00000  1.0000
  Ti  Ti3       1.0  0.43800  0.83500  0.00000  1.0000
  Ti  Ti4       1.0  0.51400  0.40300  0.50000  1.0000
  Ti  Ti5       1.0  0.65400  0.65700  0.50000  1.0000
  Ti  Ti6       1.0  0.26000  0.79700  0.50000  1.0000
  Zr  Zr1       1.0  0.56700  0.16800  0.00000  1.0000
  Zr  Zr2       1.0  0.14300  0.28600  0.00000  1.0000
  Zr  Zr3       1.0  0.83700  0.71000  0.00000  1.0000
  Zr  Zr4       1.0  0.02470  0.98000  0.00000  1.0000
  Zr  Zr5       1.0  0.38500  0.07060  0.50000  1.0000
  Zr  Zr6       1.0  0.92800  0.25800  0.50000  1.0000
  Zr  Zr7       1.0  0.11600  0.52800  0.50000  1.0000
  Zr  Zr8       1.0  0.80900  0.95200  0.50000  1.0000
