data_image0
_chemical_formula_structural       CsTm
_chemical_formula_sum              "Cs1 Tm1"
_cell_length_a       3.69517
_cell_length_b       5.22576
_cell_length_c       7.07345
_cell_angle_alpha    90
_cell_angle_beta     90
_cell_angle_gamma    45

_space_group_name_H-M_alt    "P 1"
_space_group_IT_number       1

loop_
  _space_group_symop_operation_xyz
  'x, y, z'

loop_
  _atom_site_type_symbol
  _atom_site_label
  _atom_site_symmetry_multiplicity
  _atom_site_fract_x
  _atom_site_fract_y
  _atom_site_fract_z
  _atom_site_occupancy
  Cs  Cs1       1.0  0.00000  0.00000  0.00000  1.0000
  Tm  Tm1       1.0  0.00000  0.50000  0.50000  1.0000
