data_image0
_chemical_formula_structural       Ta6Zr8
_chemical_formula_sum              "Ta6 Zr8"
_cell_length_a       7.66524
_cell_length_b       8.53691
_cell_length_c       4.79888
_cell_angle_alpha    90
_cell_angle_beta     90
_cell_angle_gamma    68.0957

_space_group_name_H-M_alt    "P 1"
_space_group_IT_number       1

loop_
  _space_group_symop_operation_xyz
  'x, y, z'

loop_
  _atom_site_type_symbol
  _atom_site_label
  _atom_site_symmetry_multiplicity
  _atom_site_fract_x
  _atom_site_fract_y
  _atom_site_fract_z
  _atom_site_occupancy
  Ta  Ta1       1.0  0.72100  0.45300  0.00000  1.0000
  Ta  Ta2       1.0  0.33300  0.58200  0.00000  1.0000
  Ta  Ta3       1.0  0.46500  0.84600  0.00000  1.0000
  Ta  Ta4       1.0  0.48800  0.39200  0.50000  1.0000
  Ta  Ta5       1.0  0.62000  0.65700  0.50000  1.0000
  Ta  Ta6       1.0  0.23100  0.78500  0.50000  1.0000
  Zr  Zr1       1.0  0.60100  0.15800  0.00000  1.0000
  Zr  Zr2       1.0  0.16100  0.30400  0.00000  1.0000
  Zr  Zr3       1.0  0.88700  0.71500  0.00000  1.0000
  Zr  Zr4       1.0  0.04730  0.99500  0.00000  1.0000
  Zr  Zr5       1.0  0.35200  0.08050  0.50000  1.0000
  Zr  Zr6       1.0  0.90500  0.24300  0.50000  1.0000
  Zr  Zr7       1.0  0.06500  0.52300  0.50000  1.0000
  Zr  Zr8       1.0  0.79200  0.93400  0.50000  1.0000
