data_image0
_chemical_formula_structural       W6Zr8
_chemical_formula_sum              "W6 Zr8"
_cell_length_a       7.29889
_cell_length_b       8.31957
_cell_length_c       4.79455
_cell_angle_alpha    90
_cell_angle_beta     90
_cell_angle_gamma    69.4102

_space_group_name_H-M_alt    "P 1"
_space_group_IT_number       1

loop_
  _space_group_symop_operation_xyz
  'x, y, z'

loop_
  _atom_site_type_symbol
  _atom_site_label
  _atom_site_symmetry_multiplicity
  _atom_site_fract_x
  _atom_site_fract_y
  _atom_site_fract_z
  _atom_site_occupancy
  W   W1        1.0  0.73600  0.45700  0.00000  1.0000
  W   W2        1.0  0.35000  0.58800  0.00000  1.0000
  W   W3        1.0  0.48400  0.85000  0.00000  1.0000
  W   W4        1.0  0.46900  0.38800  0.50000  1.0000
  W   W5        1.0  0.60200  0.65000  0.50000  1.0000
  W   W6        1.0  0.21700  0.78100  0.50000  1.0000
  Zr  Zr1       1.0  0.61100  0.16600  0.00000  1.0000
  Zr  Zr2       1.0  0.17100  0.31600  0.00000  1.0000
  Zr  Zr3       1.0  0.90300  0.71300  0.00000  1.0000
  Zr  Zr4       1.0  0.07620  0.99300  0.00000  1.0000
  Zr  Zr5       1.0  0.34100  0.07180  0.50000  1.0000
  Zr  Zr6       1.0  0.87600  0.24500  0.50000  1.0000
  Zr  Zr7       1.0  0.04970  0.52500  0.50000  1.0000
  Zr  Zr8       1.0  0.78100  0.92200  0.50000  1.0000
