data_image0
_chemical_formula_structural       Y6Zr8
_chemical_formula_sum              "Y6 Zr8"
_cell_length_a       8.99392
_cell_length_b       8.99392
_cell_length_c       5.32326
_cell_angle_alpha    90
_cell_angle_beta     90
_cell_angle_gamma    59.9999

_space_group_name_H-M_alt    "P 1"
_space_group_IT_number       1

loop_
  _space_group_symop_operation_xyz
  'x, y, z'

loop_
  _atom_site_type_symbol
  _atom_site_label
  _atom_site_symmetry_multiplicity
  _atom_site_fract_x
  _atom_site_fract_y
  _atom_site_fract_z
  _atom_site_occupancy
  Y   Y1        1.0  0.73100  0.42000  0.00000  1.0000
  Y   Y2        1.0  0.27700  0.56300  0.00000  1.0000
  Y   Y3        1.0  0.42000  0.87400  0.00000  1.0000
  Y   Y4        1.0  0.53200  0.36400  0.50000  1.0000
  Y   Y5        1.0  0.67500  0.67500  0.50000  1.0000
  Y   Y6        1.0  0.22100  0.81800  0.50000  1.0000
  Zr  Zr1       1.0  0.97900  0.01020  0.00000  1.0000
  Zr  Zr2       1.0  0.58300  0.12100  0.00000  1.0000
  Zr  Zr3       1.0  0.14300  0.28600  0.00000  1.0000
  Zr  Zr4       1.0  0.86700  0.72500  0.00000  1.0000
  Zr  Zr5       1.0  0.37000  0.11700  0.50000  1.0000
  Zr  Zr6       1.0  0.97400  0.22800  0.50000  1.0000
  Zr  Zr7       1.0  0.08500  0.51300  0.50000  1.0000
  Zr  Zr8       1.0  0.81000  0.95200  0.50000  1.0000
