data_image0
_chemical_formula_structural       Mn6Zr8
_chemical_formula_sum              "Mn6 Zr8"
_cell_length_a       8.12414
_cell_length_b       8.11455
_cell_length_c       4.57023
_cell_angle_alpha    90
_cell_angle_beta     90
_cell_angle_gamma    59.9075

_space_group_name_H-M_alt    "P 1"
_space_group_IT_number       1

loop_
  _space_group_symop_operation_xyz
  'x, y, z'

loop_
  _atom_site_type_symbol
  _atom_site_label
  _atom_site_symmetry_multiplicity
  _atom_site_fract_x
  _atom_site_fract_y
  _atom_site_fract_z
  _atom_site_occupancy
  Mn  Mn1       1.0  0.68200  0.45600  0.00000  1.0000
  Mn  Mn2       1.0  0.31500  0.57700  0.00000  1.0000
  Mn  Mn3       1.0  0.43300  0.82400  0.00000  1.0000
  Mn  Mn4       1.0  0.51900  0.41400  0.50000  1.0000
  Mn  Mn5       1.0  0.63800  0.66200  0.50000  1.0000
  Mn  Mn6       1.0  0.27100  0.78200  0.50000  1.0000
  Zr  Zr1       1.0  0.56400  0.19200  0.00000  1.0000
  Zr  Zr2       1.0  0.14300  0.28500  0.00000  1.0000
  Zr  Zr3       1.0  0.81400  0.70700  0.00000  1.0000
  Zr  Zr4       1.0  0.04900  0.95700  0.00000  1.0000
  Zr  Zr5       1.0  0.38800  0.04590  0.50000  1.0000
  Zr  Zr6       1.0  0.90300  0.28100  0.50000  1.0000
  Zr  Zr7       1.0  0.13800  0.53100  0.50000  1.0000
  Zr  Zr8       1.0  0.80900  0.95300  0.50000  1.0000
