data_image0
_chemical_formula_structural       Cs6Zr8
_chemical_formula_sum              "Cs6 Zr8"
_cell_length_a       11.1702
_cell_length_b       11.173
_cell_length_c       4.94761
_cell_angle_alpha    90
_cell_angle_beta     90
_cell_angle_gamma    59.9986

_space_group_name_H-M_alt    "P 1"
_space_group_IT_number       1

loop_
  _space_group_symop_operation_xyz
  'x, y, z'

loop_
  _atom_site_type_symbol
  _atom_site_label
  _atom_site_symmetry_multiplicity
  _atom_site_fract_x
  _atom_site_fract_y
  _atom_site_fract_z
  _atom_site_occupancy
  Cs  Cs1       1.0  0.76500  0.41800  0.00000  1.0000
  Cs  Cs2       1.0  0.27500  0.53100  0.00000  1.0000
  Cs  Cs3       1.0  0.38800  0.90800  0.00000  1.0000
  Cs  Cs4       1.0  0.56400  0.33000  0.50000  1.0000
  Cs  Cs5       1.0  0.67700  0.70700  0.50000  1.0000
  Cs  Cs6       1.0  0.18700  0.82000  0.50000  1.0000
  Zr  Zr1       1.0  0.62900  0.04120  0.00000  1.0000
  Zr  Zr2       1.0  0.89800  0.04380  0.00000  1.0000
  Zr  Zr3       1.0  0.14300  0.28600  0.00000  1.0000
  Zr  Zr4       1.0  0.90100  0.77200  0.00000  1.0000
  Zr  Zr5       1.0  0.05410  0.19400  0.50000  1.0000
  Zr  Zr6       1.0  0.32300  0.19700  0.50000  1.0000
  Zr  Zr7       1.0  0.05150  0.46600  0.50000  1.0000
  Zr  Zr8       1.0  0.80900  0.95200  0.50000  1.0000
