data_image0
_chemical_formula_structural       U6Zr8
_chemical_formula_sum              "U6 Zr8"
_cell_length_a       8.27569
_cell_length_b       8.27399
_cell_length_c       5.32557
_cell_angle_alpha    90
_cell_angle_beta     90
_cell_angle_gamma    60.0399

_space_group_name_H-M_alt    "P 1"
_space_group_IT_number       1

loop_
  _space_group_symop_operation_xyz
  'x, y, z'

loop_
  _atom_site_type_symbol
  _atom_site_label
  _atom_site_symmetry_multiplicity
  _atom_site_fract_x
  _atom_site_fract_y
  _atom_site_fract_z
  _atom_site_occupancy
  U   U1        1.0  0.68900  0.45100  0.00000  1.0000
  U   U2        1.0  0.30900  0.57500  0.00000  1.0000
  U   U3        1.0  0.43100  0.83100  0.00000  1.0000
  U   U4        1.0  0.52100  0.40700  0.50000  1.0000
  U   U5        1.0  0.64400  0.66400  0.50000  1.0000
  U   U6        1.0  0.26400  0.78700  0.50000  1.0000
  Zr  Zr1       1.0  0.99100  0.00918  0.00000  1.0000
  Zr  Zr2       1.0  0.57100  0.13400  0.00000  1.0000
  Zr  Zr3       1.0  0.14300  0.28600  0.00000  1.0000
  Zr  Zr4       1.0  0.86600  0.71400  0.00000  1.0000
  Zr  Zr5       1.0  0.38200  0.10300  0.50000  1.0000
  Zr  Zr6       1.0  0.96100  0.22900  0.50000  1.0000
  Zr  Zr7       1.0  0.08640  0.52500  0.50000  1.0000
  Zr  Zr8       1.0  0.80900  0.95200  0.50000  1.0000
