data_image0
_chemical_formula_structural       Sr6Zr8
_chemical_formula_sum              "Sr6 Zr8"
_cell_length_a       9.4265
_cell_length_b       9.42659
_cell_length_c       5.61557
_cell_angle_alpha    90
_cell_angle_beta     90
_cell_angle_gamma    59.9995

_space_group_name_H-M_alt    "P 1"
_space_group_IT_number       1

loop_
  _space_group_symop_operation_xyz
  'x, y, z'

loop_
  _atom_site_type_symbol
  _atom_site_label
  _atom_site_symmetry_multiplicity
  _atom_site_fract_x
  _atom_site_fract_y
  _atom_site_fract_z
  _atom_site_occupancy
  Sr  Sr1       1.0  0.12900  0.28100  0.00000  1.0000
  Sr  Sr2       1.0  0.30400  0.55700  0.00000  1.0000
  Sr  Sr3       1.0  0.85300  0.73300  0.00000  1.0000
  Sr  Sr4       1.0  0.39500  0.09970  0.50000  1.0000
  Sr  Sr5       1.0  0.67100  0.64800  0.50000  1.0000
  Sr  Sr6       1.0  0.22000  0.82400  0.50000  1.0000
  Zr  Zr1       1.0  0.97100  0.03400  0.00000  1.0000
  Zr  Zr2       1.0  0.60500  0.13800  0.00000  1.0000
  Zr  Zr3       1.0  0.70900  0.40000  0.00000  1.0000
  Zr  Zr4       1.0  0.42900  0.85700  0.00000  1.0000
  Zr  Zr5       1.0  0.91800  0.24300  0.50000  1.0000
  Zr  Zr6       1.0  0.55300  0.34700  0.50000  1.0000
  Zr  Zr7       1.0  0.09520  0.52400  0.50000  1.0000
  Zr  Zr8       1.0  0.81500  0.98100  0.50000  1.0000
