data_image0
_chemical_formula_structural       Au2Si2Yb2
_chemical_formula_sum              "Au2 Si2 Yb2"
_cell_length_a       4.45286
_cell_length_b       5.6464
_cell_length_c       5.6464
_cell_angle_alpha    103.225
_cell_angle_beta     113.223
_cell_angle_gamma    66.7771

_space_group_name_H-M_alt    "P 1"
_space_group_IT_number       1

loop_
  _space_group_symop_operation_xyz
  'x, y, z'

loop_
  _atom_site_type_symbol
  _atom_site_label
  _atom_site_symmetry_multiplicity
  _atom_site_fract_x
  _atom_site_fract_y
  _atom_site_fract_z
  _atom_site_occupancy
  Au  Au1       1.0  0.00810  0.21700  0.23300  1.0000
  Au  Au2       1.0  0.00810  0.76700  0.78300  1.0000
  Si  Si1       1.0  0.34000  0.34000  0.01960  1.0000
  Si  Si2       1.0  0.34000  0.98000  0.66000  1.0000
  Yb  Yb1       1.0  0.70700  0.79300  0.20700  1.0000
  Yb  Yb2       1.0  0.63600  0.36400  0.63600  1.0000
