data_image0
_chemical_formula_structural       Tc6Zr8
_chemical_formula_sum              "Tc6 Zr8"
_cell_length_a       8.13427
_cell_length_b       8.13494
_cell_length_c       4.71324
_cell_angle_alpha    90
_cell_angle_beta     90
_cell_angle_gamma    59.9947

_space_group_name_H-M_alt    "P 1"
_space_group_IT_number       1

loop_
  _space_group_symop_operation_xyz
  'x, y, z'

loop_
  _atom_site_type_symbol
  _atom_site_label
  _atom_site_symmetry_multiplicity
  _atom_site_fract_x
  _atom_site_fract_y
  _atom_site_fract_z
  _atom_site_occupancy
  Tc  Tc1       1.0  0.15600  0.28700  0.00000  1.0000
  Tc  Tc2       1.0  0.27100  0.58500  0.00000  1.0000
  Tc  Tc3       1.0  0.85900  0.69900  0.00000  1.0000
  Tc  Tc4       1.0  0.36800  0.09350  0.50000  1.0000
  Tc  Tc5       1.0  0.66500  0.68200  0.50000  1.0000
  Tc  Tc6       1.0  0.25300  0.79600  0.50000  1.0000
  Zr  Zr1       1.0  0.50800  0.21100  0.00000  1.0000
  Zr  Zr2       1.0  0.78200  0.42400  0.00000  1.0000
  Zr  Zr3       1.0  0.42900  0.85700  0.00000  1.0000
  Zr  Zr4       1.0  0.99500  0.93700  0.00000  1.0000
  Zr  Zr5       1.0  0.01560  0.17000  0.50000  1.0000
  Zr  Zr6       1.0  0.52900  0.44400  0.50000  1.0000
  Zr  Zr7       1.0  0.09520  0.52400  0.50000  1.0000
  Zr  Zr8       1.0  0.74200  0.95700  0.50000  1.0000
