data_image0
_chemical_formula_structural       Eu2Ge2Sc2
_chemical_formula_sum              "Eu2 Ge2 Sc2"
_cell_length_a       4.36899
_cell_length_b       4.36899
_cell_length_c       8.59702
_cell_angle_alpha    104.72
_cell_angle_beta     104.72
_cell_angle_gamma    90

_space_group_name_H-M_alt    "P 1"
_space_group_IT_number       1

loop_
  _space_group_symop_operation_xyz
  'x, y, z'

loop_
  _atom_site_type_symbol
  _atom_site_label
  _atom_site_symmetry_multiplicity
  _atom_site_fract_x
  _atom_site_fract_y
  _atom_site_fract_z
  _atom_site_occupancy
  Eu  Eu1       1.0  0.67600  0.67600  0.35200  1.0000
  Eu  Eu2       1.0  0.32400  0.32400  0.64800  1.0000
  Ge  Ge1       1.0  0.12000  0.12000  0.24100  1.0000
  Ge  Ge2       1.0  0.88000  0.88000  0.75900  1.0000
  Sc  Sc1       1.0  0.50000  0.00000  0.00000  1.0000
  Sc  Sc2       1.0  0.00000  0.50000  0.00000  1.0000
