data_image0
_chemical_formula_structural       CuO3Sr2
_chemical_formula_sum              "Cu1 O3 Sr2"
_cell_length_a       3.48426
_cell_length_b       3.92086
_cell_length_c       6.83382
_cell_angle_alpha    106.671
_cell_angle_beta     104.769
_cell_angle_gamma    90

_space_group_name_H-M_alt    "P 1"
_space_group_IT_number       1

loop_
  _space_group_symop_operation_xyz
  'x, y, z'

loop_
  _atom_site_type_symbol
  _atom_site_label
  _atom_site_symmetry_multiplicity
  _atom_site_fract_x
  _atom_site_fract_y
  _atom_site_fract_z
  _atom_site_occupancy
  Cu  Cu1       1.0  0.00000  0.50000  0.00000  1.0000
  O   O1        1.0  0.00000  0.00000  0.00000  1.0000
  O   O2        1.0  0.15500  0.65500  0.31000  1.0000
  O   O3        1.0  0.84500  0.34500  0.69000  1.0000
  Sr  Sr1       1.0  0.64700  0.14700  0.29400  1.0000
  Sr  Sr2       1.0  0.35300  0.85300  0.70600  1.0000
