data_image0
_chemical_formula_structural       Co2O8U4
_chemical_formula_sum              "Co2 O8 U4"
_cell_length_a       6.69081
_cell_length_b       6.69081
_cell_length_c       6.69081
_cell_angle_alpha    119.998
_cell_angle_beta     90.0042
_cell_angle_gamma    119.998

_space_group_name_H-M_alt    "P 1"
_space_group_IT_number       1

loop_
  _space_group_symop_operation_xyz
  'x, y, z'

loop_
  _atom_site_type_symbol
  _atom_site_label
  _atom_site_symmetry_multiplicity
  _atom_site_fract_x
  _atom_site_fract_y
  _atom_site_fract_z
  _atom_site_occupancy
  Co  Co1       1.0  0.00000  0.00000  0.00000  1.0000
  Co  Co2       1.0  0.75000  0.50000  0.25000  1.0000
  O   O1        1.0  0.62200  0.73800  0.36000  1.0000
  O   O2        1.0  0.12800  0.23800  0.36600  1.0000
  O   O3        1.0  0.64000  0.26200  0.37800  1.0000
  O   O4        1.0  0.11600  0.73800  0.37800  1.0000
  O   O5        1.0  0.11000  0.23800  0.87200  1.0000
  O   O6        1.0  0.63400  0.76200  0.87200  1.0000
  O   O7        1.0  0.62200  0.26200  0.88400  1.0000
  O   O8        1.0  0.12800  0.76200  0.89000  1.0000
  U   U1        1.0  0.37500  0.75000  0.12500  1.0000
  U   U2        1.0  0.87500  0.25000  0.62500  1.0000
  U   U3        1.0  0.37500  0.75000  0.62500  1.0000
  U   U4        1.0  0.37500  0.25000  0.62500  1.0000
