data_image0
_chemical_formula_structural       Np6Zr8
_chemical_formula_sum              "Np6 Zr8"
_cell_length_a       8.09265
_cell_length_b       8.46072
_cell_length_c       5.21662
_cell_angle_alpha    90
_cell_angle_beta     90
_cell_angle_gamma    61.1442

_space_group_name_H-M_alt    "P 1"
_space_group_IT_number       1

loop_
  _space_group_symop_operation_xyz
  'x, y, z'

loop_
  _atom_site_type_symbol
  _atom_site_label
  _atom_site_symmetry_multiplicity
  _atom_site_fract_x
  _atom_site_fract_y
  _atom_site_fract_z
  _atom_site_occupancy
  Np  Np1       1.0  0.68500  0.45500  0.00000  1.0000
  Np  Np2       1.0  0.33400  0.61400  0.00000  1.0000
  Np  Np3       1.0  0.40100  0.86900  0.00000  1.0000
  Np  Np4       1.0  0.55200  0.36900  0.50000  1.0000
  Np  Np5       1.0  0.61900  0.62400  0.50000  1.0000
  Np  Np6       1.0  0.26700  0.78300  0.50000  1.0000
  Zr  Zr1       1.0  0.98100  0.02520  0.00000  1.0000
  Zr  Zr2       1.0  0.55800  0.15900  0.00000  1.0000
  Zr  Zr3       1.0  0.13700  0.30500  0.00000  1.0000
  Zr  Zr4       1.0  0.84200  0.72700  0.00000  1.0000
  Zr  Zr5       1.0  0.39400  0.07900  0.50000  1.0000
  Zr  Zr6       1.0  0.97100  0.21300  0.50000  1.0000
  Zr  Zr7       1.0  0.11100  0.51100  0.50000  1.0000
  Zr  Zr8       1.0  0.81500  0.93300  0.50000  1.0000
