data_image0
_chemical_formula_structural       Co4Sc4Si4
_chemical_formula_sum              "Co4 Sc4 Si4"
_cell_length_a       6.41526
_cell_length_b       3.97417
_cell_length_c       6.84411
_cell_angle_alpha    90
_cell_angle_beta     90
_cell_angle_gamma    90

_space_group_name_H-M_alt    "P 1"
_space_group_IT_number       1

loop_
  _space_group_symop_operation_xyz
  'x, y, z'

loop_
  _atom_site_type_symbol
  _atom_site_label
  _atom_site_symmetry_multiplicity
  _atom_site_fract_x
  _atom_site_fract_y
  _atom_site_fract_z
  _atom_site_occupancy
  Co  Co1       1.0  0.15300  0.25000  0.06260  1.0000
  Co  Co2       1.0  0.65300  0.25000  0.43700  1.0000
  Co  Co3       1.0  0.34700  0.75000  0.56300  1.0000
  Co  Co4       1.0  0.84700  0.75000  0.93700  1.0000
  Sc  Sc1       1.0  0.50600  0.75000  0.19400  1.0000
  Sc  Sc2       1.0  0.00552  0.75000  0.30600  1.0000
  Sc  Sc3       1.0  0.99400  0.25000  0.69400  1.0000
  Sc  Sc4       1.0  0.49400  0.25000  0.80600  1.0000
  Si  Si1       1.0  0.79300  0.25000  0.10900  1.0000
  Si  Si2       1.0  0.29300  0.25000  0.39100  1.0000
  Si  Si3       1.0  0.70700  0.75000  0.60900  1.0000
  Si  Si4       1.0  0.20700  0.75000  0.89100  1.0000
