data_image0
_chemical_formula_structural       B2W4
_chemical_formula_sum              "B2 W4"
_cell_length_a       4.62088
_cell_length_b       4.62088
_cell_length_c       4.62088
_cell_angle_alpha    117.737
_cell_angle_beta     105.503
_cell_angle_gamma    105.503

_space_group_name_H-M_alt    "P 1"
_space_group_IT_number       1

loop_
  _space_group_symop_operation_xyz
  'x, y, z'

loop_
  _atom_site_type_symbol
  _atom_site_label
  _atom_site_symmetry_multiplicity
  _atom_site_fract_x
  _atom_site_fract_y
  _atom_site_fract_z
  _atom_site_occupancy
  B   B1        1.0  0.00000  0.25000  0.25000  1.0000
  B   B2        1.0  0.00000  0.75000  0.75000  1.0000
  W   W1        1.0  0.50000  0.33000  0.17000  1.0000
  W   W2        1.0  0.16000  0.83000  0.33000  1.0000
  W   W3        1.0  0.84000  0.17000  0.67000  1.0000
  W   W4        1.0  0.50000  0.67000  0.83000  1.0000
