data_image0
_chemical_formula_structural       Nb2P2S2
_chemical_formula_sum              "Nb2 P2 S2"
_cell_length_a       3.45514
_cell_length_b       4.72461
_cell_length_c       6.68676
_cell_angle_alpha    110.688
_cell_angle_beta     104.973
_cell_angle_gamma    90

_space_group_name_H-M_alt    "P 1"
_space_group_IT_number       1

loop_
  _space_group_symop_operation_xyz
  'x, y, z'

loop_
  _atom_site_type_symbol
  _atom_site_label
  _atom_site_symmetry_multiplicity
  _atom_site_fract_x
  _atom_site_fract_y
  _atom_site_fract_z
  _atom_site_occupancy
  Nb  Nb1       1.0  0.12400  0.62400  0.24800  1.0000
  Nb  Nb2       1.0  0.87600  0.37600  0.75200  1.0000
  P   P1        1.0  0.50000  0.23700  0.00000  1.0000
  P   P2        1.0  0.50000  0.76300  0.00000  1.0000
  S   S1        1.0  0.21200  0.21200  0.42500  1.0000
  S   S2        1.0  0.78800  0.78800  0.57500  1.0000
