data_image0
_chemical_formula_structural       Ca2Sb4
_chemical_formula_sum              "Ca2 Sb4"
_cell_length_a       4.77068
_cell_length_b       4.21482
_cell_length_c       9.03469
_cell_angle_alpha    90
_cell_angle_beta     106.797
_cell_angle_gamma    90

_space_group_name_H-M_alt    "P 1"
_space_group_IT_number       1

loop_
  _space_group_symop_operation_xyz
  'x, y, z'

loop_
  _atom_site_type_symbol
  _atom_site_label
  _atom_site_symmetry_multiplicity
  _atom_site_fract_x
  _atom_site_fract_y
  _atom_site_fract_z
  _atom_site_occupancy
  Ca  Ca1       1.0  0.43600  0.25000  0.28800  1.0000
  Ca  Ca2       1.0  0.56400  0.75000  0.71200  1.0000
  Sb  Sb1       1.0  0.78900  0.25000  0.01770  1.0000
  Sb  Sb2       1.0  0.98100  0.75000  0.38000  1.0000
  Sb  Sb3       1.0  0.01930  0.25000  0.62000  1.0000
  Sb  Sb4       1.0  0.21100  0.75000  0.98200  1.0000
