data_image0
_chemical_formula_structural       Ni4Sc4Si4
_chemical_formula_sum              "Ni4 Sc4 Si4"
_cell_length_a       6.40782
_cell_length_b       4.00057
_cell_length_c       6.93224
_cell_angle_alpha    90
_cell_angle_beta     90
_cell_angle_gamma    90

_space_group_name_H-M_alt    "P 1"
_space_group_IT_number       1

loop_
  _space_group_symop_operation_xyz
  'x, y, z'

loop_
  _atom_site_type_symbol
  _atom_site_label
  _atom_site_symmetry_multiplicity
  _atom_site_fract_x
  _atom_site_fract_y
  _atom_site_fract_z
  _atom_site_occupancy
  Ni  Ni1       1.0  0.31600  0.75000  0.07820  1.0000
  Ni  Ni2       1.0  0.81600  0.75000  0.42200  1.0000
  Ni  Ni3       1.0  0.18400  0.25000  0.57800  1.0000
  Ni  Ni4       1.0  0.68400  0.25000  0.92200  1.0000
  Sc  Sc1       1.0  0.99400  0.25000  0.20200  1.0000
  Sc  Sc2       1.0  0.49400  0.25000  0.29800  1.0000
  Sc  Sc3       1.0  0.50600  0.75000  0.70200  1.0000
  Sc  Sc4       1.0  0.00647  0.75000  0.79800  1.0000
  Si  Si1       1.0  0.70000  0.75000  0.09430  1.0000
  Si  Si2       1.0  0.20000  0.75000  0.40600  1.0000
  Si  Si3       1.0  0.80000  0.25000  0.59400  1.0000
  Si  Si4       1.0  0.30000  0.25000  0.90600  1.0000
