data_image0
_chemical_formula_structural       Nb2P2Se2
_chemical_formula_sum              "Nb2 P2 Se2"
_cell_length_a       3.47844
_cell_length_b       4.85753
_cell_length_c       6.95506
_cell_angle_alpha    110.439
_cell_angle_beta     104.481
_cell_angle_gamma    90

_space_group_name_H-M_alt    "P 1"
_space_group_IT_number       1

loop_
  _space_group_symop_operation_xyz
  'x, y, z'

loop_
  _atom_site_type_symbol
  _atom_site_label
  _atom_site_symmetry_multiplicity
  _atom_site_fract_x
  _atom_site_fract_y
  _atom_site_fract_z
  _atom_site_occupancy
  Nb  Nb1       1.0  0.11600  0.61600  0.23200  1.0000
  Nb  Nb2       1.0  0.88400  0.38400  0.76800  1.0000
  P   P1        1.0  0.50000  0.23600  0.00000  1.0000
  P   P2        1.0  0.50000  0.76400  0.00000  1.0000
  Se  Se1       1.0  0.21200  0.21200  0.42400  1.0000
  Se  Se2       1.0  0.78800  0.78800  0.57600  1.0000
