data_image0
_chemical_formula_structural       Rh4Sc4Si4
_chemical_formula_sum              "Rh4 Sc4 Si4"
_cell_length_a       6.51061
_cell_length_b       4.07465
_cell_length_c       7.28343
_cell_angle_alpha    90
_cell_angle_beta     90
_cell_angle_gamma    90

_space_group_name_H-M_alt    "P 1"
_space_group_IT_number       1

loop_
  _space_group_symop_operation_xyz
  'x, y, z'

loop_
  _atom_site_type_symbol
  _atom_site_label
  _atom_site_symmetry_multiplicity
  _atom_site_fract_x
  _atom_site_fract_y
  _atom_site_fract_z
  _atom_site_occupancy
  Rh  Rh1       1.0  0.15700  0.25000  0.06230  1.0000
  Rh  Rh2       1.0  0.65700  0.25000  0.43800  1.0000
  Rh  Rh3       1.0  0.34300  0.75000  0.56200  1.0000
  Rh  Rh4       1.0  0.84300  0.75000  0.93800  1.0000
  Sc  Sc1       1.0  0.49100  0.75000  0.18900  1.0000
  Sc  Sc2       1.0  0.99100  0.75000  0.31100  1.0000
  Sc  Sc3       1.0  0.00938  0.25000  0.68900  1.0000
  Sc  Sc4       1.0  0.50900  0.25000  0.81100  1.0000
  Si  Si1       1.0  0.78500  0.25000  0.11500  1.0000
  Si  Si2       1.0  0.28500  0.25000  0.38500  1.0000
  Si  Si3       1.0  0.71500  0.75000  0.61500  1.0000
  Si  Si4       1.0  0.21500  0.75000  0.88500  1.0000
