data_image0
_chemical_formula_structural       Eu4Pt4Si4
_chemical_formula_sum              "Eu4 Pt4 Si4"
_cell_length_a       6.43429
_cell_length_b       6.43429
_cell_length_c       6.43429
_cell_angle_alpha    90
_cell_angle_beta     90
_cell_angle_gamma    90

_space_group_name_H-M_alt    "P 1"
_space_group_IT_number       1

loop_
  _space_group_symop_operation_xyz
  'x, y, z'

loop_
  _atom_site_type_symbol
  _atom_site_label
  _atom_site_symmetry_multiplicity
  _atom_site_fract_x
  _atom_site_fract_y
  _atom_site_fract_z
  _atom_site_occupancy
  Eu  Eu1       1.0  0.13200  0.13200  0.13200  1.0000
  Eu  Eu2       1.0  0.86800  0.63200  0.36800  1.0000
  Eu  Eu3       1.0  0.36800  0.86800  0.63200  1.0000
  Eu  Eu4       1.0  0.63200  0.36800  0.86800  1.0000
  Pt  Pt1       1.0  0.58200  0.91800  0.08230  1.0000
  Pt  Pt2       1.0  0.41800  0.41800  0.41800  1.0000
  Pt  Pt3       1.0  0.91800  0.08230  0.58200  1.0000
  Pt  Pt4       1.0  0.08230  0.58200  0.91800  1.0000
  Si  Si1       1.0  0.33600  0.66400  0.16400  1.0000
  Si  Si2       1.0  0.66400  0.16400  0.33600  1.0000
  Si  Si3       1.0  0.16400  0.33600  0.66400  1.0000
  Si  Si4       1.0  0.83600  0.83600  0.83600  1.0000
