data_image0
_chemical_formula_structural       Al3Pt3U3
_chemical_formula_sum              "Al3 Pt3 U3"
_cell_length_a       6.96679
_cell_length_b       6.96679
_cell_length_c       4.17954
_cell_angle_alpha    90
_cell_angle_beta     90
_cell_angle_gamma    120.013

_space_group_name_H-M_alt    "P 1"
_space_group_IT_number       1

loop_
  _space_group_symop_operation_xyz
  'x, y, z'

loop_
  _atom_site_type_symbol
  _atom_site_label
  _atom_site_symmetry_multiplicity
  _atom_site_fract_x
  _atom_site_fract_y
  _atom_site_fract_z
  _atom_site_occupancy
  Al  Al1       1.0  0.23700  0.00000  0.00000  1.0000
  Al  Al2       1.0  0.00000  0.23700  0.00000  1.0000
  Al  Al3       1.0  0.76300  0.76300  0.00000  1.0000
  Pt  Pt1       1.0  0.66700  0.33300  0.00000  1.0000
  Pt  Pt2       1.0  0.33300  0.66700  0.00000  1.0000
  Pt  Pt3       1.0  0.00000  0.00000  0.50000  1.0000
  U   U1        1.0  0.57500  0.00001  0.50000  1.0000
  U   U2        1.0  0.42500  0.42500  0.50000  1.0000
  U   U3        1.0  0.00001  0.57500  0.50000  1.0000
