data_image0
_chemical_formula_structural       Eu4Ge4Pt4
_chemical_formula_sum              "Eu4 Ge4 Pt4"
_cell_length_a       6.55573
_cell_length_b       6.55573
_cell_length_c       6.55573
_cell_angle_alpha    90
_cell_angle_beta     90
_cell_angle_gamma    90

_space_group_name_H-M_alt    "P 1"
_space_group_IT_number       1

loop_
  _space_group_symop_operation_xyz
  'x, y, z'

loop_
  _atom_site_type_symbol
  _atom_site_label
  _atom_site_symmetry_multiplicity
  _atom_site_fract_x
  _atom_site_fract_y
  _atom_site_fract_z
  _atom_site_occupancy
  Eu  Eu1       1.0  0.13500  0.13500  0.13500  1.0000
  Eu  Eu2       1.0  0.86500  0.63500  0.36500  1.0000
  Eu  Eu3       1.0  0.36500  0.86500  0.63500  1.0000
  Eu  Eu4       1.0  0.63500  0.36500  0.86500  1.0000
  Ge  Ge1       1.0  0.32800  0.67200  0.17200  1.0000
  Ge  Ge2       1.0  0.67200  0.17200  0.32800  1.0000
  Ge  Ge3       1.0  0.17200  0.32800  0.67200  1.0000
  Ge  Ge4       1.0  0.82800  0.82800  0.82800  1.0000
  Pt  Pt1       1.0  0.57500  0.92500  0.07510  1.0000
  Pt  Pt2       1.0  0.42500  0.42500  0.42500  1.0000
  Pt  Pt3       1.0  0.92500  0.07510  0.57500  1.0000
  Pt  Pt4       1.0  0.07510  0.57500  0.92500  1.0000
