data_image0
_chemical_formula_structural       Cu2K2Te2
_chemical_formula_sum              "Cu2 K2 Te2"
_cell_length_a       4.46987
_cell_length_b       4.46965
_cell_length_c       9.99773
_cell_angle_alpha    90
_cell_angle_beta     90
_cell_angle_gamma    120.002

_space_group_name_H-M_alt    "P 1"
_space_group_IT_number       1

loop_
  _space_group_symop_operation_xyz
  'x, y, z'

loop_
  _atom_site_type_symbol
  _atom_site_label
  _atom_site_symmetry_multiplicity
  _atom_site_fract_x
  _atom_site_fract_y
  _atom_site_fract_z
  _atom_site_occupancy
  Cu  Cu1       1.0  0.66700  0.33300  0.25000  1.0000
  Cu  Cu2       1.0  0.33300  0.66700  0.75000  1.0000
  K   K1        1.0  0.00000  0.00000  0.00000  1.0000
  K   K2        1.0  0.00000  0.00000  0.50000  1.0000
  Te  Te1       1.0  0.33300  0.66700  0.25000  1.0000
  Te  Te2       1.0  0.66700  0.33300  0.75000  1.0000
