data_image0
_chemical_formula_structural       Ba2S4
_chemical_formula_sum              "Ba2 S4"
_cell_length_a       4.79989
_cell_length_b       5.24656
_cell_length_c       8.39805
_cell_angle_alpha    99.8737
_cell_angle_beta     106.605
_cell_angle_gamma    62.7785

_space_group_name_H-M_alt    "P 1"
_space_group_IT_number       1

loop_
  _space_group_symop_operation_xyz
  'x, y, z'

loop_
  _atom_site_type_symbol
  _atom_site_label
  _atom_site_symmetry_multiplicity
  _atom_site_fract_x
  _atom_site_fract_y
  _atom_site_fract_z
  _atom_site_occupancy
  Ba  Ba1       1.0  0.14400  0.25000  0.25000  1.0000
  Ba  Ba2       1.0  0.85600  0.75000  0.75000  1.0000
  S   S1        1.0  0.51500  0.69900  0.02100  1.0000
  S   S2        1.0  0.19300  0.80100  0.47900  1.0000
  S   S3        1.0  0.80700  0.19900  0.52100  1.0000
  S   S4        1.0  0.48500  0.30100  0.97900  1.0000
