data_image0
_chemical_formula_structural       Ga4Pt4Yb4
_chemical_formula_sum              "Ga4 Pt4 Yb4"
_cell_length_a       7.0115
_cell_length_b       4.32381
_cell_length_c       7.76937
_cell_angle_alpha    90
_cell_angle_beta     90
_cell_angle_gamma    90

_space_group_name_H-M_alt    "P 1"
_space_group_IT_number       1

loop_
  _space_group_symop_operation_xyz
  'x, y, z'

loop_
  _atom_site_type_symbol
  _atom_site_label
  _atom_site_symmetry_multiplicity
  _atom_site_fract_x
  _atom_site_fract_y
  _atom_site_fract_z
  _atom_site_occupancy
  Ga  Ga1       1.0  0.84300  0.25000  0.07060  1.0000
  Ga  Ga2       1.0  0.34300  0.25000  0.42900  1.0000
  Ga  Ga3       1.0  0.65700  0.75000  0.57100  1.0000
  Ga  Ga4       1.0  0.15700  0.75000  0.92900  1.0000
  Pt  Pt1       1.0  0.21900  0.25000  0.11200  1.0000
  Pt  Pt2       1.0  0.71900  0.25000  0.38800  1.0000
  Pt  Pt3       1.0  0.28100  0.75000  0.61200  1.0000
  Pt  Pt4       1.0  0.78100  0.75000  0.88800  1.0000
  Yb  Yb1       1.0  0.52100  0.75000  0.18700  1.0000
  Yb  Yb2       1.0  0.02100  0.75000  0.31300  1.0000
  Yb  Yb3       1.0  0.97900  0.25000  0.68700  1.0000
  Yb  Yb4       1.0  0.47900  0.25000  0.81300  1.0000
