data_image0
_chemical_formula_structural       Ga2
_chemical_formula_sum              "Ga2"
_cell_length_a       2.79219
_cell_length_b       3.25394
_cell_length_c       4.29973
_cell_angle_alpha    90
_cell_angle_beta     71.053
_cell_angle_gamma    90

_space_group_name_H-M_alt    "P 1"
_space_group_IT_number       1

loop_
  _space_group_symop_operation_xyz
  'x, y, z'

loop_
  _atom_site_type_symbol
  _atom_site_label
  _atom_site_symmetry_multiplicity
  _atom_site_fract_x
  _atom_site_fract_y
  _atom_site_fract_z
  _atom_site_occupancy
  Ga  Ga1       1.0  0.86500  0.25000  0.26900  1.0000
  Ga  Ga2       1.0  0.13500  0.75000  0.73100  1.0000
