data_image0
_chemical_formula_structural       Pt8Si8Te8
_chemical_formula_sum              "Pt8 Si8 Te8"
_cell_length_a       6.22039
_cell_length_b       6.31585
_cell_length_c       12.6129
_cell_angle_alpha    90
_cell_angle_beta     90
_cell_angle_gamma    90

_space_group_name_H-M_alt    "P 1"
_space_group_IT_number       1

loop_
  _space_group_symop_operation_xyz
  'x, y, z'

loop_
  _atom_site_type_symbol
  _atom_site_label
  _atom_site_symmetry_multiplicity
  _atom_site_fract_x
  _atom_site_fract_y
  _atom_site_fract_z
  _atom_site_occupancy
  Pt  Pt1       1.0  0.02510  0.18700  0.11400  1.0000
  Pt  Pt2       1.0  0.47500  0.68700  0.11400  1.0000
  Pt  Pt3       1.0  0.52500  0.18700  0.38600  1.0000
  Pt  Pt4       1.0  0.97500  0.68700  0.38600  1.0000
  Pt  Pt5       1.0  0.02510  0.31300  0.61400  1.0000
  Pt  Pt6       1.0  0.47500  0.81300  0.61400  1.0000
  Pt  Pt7       1.0  0.52500  0.31300  0.88600  1.0000
  Pt  Pt8       1.0  0.97500  0.81300  0.88600  1.0000
  Si  Si1       1.0  0.37100  0.33300  0.06110  1.0000
  Si  Si2       1.0  0.12900  0.83300  0.06110  1.0000
  Si  Si3       1.0  0.87100  0.33300  0.43900  1.0000
  Si  Si4       1.0  0.62900  0.83300  0.43900  1.0000
  Si  Si5       1.0  0.37100  0.16700  0.56100  1.0000
  Si  Si6       1.0  0.12900  0.66700  0.56100  1.0000
  Si  Si7       1.0  0.87100  0.16700  0.93900  1.0000
  Si  Si8       1.0  0.62900  0.66700  0.93900  1.0000
  Te  Te1       1.0  0.61700  0.08370  0.17500  1.0000
  Te  Te2       1.0  0.88300  0.58400  0.17500  1.0000
  Te  Te3       1.0  0.11700  0.08370  0.32500  1.0000
  Te  Te4       1.0  0.38300  0.58400  0.32500  1.0000
  Te  Te5       1.0  0.61700  0.41600  0.67500  1.0000
  Te  Te6       1.0  0.88300  0.91600  0.67500  1.0000
  Te  Te7       1.0  0.11700  0.41600  0.82500  1.0000
  Te  Te8       1.0  0.38300  0.91600  0.82500  1.0000
