data_image0
_chemical_formula_structural       Pu6Zr8
_chemical_formula_sum              "Pu6 Zr8"
_cell_length_a       8.60006
_cell_length_b       8.56148
_cell_length_c       5.3228
_cell_angle_alpha    90
_cell_angle_beta     90
_cell_angle_gamma    60.0379

_space_group_name_H-M_alt    "P 1"
_space_group_IT_number       1

loop_
  _space_group_symop_operation_xyz
  'x, y, z'

loop_
  _atom_site_type_symbol
  _atom_site_label
  _atom_site_symmetry_multiplicity
  _atom_site_fract_x
  _atom_site_fract_y
  _atom_site_fract_z
  _atom_site_occupancy
  Pu  Pu1       1.0  0.71700  0.42700  0.00000  1.0000
  Pu  Pu2       1.0  0.28300  0.56500  0.00000  1.0000
  Pu  Pu3       1.0  0.42100  0.86300  0.00000  1.0000
  Pu  Pu4       1.0  0.53100  0.37500  0.50000  1.0000
  Pu  Pu5       1.0  0.66900  0.67300  0.50000  1.0000
  Pu  Pu6       1.0  0.23500  0.81200  0.50000  1.0000
  Zr  Zr1       1.0  0.98800  0.00731  0.00000  1.0000
  Zr  Zr2       1.0  0.57300  0.13100  0.00000  1.0000
  Zr  Zr3       1.0  0.14200  0.28500  0.00000  1.0000
  Zr  Zr4       1.0  0.86400  0.71600  0.00000  1.0000
  Zr  Zr5       1.0  0.37900  0.10700  0.50000  1.0000
  Zr  Zr6       1.0  0.96500  0.23100  0.50000  1.0000
  Zr  Zr7       1.0  0.08820  0.52200  0.50000  1.0000
  Zr  Zr8       1.0  0.81100  0.95300  0.50000  1.0000
