data_image0
_chemical_formula_structural       Ca4Ga4Pt4
_chemical_formula_sum              "Ca4 Ga4 Pt4"
_cell_length_a       7.15681
_cell_length_b       4.45814
_cell_length_c       7.6253
_cell_angle_alpha    90
_cell_angle_beta     90
_cell_angle_gamma    90

_space_group_name_H-M_alt    "P 1"
_space_group_IT_number       1

loop_
  _space_group_symop_operation_xyz
  'x, y, z'

loop_
  _atom_site_type_symbol
  _atom_site_label
  _atom_site_symmetry_multiplicity
  _atom_site_fract_x
  _atom_site_fract_y
  _atom_site_fract_z
  _atom_site_occupancy
  Ca  Ca1       1.0  0.49000  0.75000  0.19000  1.0000
  Ca  Ca2       1.0  0.99000  0.75000  0.31000  1.0000
  Ca  Ca3       1.0  0.01040  0.25000  0.69000  1.0000
  Ca  Ca4       1.0  0.51000  0.25000  0.81000  1.0000
  Ga  Ga1       1.0  0.16700  0.25000  0.07840  1.0000
  Ga  Ga2       1.0  0.66700  0.25000  0.42200  1.0000
  Ga  Ga3       1.0  0.33300  0.75000  0.57800  1.0000
  Ga  Ga4       1.0  0.83300  0.75000  0.92200  1.0000
  Pt  Pt1       1.0  0.79500  0.25000  0.10100  1.0000
  Pt  Pt2       1.0  0.29500  0.25000  0.39900  1.0000
  Pt  Pt3       1.0  0.70500  0.75000  0.60100  1.0000
  Pt  Pt4       1.0  0.20500  0.75000  0.89900  1.0000
