data_image0
_chemical_formula_structural       CeP2Ru2
_chemical_formula_sum              "Ce1 P2 Ru2"
_cell_length_a       4.05451
_cell_length_b       4.05451
_cell_length_c       6.08911
_cell_angle_alpha    109.447
_cell_angle_beta     109.447
_cell_angle_gamma    90

_space_group_name_H-M_alt    "P 1"
_space_group_IT_number       1

loop_
  _space_group_symop_operation_xyz
  'x, y, z'

loop_
  _atom_site_type_symbol
  _atom_site_label
  _atom_site_symmetry_multiplicity
  _atom_site_fract_x
  _atom_site_fract_y
  _atom_site_fract_z
  _atom_site_occupancy
  Ce  Ce1       1.0  0.00000  0.00000  0.00000  1.0000
  P   P1        1.0  0.64100  0.64100  0.28200  1.0000
  P   P2        1.0  0.35900  0.35900  0.71800  1.0000
  Ru  Ru1       1.0  0.75000  0.25000  0.50000  1.0000
  Ru  Ru2       1.0  0.25000  0.75000  0.50000  1.0000
