data_image0
_chemical_formula_structural       Pt8Sb8Si8
_chemical_formula_sum              "Pt8 Sb8 Si8"
_cell_length_a       6.39202
_cell_length_b       6.41122
_cell_length_c       11.5896
_cell_angle_alpha    90
_cell_angle_beta     90
_cell_angle_gamma    90

_space_group_name_H-M_alt    "P 1"
_space_group_IT_number       1

loop_
  _space_group_symop_operation_xyz
  'x, y, z'

loop_
  _atom_site_type_symbol
  _atom_site_label
  _atom_site_symmetry_multiplicity
  _atom_site_fract_x
  _atom_site_fract_y
  _atom_site_fract_z
  _atom_site_occupancy
  Pt  Pt1       1.0  0.01180  0.11700  0.10700  1.0000
  Pt  Pt2       1.0  0.48800  0.61700  0.10700  1.0000
  Pt  Pt3       1.0  0.51200  0.11700  0.39300  1.0000
  Pt  Pt4       1.0  0.98800  0.61700  0.39300  1.0000
  Pt  Pt5       1.0  0.01180  0.38300  0.60700  1.0000
  Pt  Pt6       1.0  0.48800  0.88300  0.60700  1.0000
  Pt  Pt7       1.0  0.51200  0.38300  0.89300  1.0000
  Pt  Pt8       1.0  0.98800  0.88300  0.89300  1.0000
  Sb  Sb1       1.0  0.61700  0.00503  0.17300  1.0000
  Sb  Sb2       1.0  0.88300  0.50500  0.17300  1.0000
  Sb  Sb3       1.0  0.11700  0.00503  0.32700  1.0000
  Sb  Sb4       1.0  0.38300  0.50500  0.32700  1.0000
  Sb  Sb5       1.0  0.61700  0.49500  0.67300  1.0000
  Sb  Sb6       1.0  0.88300  0.99500  0.67300  1.0000
  Sb  Sb7       1.0  0.11700  0.49500  0.82700  1.0000
  Sb  Sb8       1.0  0.38300  0.99500  0.82700  1.0000
  Si  Si1       1.0  0.35500  0.26500  0.07380  1.0000
  Si  Si2       1.0  0.14500  0.76500  0.07380  1.0000
  Si  Si3       1.0  0.85500  0.26500  0.42600  1.0000
  Si  Si4       1.0  0.64500  0.76500  0.42600  1.0000
  Si  Si5       1.0  0.35500  0.23500  0.57400  1.0000
  Si  Si6       1.0  0.14500  0.73500  0.57400  1.0000
  Si  Si7       1.0  0.85500  0.23500  0.92600  1.0000
  Si  Si8       1.0  0.64500  0.73500  0.92600  1.0000
