data_image0
_chemical_formula_structural       K6Ti8
_chemical_formula_sum              "K6 Ti8"
_cell_length_a       15.1312
_cell_length_b       9.84896
_cell_length_c       3.40639
_cell_angle_alpha    90
_cell_angle_beta     90
_cell_angle_gamma    104.735

_space_group_name_H-M_alt    "P 1"
_space_group_IT_number       1

loop_
  _space_group_symop_operation_xyz
  'x, y, z'

loop_
  _atom_site_type_symbol
  _atom_site_label
  _atom_site_symmetry_multiplicity
  _atom_site_fract_x
  _atom_site_fract_y
  _atom_site_fract_z
  _atom_site_occupancy
  K   K1        1.0  0.11900  0.20500  0.00000  1.0000
  K   K2        1.0  0.33500  0.56000  0.00000  1.0000
  K   K3        1.0  0.90200  0.81900  0.00000  1.0000
  K   K4        1.0  0.40500  0.17600  0.50000  1.0000
  K   K5        1.0  0.62200  0.56200  0.50000  1.0000
  K   K6        1.0  0.18800  0.82100  0.50000  1.0000
  Ti  Ti1       1.0  0.72800  0.26700  0.00000  1.0000
  Ti  Ti2       1.0  0.91300  0.29000  0.00000  1.0000
  Ti  Ti3       1.0  0.50800  0.89500  0.00000  1.0000
  Ti  Ti4       1.0  0.68000  0.93700  0.00000  1.0000
  Ti  Ti5       1.0  0.61100  0.09030  0.50000  1.0000
  Ti  Ti6       1.0  0.79600  0.11400  0.50000  1.0000
  Ti  Ti7       1.0  0.84300  0.44400  0.50000  1.0000
  Ti  Ti8       1.0  0.01580  0.48600  0.50000  1.0000
