data_image0
_chemical_formula_structural       As4Ba4Pt4
_chemical_formula_sum              "As4 Ba4 Pt4"
_cell_length_a       6.79204
_cell_length_b       6.79204
_cell_length_c       6.79204
_cell_angle_alpha    90
_cell_angle_beta     90
_cell_angle_gamma    90

_space_group_name_H-M_alt    "P 1"
_space_group_IT_number       1

loop_
  _space_group_symop_operation_xyz
  'x, y, z'

loop_
  _atom_site_type_symbol
  _atom_site_label
  _atom_site_symmetry_multiplicity
  _atom_site_fract_x
  _atom_site_fract_y
  _atom_site_fract_z
  _atom_site_occupancy
  As  As1       1.0  0.32900  0.67100  0.17100  1.0000
  As  As2       1.0  0.67100  0.17100  0.32900  1.0000
  As  As3       1.0  0.17100  0.32900  0.67100  1.0000
  As  As4       1.0  0.82900  0.82900  0.82900  1.0000
  Ba  Ba1       1.0  0.11300  0.11300  0.11300  1.0000
  Ba  Ba2       1.0  0.88700  0.61300  0.38700  1.0000
  Ba  Ba3       1.0  0.38700  0.88700  0.61300  1.0000
  Ba  Ba4       1.0  0.61300  0.38700  0.88700  1.0000
  Pt  Pt1       1.0  0.59600  0.90400  0.09590  1.0000
  Pt  Pt2       1.0  0.40400  0.40400  0.40400  1.0000
  Pt  Pt3       1.0  0.90400  0.09590  0.59600  1.0000
  Pt  Pt4       1.0  0.09590  0.59600  0.90400  1.0000
