data_image0
_chemical_formula_structural       Ge4Pt4Sr4
_chemical_formula_sum              "Ge4 Pt4 Sr4"
_cell_length_a       6.6793
_cell_length_b       6.6793
_cell_length_c       6.6793
_cell_angle_alpha    90
_cell_angle_beta     90
_cell_angle_gamma    90

_space_group_name_H-M_alt    "P 1"
_space_group_IT_number       1

loop_
  _space_group_symop_operation_xyz
  'x, y, z'

loop_
  _atom_site_type_symbol
  _atom_site_label
  _atom_site_symmetry_multiplicity
  _atom_site_fract_x
  _atom_site_fract_y
  _atom_site_fract_z
  _atom_site_occupancy
  Ge  Ge1       1.0  0.33500  0.66500  0.16500  1.0000
  Ge  Ge2       1.0  0.66500  0.16500  0.33500  1.0000
  Ge  Ge3       1.0  0.16500  0.33500  0.66500  1.0000
  Ge  Ge4       1.0  0.83500  0.83500  0.83500  1.0000
  Pt  Pt1       1.0  0.58300  0.91700  0.08270  1.0000
  Pt  Pt2       1.0  0.41700  0.41700  0.41700  1.0000
  Pt  Pt3       1.0  0.91700  0.08270  0.58300  1.0000
  Pt  Pt4       1.0  0.08270  0.58300  0.91700  1.0000
  Sr  Sr1       1.0  0.13700  0.13700  0.13700  1.0000
  Sr  Sr2       1.0  0.86300  0.63700  0.36300  1.0000
  Sr  Sr3       1.0  0.36300  0.86300  0.63700  1.0000
  Sr  Sr4       1.0  0.63700  0.36300  0.86300  1.0000
