data_image0
_chemical_formula_structural       Li4Si2
_chemical_formula_sum              "Li4 Si2"
_cell_length_a       4.26551
_cell_length_b       4.27038
_cell_length_c       6.54365
_cell_angle_alpha    108.985
_cell_angle_beta     109.022
_cell_angle_gamma    60.0377

_space_group_name_H-M_alt    "P 1"
_space_group_IT_number       1

loop_
  _space_group_symop_operation_xyz
  'x, y, z'

loop_
  _atom_site_type_symbol
  _atom_site_label
  _atom_site_symmetry_multiplicity
  _atom_site_fract_x
  _atom_site_fract_y
  _atom_site_fract_z
  _atom_site_occupancy
  Li  Li1       1.0  0.35500  0.35500  0.06370  1.0000
  Li  Li2       1.0  0.79600  0.79400  0.38500  1.0000
  Li  Li3       1.0  0.20400  0.20600  0.61500  1.0000
  Li  Li4       1.0  0.64500  0.64500  0.93600  1.0000
  Si  Si1       1.0  0.06300  0.06180  0.18800  1.0000
  Si  Si2       1.0  0.93700  0.93800  0.81200  1.0000
