data_image0
_chemical_formula_structural       Ba4Sb2
_chemical_formula_sum              "Ba4 Sb2"
_cell_length_a       5.2829
_cell_length_b       5.2829
_cell_length_c       10.227
_cell_angle_alpha    104.968
_cell_angle_beta     104.968
_cell_angle_gamma    90

_space_group_name_H-M_alt    "P 1"
_space_group_IT_number       1

loop_
  _space_group_symop_operation_xyz
  'x, y, z'

loop_
  _atom_site_type_symbol
  _atom_site_label
  _atom_site_symmetry_multiplicity
  _atom_site_fract_x
  _atom_site_fract_y
  _atom_site_fract_z
  _atom_site_occupancy
  Ba  Ba1       1.0  0.50000  0.00000  0.00000  1.0000
  Ba  Ba2       1.0  0.00000  0.50000  0.00000  1.0000
  Ba  Ba3       1.0  0.68100  0.68100  0.36100  1.0000
  Ba  Ba4       1.0  0.31900  0.31900  0.63900  1.0000
  Sb  Sb1       1.0  0.13400  0.13400  0.26700  1.0000
  Sb  Sb2       1.0  0.86600  0.86600  0.73300  1.0000
