data_image0
_chemical_formula_structural       P4Ru2
_chemical_formula_sum              "P4 Ru2"
_cell_length_a       5.15057
_cell_length_b       5.92627
_cell_length_c       2.89105
_cell_angle_alpha    90
_cell_angle_beta     90
_cell_angle_gamma    90

_space_group_name_H-M_alt    "P 1"
_space_group_IT_number       1

loop_
  _space_group_symop_operation_xyz
  'x, y, z'

loop_
  _atom_site_type_symbol
  _atom_site_label
  _atom_site_symmetry_multiplicity
  _atom_site_fract_x
  _atom_site_fract_y
  _atom_site_fract_z
  _atom_site_occupancy
  P   P1        1.0  0.16100  0.37300  0.00000  1.0000
  P   P2        1.0  0.83900  0.62700  0.00000  1.0000
  P   P3        1.0  0.66100  0.12700  0.50000  1.0000
  P   P4        1.0  0.33900  0.87300  0.50000  1.0000
  Ru  Ru1       1.0  0.00000  0.00000  0.00000  1.0000
  Ru  Ru2       1.0  0.50000  0.50000  0.50000  1.0000
