data_image0
_chemical_formula_structural       Ba3Bi3Na3
_chemical_formula_sum              "Ba3 Bi3 Na3"
_cell_length_a       8.6464
_cell_length_b       8.6464
_cell_length_c       5.13264
_cell_angle_alpha    90
_cell_angle_beta     90
_cell_angle_gamma    120

_space_group_name_H-M_alt    "P 1"
_space_group_IT_number       1

loop_
  _space_group_symop_operation_xyz
  'x, y, z'

loop_
  _atom_site_type_symbol
  _atom_site_label
  _atom_site_symmetry_multiplicity
  _atom_site_fract_x
  _atom_site_fract_y
  _atom_site_fract_z
  _atom_site_occupancy
  Ba  Ba1       1.0  0.41900  0.00000  0.00000  1.0000
  Ba  Ba2       1.0  0.00000  0.41900  0.00000  1.0000
  Ba  Ba3       1.0  0.58100  0.58100  0.00000  1.0000
  Bi  Bi1       1.0  0.00000  0.00000  0.00000  1.0000
  Bi  Bi2       1.0  0.66700  0.33300  0.50000  1.0000
  Bi  Bi3       1.0  0.33300  0.66700  0.50000  1.0000
  Na  Na1       1.0  0.75900  0.00000  0.50000  1.0000
  Na  Na2       1.0  0.24100  0.24100  0.50000  1.0000
  Na  Na3       1.0  0.00000  0.75900  0.50000  1.0000
