data_image0
_chemical_formula_structural       C2La2O2
_chemical_formula_sum              "C2 La2 O2"
_cell_length_a       3.97986
_cell_length_b       4.05608
_cell_length_c       7.31587
_cell_angle_alpha    95.0759
_cell_angle_beta     90
_cell_angle_gamma    119.38

_space_group_name_H-M_alt    "P 1"
_space_group_IT_number       1

loop_
  _space_group_symop_operation_xyz
  'x, y, z'

loop_
  _atom_site_type_symbol
  _atom_site_label
  _atom_site_symmetry_multiplicity
  _atom_site_fract_x
  _atom_site_fract_y
  _atom_site_fract_z
  _atom_site_occupancy
  C   C1        1.0  0.95800  0.91500  0.07140  1.0000
  C   C2        1.0  0.04240  0.08490  0.92900  1.0000
  La  La1       1.0  0.31500  0.63000  0.29100  1.0000
  La  La2       1.0  0.68500  0.37000  0.70900  1.0000
  O   O1        1.0  0.65000  0.30000  0.37800  1.0000
  O   O2        1.0  0.35000  0.70000  0.62200  1.0000
