data_image0
_chemical_formula_structural       Ge2S2Th2
_chemical_formula_sum              "Ge2 S2 Th2"
_cell_length_a       3.96407
_cell_length_b       3.96407
_cell_length_c       9.02108
_cell_angle_alpha    102.692
_cell_angle_beta     102.692
_cell_angle_gamma    90

_space_group_name_H-M_alt    "P 1"
_space_group_IT_number       1

loop_
  _space_group_symop_operation_xyz
  'x, y, z'

loop_
  _atom_site_type_symbol
  _atom_site_label
  _atom_site_symmetry_multiplicity
  _atom_site_fract_x
  _atom_site_fract_y
  _atom_site_fract_z
  _atom_site_occupancy
  Ge  Ge1       1.0  0.50000  0.00000  0.00000  1.0000
  Ge  Ge2       1.0  0.00000  0.50000  0.00000  1.0000
  S   S1        1.0  0.68700  0.68700  0.37400  1.0000
  S   S2        1.0  0.31300  0.31300  0.62600  1.0000
  Th  Th1       1.0  0.14100  0.14100  0.28100  1.0000
  Th  Th2       1.0  0.85900  0.85900  0.71900  1.0000
