data_image0
_chemical_formula_structural       As4Mo2
_chemical_formula_sum              "As4 Mo2"
_cell_length_a       3.32297
_cell_length_b       4.86164
_cell_length_c       7.02318
_cell_angle_alpha    91.3199
_cell_angle_beta     103.684
_cell_angle_gamma    109.984

_space_group_name_H-M_alt    "P 1"
_space_group_IT_number       1

loop_
  _space_group_symop_operation_xyz
  'x, y, z'

loop_
  _atom_site_type_symbol
  _atom_site_label
  _atom_site_symmetry_multiplicity
  _atom_site_fract_x
  _atom_site_fract_y
  _atom_site_fract_z
  _atom_site_occupancy
  As  As1       1.0  0.89200  0.74000  0.03210  1.0000
  As  As2       1.0  0.80200  0.19800  0.39400  1.0000
  As  As3       1.0  0.21000  0.80200  0.60600  1.0000
  As  As4       1.0  0.12000  0.26000  0.96800  1.0000
  Mo  Mo1       1.0  0.45800  0.60600  0.29800  1.0000
  Mo  Mo2       1.0  0.55400  0.39400  0.70200  1.0000
