data_image0
_chemical_formula_structural       BeO4S
_chemical_formula_sum              "Be1 O4 S1"
_cell_length_a       4.39596
_cell_length_b       4.39596
_cell_length_c       4.63518
_cell_angle_alpha    118.307
_cell_angle_beta     118.307
_cell_angle_gamma    90

_space_group_name_H-M_alt    "P 1"
_space_group_IT_number       1

loop_
  _space_group_symop_operation_xyz
  'x, y, z'

loop_
  _atom_site_type_symbol
  _atom_site_label
  _atom_site_symmetry_multiplicity
  _atom_site_fract_x
  _atom_site_fract_y
  _atom_site_fract_z
  _atom_site_occupancy
  Be  Be1       1.0  0.25000  0.75000  0.50000  1.0000
  O   O1        1.0  0.96800  0.35400  0.24000  1.0000
  O   O2        1.0  0.27200  0.88600  0.24000  1.0000
  O   O3        1.0  0.11400  0.03210  0.76000  1.0000
  O   O4        1.0  0.64600  0.72800  0.76000  1.0000
  S   S1        1.0  0.00000  0.00000  0.00000  1.0000
