data_image0
_chemical_formula_structural       Co2HfSi2
_chemical_formula_sum              "Co2 Hf1 Si2"
_cell_length_a       3.7294
_cell_length_b       3.7294
_cell_length_c       5.45925
_cell_angle_alpha    109.972
_cell_angle_beta     109.972
_cell_angle_gamma    90

_space_group_name_H-M_alt    "P 1"
_space_group_IT_number       1

loop_
  _space_group_symop_operation_xyz
  'x, y, z'

loop_
  _atom_site_type_symbol
  _atom_site_label
  _atom_site_symmetry_multiplicity
  _atom_site_fract_x
  _atom_site_fract_y
  _atom_site_fract_z
  _atom_site_occupancy
  Co  Co1       1.0  0.75000  0.25000  0.50000  1.0000
  Co  Co2       1.0  0.25000  0.75000  0.50000  1.0000
  Hf  Hf1       1.0  0.00000  0.00000  0.00000  1.0000
  Si  Si1       1.0  0.62100  0.62100  0.24300  1.0000
  Si  Si2       1.0  0.37900  0.37900  0.75700  1.0000
