data_image0
_chemical_formula_structural       Co5Fe11
_chemical_formula_sum              "Co5 Fe11"
_cell_length_a       5.67246
_cell_length_b       5.67246
_cell_length_c       5.66948
_cell_angle_alpha    90
_cell_angle_beta     90
_cell_angle_gamma    90

_space_group_name_H-M_alt    "P 1"
_space_group_IT_number       1

loop_
  _space_group_symop_operation_xyz
  'x, y, z'

loop_
  _atom_site_type_symbol
  _atom_site_label
  _atom_site_symmetry_multiplicity
  _atom_site_fract_x
  _atom_site_fract_y
  _atom_site_fract_z
  _atom_site_occupancy
  Co  Co1       1.0  0.00000  0.00000  0.00000  1.0000
  Co  Co2       1.0  0.50000  0.00000  0.00000  1.0000
  Co  Co3       1.0  0.00000  0.50000  0.00000  1.0000
  Co  Co4       1.0  0.50000  0.00000  0.50000  1.0000
  Co  Co5       1.0  0.00000  0.50000  0.50000  1.0000
  Fe  Fe1       1.0  0.50000  0.50000  0.00000  1.0000
  Fe  Fe2       1.0  0.25000  0.25000  0.25000  1.0000
  Fe  Fe3       1.0  0.75000  0.25000  0.25000  1.0000
  Fe  Fe4       1.0  0.25000  0.75000  0.25000  1.0000
  Fe  Fe5       1.0  0.75000  0.75000  0.25000  1.0000
  Fe  Fe6       1.0  0.00000  0.00000  0.50000  1.0000
  Fe  Fe7       1.0  0.50000  0.50000  0.50000  1.0000
  Fe  Fe8       1.0  0.25000  0.25000  0.75000  1.0000
  Fe  Fe9       1.0  0.75000  0.25000  0.75000  1.0000
  Fe  Fe10      1.0  0.25000  0.75000  0.75000  1.0000
  Fe  Fe11      1.0  0.75000  0.75000  0.75000  1.0000
