data_image0
_chemical_formula_structural       B2Co6
_chemical_formula_sum              "B2 Co6"
_cell_length_a       4.80654
_cell_length_b       4.80654
_cell_length_c       3.7757
_cell_angle_alpha    90
_cell_angle_beta     90
_cell_angle_gamma    120

_space_group_name_H-M_alt    "P 1"
_space_group_IT_number       1

loop_
  _space_group_symop_operation_xyz
  'x, y, z'

loop_
  _atom_site_type_symbol
  _atom_site_label
  _atom_site_symmetry_multiplicity
  _atom_site_fract_x
  _atom_site_fract_y
  _atom_site_fract_z
  _atom_site_occupancy
  B   B1        1.0  0.66700  0.33300  0.25000  1.0000
  B   B2        1.0  0.33300  0.66700  0.75000  1.0000
  Co  Co1       1.0  0.17300  0.34600  0.25000  1.0000
  Co  Co2       1.0  0.65400  0.82700  0.25000  1.0000
  Co  Co3       1.0  0.17300  0.82700  0.25000  1.0000
  Co  Co4       1.0  0.82700  0.17300  0.75000  1.0000
  Co  Co5       1.0  0.34600  0.17300  0.75000  1.0000
  Co  Co6       1.0  0.82700  0.65400  0.75000  1.0000
