data_image0
_chemical_formula_structural       Os2Sb4
_chemical_formula_sum              "Os2 Sb4"
_cell_length_a       6.00326
_cell_length_b       6.7426
_cell_length_c       3.2439
_cell_angle_alpha    90
_cell_angle_beta     90
_cell_angle_gamma    90

_space_group_name_H-M_alt    "P 1"
_space_group_IT_number       1

loop_
  _space_group_symop_operation_xyz
  'x, y, z'

loop_
  _atom_site_type_symbol
  _atom_site_label
  _atom_site_symmetry_multiplicity
  _atom_site_fract_x
  _atom_site_fract_y
  _atom_site_fract_z
  _atom_site_occupancy
  Os  Os1       1.0  0.00000  0.00000  0.00000  1.0000
  Os  Os2       1.0  0.50000  0.50000  0.50000  1.0000
  Sb  Sb1       1.0  0.18200  0.35800  0.00000  1.0000
  Sb  Sb2       1.0  0.81800  0.64200  0.00000  1.0000
  Sb  Sb3       1.0  0.68200  0.14200  0.50000  1.0000
  Sb  Sb4       1.0  0.31800  0.85800  0.50000  1.0000
