data_image0
_chemical_formula_structural       Co4Hf6Si6
_chemical_formula_sum              "Co4 Hf6 Si6"
_cell_length_a       3.81982
_cell_length_b       5.30608
_cell_length_c       12.7906
_cell_angle_alpha    90
_cell_angle_beta     90
_cell_angle_gamma    111.097

_space_group_name_H-M_alt    "P 1"
_space_group_IT_number       1

loop_
  _space_group_symop_operation_xyz
  'x, y, z'

loop_
  _atom_site_type_symbol
  _atom_site_label
  _atom_site_symmetry_multiplicity
  _atom_site_fract_x
  _atom_site_fract_y
  _atom_site_fract_z
  _atom_site_occupancy
  Co  Co1       1.0  0.78000  0.55900  0.08200  1.0000
  Co  Co2       1.0  0.78000  0.55900  0.41800  1.0000
  Co  Co3       1.0  0.22000  0.44100  0.58200  1.0000
  Co  Co4       1.0  0.22000  0.44100  0.91800  1.0000
  Hf  Hf1       1.0  0.07550  0.15100  0.11700  1.0000
  Hf  Hf2       1.0  0.36500  0.73000  0.25000  1.0000
  Hf  Hf3       1.0  0.07550  0.15100  0.38300  1.0000
  Hf  Hf4       1.0  0.92400  0.84900  0.61700  1.0000
  Hf  Hf5       1.0  0.63500  0.27000  0.75000  1.0000
  Hf  Hf6       1.0  0.92400  0.84900  0.88300  1.0000
  Si  Si1       1.0  0.39000  0.78000  0.04200  1.0000
  Si  Si2       1.0  0.66400  0.32900  0.25000  1.0000
  Si  Si3       1.0  0.39000  0.78000  0.45800  1.0000
  Si  Si4       1.0  0.61000  0.22000  0.54200  1.0000
  Si  Si5       1.0  0.33600  0.67100  0.75000  1.0000
  Si  Si6       1.0  0.61000  0.22000  0.95800  1.0000
