data_image0
_chemical_formula_structural       Ba2Cl2F2
_chemical_formula_sum              "Ba2 Cl2 F2"
_cell_length_a       4.37639
_cell_length_b       4.37639
_cell_length_c       7.21962
_cell_angle_alpha    90
_cell_angle_beta     90
_cell_angle_gamma    90

_space_group_name_H-M_alt    "P 1"
_space_group_IT_number       1

loop_
  _space_group_symop_operation_xyz
  'x, y, z'

loop_
  _atom_site_type_symbol
  _atom_site_label
  _atom_site_symmetry_multiplicity
  _atom_site_fract_x
  _atom_site_fract_y
  _atom_site_fract_z
  _atom_site_occupancy
  Ba  Ba1       1.0  0.25000  0.25000  0.20800  1.0000
  Ba  Ba2       1.0  0.75000  0.75000  0.79200  1.0000
  Cl  Cl1       1.0  0.75000  0.75000  0.35300  1.0000
  Cl  Cl2       1.0  0.25000  0.25000  0.64700  1.0000
  F   F1        1.0  0.75000  0.25000  0.00000  1.0000
  F   F2        1.0  0.25000  0.75000  0.00000  1.0000
