data_image0
_chemical_formula_structural       Co7Mo6
_chemical_formula_sum              "Co7 Mo6"
_cell_length_a       4.74259
_cell_length_b       4.74259
_cell_length_c       8.91139
_cell_angle_alpha    105.432
_cell_angle_beta     74.5679
_cell_angle_gamma    120

_space_group_name_H-M_alt    "P 1"
_space_group_IT_number       1

loop_
  _space_group_symop_operation_xyz
  'x, y, z'

loop_
  _atom_site_type_symbol
  _atom_site_label
  _atom_site_symmetry_multiplicity
  _atom_site_fract_x
  _atom_site_fract_y
  _atom_site_fract_z
  _atom_site_occupancy
  Co  Co1       1.0  0.00000  0.00000  0.00000  1.0000
  Co  Co2       1.0  0.58900  0.91000  0.23100  1.0000
  Co  Co3       1.0  0.09000  0.41100  0.23100  1.0000
  Co  Co4       1.0  0.09000  0.91000  0.23100  1.0000
  Co  Co5       1.0  0.91000  0.09000  0.76900  1.0000
  Co  Co6       1.0  0.91000  0.58900  0.76900  1.0000
  Co  Co7       1.0  0.41100  0.09000  0.76900  1.0000
  Mo  Mo1       1.0  0.65300  0.34700  0.04190  1.0000
  Mo  Mo2       1.0  0.55000  0.45000  0.35100  1.0000
  Mo  Mo3       1.0  0.83400  0.16600  0.49700  1.0000
  Mo  Mo4       1.0  0.16600  0.83400  0.50300  1.0000
  Mo  Mo5       1.0  0.45000  0.55000  0.64900  1.0000
  Mo  Mo6       1.0  0.34700  0.65300  0.95800  1.0000
