data_image0
_chemical_formula_structural       Co6Ta7
_chemical_formula_sum              "Co6 Ta7"
_cell_length_a       4.95113
_cell_length_b       4.95113
_cell_length_c       9.19133
_cell_angle_alpha    74.3752
_cell_angle_beta     105.625
_cell_angle_gamma    120

_space_group_name_H-M_alt    "P 1"
_space_group_IT_number       1

loop_
  _space_group_symop_operation_xyz
  'x, y, z'

loop_
  _atom_site_type_symbol
  _atom_site_label
  _atom_site_symmetry_multiplicity
  _atom_site_fract_x
  _atom_site_fract_y
  _atom_site_fract_z
  _atom_site_occupancy
  Co  Co1       1.0  0.41900  0.09220  0.23500  1.0000
  Co  Co2       1.0  0.90800  0.09220  0.23500  1.0000
  Co  Co3       1.0  0.90800  0.58100  0.23500  1.0000
  Co  Co4       1.0  0.09220  0.41900  0.76500  1.0000
  Co  Co5       1.0  0.09220  0.90800  0.76500  1.0000
  Co  Co6       1.0  0.58100  0.90800  0.76500  1.0000
  Ta  Ta1       1.0  0.00000  0.00000  0.00000  1.0000
  Ta  Ta2       1.0  0.34600  0.65400  0.03840  1.0000
  Ta  Ta3       1.0  0.45000  0.55000  0.35000  1.0000
  Ta  Ta4       1.0  0.16700  0.83300  0.50000  1.0000
  Ta  Ta5       1.0  0.83300  0.16700  0.50000  1.0000
  Ta  Ta6       1.0  0.55000  0.45000  0.65000  1.0000
  Ta  Ta7       1.0  0.65400  0.34600  0.96200  1.0000
