data_image0
_chemical_formula_structural       H2K2S2
_chemical_formula_sum              "H2 K2 S2"
_cell_length_a       4.30434
_cell_length_b       4.90986
_cell_length_c       6.54173
_cell_angle_alpha    90
_cell_angle_beta     101.019
_cell_angle_gamma    90

_space_group_name_H-M_alt    "P 1"
_space_group_IT_number       1

loop_
  _space_group_symop_operation_xyz
  'x, y, z'

loop_
  _atom_site_type_symbol
  _atom_site_label
  _atom_site_symmetry_multiplicity
  _atom_site_fract_x
  _atom_site_fract_y
  _atom_site_fract_z
  _atom_site_occupancy
  H   H1        1.0  0.53200  0.25000  0.39600  1.0000
  H   H2        1.0  0.46800  0.75000  0.60400  1.0000
  K   K1        1.0  0.77000  0.75000  0.23800  1.0000
  K   K2        1.0  0.23000  0.25000  0.76200  1.0000
  S   S1        1.0  0.25700  0.25000  0.25400  1.0000
  S   S2        1.0  0.74300  0.75000  0.74600  1.0000
