data_image0
_chemical_formula_structural       B2Co10Si4
_chemical_formula_sum              "B2 Co10 Si4"
_cell_length_a       4.36883
_cell_length_b       6.45391
_cell_length_c       6.45391
_cell_angle_alpha    96.5781
_cell_angle_beta     70.2167
_cell_angle_gamma    109.783

_space_group_name_H-M_alt    "P 1"
_space_group_IT_number       1

loop_
  _space_group_symop_operation_xyz
  'x, y, z'

loop_
  _atom_site_type_symbol
  _atom_site_label
  _atom_site_symmetry_multiplicity
  _atom_site_fract_x
  _atom_site_fract_y
  _atom_site_fract_z
  _atom_site_occupancy
  B   B1        1.0  0.25000  0.00000  0.00000  1.0000
  B   B2        1.0  0.75000  0.00000  0.00000  1.0000
  Co  Co1       1.0  0.57300  0.27600  0.12900  1.0000
  Co  Co2       1.0  0.79700  0.72400  0.12900  1.0000
  Co  Co3       1.0  0.92700  0.12900  0.27600  1.0000
  Co  Co4       1.0  0.29700  0.87100  0.27600  1.0000
  Co  Co5       1.0  0.25000  0.50000  0.50000  1.0000
  Co  Co6       1.0  0.75000  0.50000  0.50000  1.0000
  Co  Co7       1.0  0.70300  0.12900  0.72400  1.0000
  Co  Co8       1.0  0.07340  0.87100  0.72400  1.0000
  Co  Co9       1.0  0.20300  0.27600  0.87100  1.0000
  Co  Co10      1.0  0.42700  0.72400  0.87100  1.0000
  Si  Si1       1.0  0.16700  0.50000  0.16600  1.0000
  Si  Si2       1.0  0.33300  0.16600  0.50000  1.0000
  Si  Si3       1.0  0.66700  0.83400  0.50000  1.0000
  Si  Si4       1.0  0.83300  0.50000  0.83400  1.0000
