data_image0
_chemical_formula_structural       Bi2Cu2Yb2
_chemical_formula_sum              "Bi2 Cu2 Yb2"
_cell_length_a       4.62685
_cell_length_b       4.62753
_cell_length_c       7.51643
_cell_angle_alpha    90
_cell_angle_beta     90
_cell_angle_gamma    119.995

_space_group_name_H-M_alt    "P 1"
_space_group_IT_number       1

loop_
  _space_group_symop_operation_xyz
  'x, y, z'

loop_
  _atom_site_type_symbol
  _atom_site_label
  _atom_site_symmetry_multiplicity
  _atom_site_fract_x
  _atom_site_fract_y
  _atom_site_fract_z
  _atom_site_occupancy
  Bi  Bi1       1.0  0.33300  0.66700  0.03160  1.0000
  Bi  Bi2       1.0  0.66700  0.33300  0.53200  1.0000
  Cu  Cu1       1.0  0.33300  0.66700  0.43400  1.0000
  Cu  Cu2       1.0  0.66700  0.33300  0.93400  1.0000
  Yb  Yb1       1.0  0.00006  0.00011  0.25900  1.0000
  Yb  Yb2       1.0  0.00000  0.00000  0.75900  1.0000
