data_image0
_chemical_formula_structural       Co4Si6Zr6
_chemical_formula_sum              "Co4 Si6 Zr6"
_cell_length_a       3.84572
_cell_length_b       5.37043
_cell_length_c       12.9332
_cell_angle_alpha    90
_cell_angle_beta     90
_cell_angle_gamma    110.98

_space_group_name_H-M_alt    "P 1"
_space_group_IT_number       1

loop_
  _space_group_symop_operation_xyz
  'x, y, z'

loop_
  _atom_site_type_symbol
  _atom_site_label
  _atom_site_symmetry_multiplicity
  _atom_site_fract_x
  _atom_site_fract_y
  _atom_site_fract_z
  _atom_site_occupancy
  Co  Co1       1.0  0.77900  0.55800  0.08070  1.0000
  Co  Co2       1.0  0.77900  0.55800  0.41900  1.0000
  Co  Co3       1.0  0.22100  0.44200  0.58100  1.0000
  Co  Co4       1.0  0.22100  0.44200  0.91900  1.0000
  Si  Si1       1.0  0.38900  0.77800  0.04220  1.0000
  Si  Si2       1.0  0.66600  0.33100  0.25000  1.0000
  Si  Si3       1.0  0.38900  0.77800  0.45800  1.0000
  Si  Si4       1.0  0.61100  0.22200  0.54200  1.0000
  Si  Si5       1.0  0.33400  0.66900  0.75000  1.0000
  Si  Si6       1.0  0.61100  0.22200  0.95800  1.0000
  Zr  Zr1       1.0  0.07570  0.15100  0.11600  1.0000
  Zr  Zr2       1.0  0.36400  0.72900  0.25000  1.0000
  Zr  Zr3       1.0  0.07570  0.15100  0.38400  1.0000
  Zr  Zr4       1.0  0.92400  0.84900  0.61600  1.0000
  Zr  Zr5       1.0  0.63600  0.27100  0.75000  1.0000
  Zr  Zr6       1.0  0.92400  0.84900  0.88400  1.0000
