data_image0
_chemical_formula_structural       Co2Si4Zr4
_chemical_formula_sum              "Co2 Si4 Zr4"
_cell_length_a       3.89892
_cell_length_b       5.33901
_cell_length_c       8.57255
_cell_angle_alpha    91.9829
_cell_angle_beta     103.144
_cell_angle_gamma    68.5841

_space_group_name_H-M_alt    "P 1"
_space_group_IT_number       1

loop_
  _space_group_symop_operation_xyz
  'x, y, z'

loop_
  _atom_site_type_symbol
  _atom_site_label
  _atom_site_symmetry_multiplicity
  _atom_site_fract_x
  _atom_site_fract_y
  _atom_site_fract_z
  _atom_site_occupancy
  Co  Co1       1.0  0.64900  0.07350  0.37200  1.0000
  Co  Co2       1.0  0.35100  0.92700  0.62800  1.0000
  Si  Si1       1.0  0.63700  0.84900  0.12300  1.0000
  Si  Si2       1.0  0.07530  0.28200  0.43200  1.0000
  Si  Si3       1.0  0.92500  0.71800  0.56800  1.0000
  Si  Si4       1.0  0.36300  0.15100  0.87700  1.0000
  Zr  Zr1       1.0  0.91600  0.27100  0.10300  1.0000
  Zr  Zr2       1.0  0.32700  0.67000  0.32400  1.0000
  Zr  Zr3       1.0  0.67300  0.33000  0.67600  1.0000
  Zr  Zr4       1.0  0.08380  0.72900  0.89700  1.0000
