data_image0
_chemical_formula_structural       Al18Co4
_chemical_formula_sum              "Al18 Co4"
_cell_length_a       8.54236
_cell_length_b       6.27442
_cell_length_c       6.19208
_cell_angle_alpha    90
_cell_angle_beta     94.9692
_cell_angle_gamma    90

_space_group_name_H-M_alt    "P 1"
_space_group_IT_number       1

loop_
  _space_group_symop_operation_xyz
  'x, y, z'

loop_
  _atom_site_type_symbol
  _atom_site_label
  _atom_site_symmetry_multiplicity
  _atom_site_fract_x
  _atom_site_fract_y
  _atom_site_fract_z
  _atom_site_occupancy
  Al  Al1       1.0  0.00000  0.00000  0.00000  1.0000
  Al  Al2       1.0  0.50000  0.50000  0.00000  1.0000
  Al  Al3       1.0  0.73000  0.21100  0.08760  1.0000
  Al  Al4       1.0  0.23000  0.28900  0.08760  1.0000
  Al  Al5       1.0  0.54400  0.88700  0.21500  1.0000
  Al  Al6       1.0  0.04360  0.61300  0.21500  1.0000
  Al  Al7       1.0  0.99700  0.19200  0.39100  1.0000
  Al  Al8       1.0  0.49700  0.30800  0.39100  1.0000
  Al  Al9       1.0  0.26700  0.96600  0.40600  1.0000
  Al  Al10      1.0  0.76700  0.53400  0.40600  1.0000
  Al  Al11      1.0  0.23300  0.46600  0.59400  1.0000
  Al  Al12      1.0  0.73300  0.03440  0.59400  1.0000
  Al  Al13      1.0  0.50300  0.69200  0.60900  1.0000
  Al  Al14      1.0  0.00282  0.80800  0.60900  1.0000
  Al  Al15      1.0  0.95600  0.38700  0.78500  1.0000
  Al  Al16      1.0  0.45600  0.11300  0.78500  1.0000
  Al  Al17      1.0  0.77000  0.71100  0.91200  1.0000
  Al  Al18      1.0  0.27000  0.78900  0.91200  1.0000
  Co  Co1       1.0  0.83300  0.88200  0.26400  1.0000
  Co  Co2       1.0  0.33300  0.61800  0.26400  1.0000
  Co  Co3       1.0  0.66700  0.38200  0.73600  1.0000
  Co  Co4       1.0  0.16700  0.11800  0.73600  1.0000
