data_image0
_chemical_formula_structural       Mo2Te4
_chemical_formula_sum              "Mo2 Te4"
_cell_length_a       3.55533
_cell_length_b       3.5552
_cell_length_c       14.2993
_cell_angle_alpha    90
_cell_angle_beta     90
_cell_angle_gamma    120.001

_space_group_name_H-M_alt    "P 1"
_space_group_IT_number       1

loop_
  _space_group_symop_operation_xyz
  'x, y, z'

loop_
  _atom_site_type_symbol
  _atom_site_label
  _atom_site_symmetry_multiplicity
  _atom_site_fract_x
  _atom_site_fract_y
  _atom_site_fract_z
  _atom_site_occupancy
  Mo  Mo1       1.0  0.33300  0.66700  0.25000  1.0000
  Mo  Mo2       1.0  0.66700  0.33300  0.75000  1.0000
  Te  Te1       1.0  0.66700  0.33300  0.12400  1.0000
  Te  Te2       1.0  0.66700  0.33300  0.37600  1.0000
  Te  Te3       1.0  0.33300  0.66700  0.62400  1.0000
  Te  Te4       1.0  0.33300  0.66700  0.87600  1.0000
