data_image0
_chemical_formula_structural       Ga10Mg4
_chemical_formula_sum              "Ga10 Mg4"
_cell_length_a       7.08646
_cell_length_b       7.08646
_cell_length_c       7.08646
_cell_angle_alpha    104.699
_cell_angle_beta     119.506
_cell_angle_gamma    104.699

_space_group_name_H-M_alt    "P 1"
_space_group_IT_number       1

loop_
  _space_group_symop_operation_xyz
  'x, y, z'

loop_
  _atom_site_type_symbol
  _atom_site_label
  _atom_site_symmetry_multiplicity
  _atom_site_fract_x
  _atom_site_fract_y
  _atom_site_fract_z
  _atom_site_occupancy
  Ga  Ga1       1.0  0.81800  0.29800  0.11600  1.0000
  Ga  Ga2       1.0  0.48000  0.29800  0.18200  1.0000
  Ga  Ga3       1.0  0.88400  0.70200  0.18200  1.0000
  Ga  Ga4       1.0  0.28900  0.00000  0.28900  1.0000
  Ga  Ga5       1.0  0.18200  0.29800  0.48000  1.0000
  Ga  Ga6       1.0  0.81800  0.70200  0.52000  1.0000
  Ga  Ga7       1.0  0.71100  0.00000  0.71100  1.0000
  Ga  Ga8       1.0  0.11600  0.29800  0.81800  1.0000
  Ga  Ga9       1.0  0.52000  0.70200  0.81800  1.0000
  Ga  Ga10      1.0  0.18200  0.70200  0.88400  1.0000
  Mg  Mg1       1.0  0.70000  0.00000  0.30000  1.0000
  Mg  Mg2       1.0  0.30000  0.60000  0.30000  1.0000
  Mg  Mg3       1.0  0.30000  0.00000  0.70000  1.0000
  Mg  Mg4       1.0  0.70000  0.40000  0.70000  1.0000
