data_image0
_chemical_formula_structural       Al4Ti2
_chemical_formula_sum              "Al4 Ti2"
_cell_length_a       3.93071
_cell_length_b       4.0024
_cell_length_c       6.37268
_cell_angle_alpha    90
_cell_angle_beta     107.963
_cell_angle_gamma    90

_space_group_name_H-M_alt    "P 1"
_space_group_IT_number       1

loop_
  _space_group_symop_operation_xyz
  'x, y, z'

loop_
  _atom_site_type_symbol
  _atom_site_label
  _atom_site_symmetry_multiplicity
  _atom_site_fract_x
  _atom_site_fract_y
  _atom_site_fract_z
  _atom_site_occupancy
  Al  Al1       1.0  0.00000  0.00000  0.00000  1.0000
  Al  Al2       1.0  0.50000  0.50000  0.00000  1.0000
  Al  Al3       1.0  0.17300  0.50000  0.34600  1.0000
  Al  Al4       1.0  0.82700  0.50000  0.65400  1.0000
  Ti  Ti1       1.0  0.65700  0.00000  0.31300  1.0000
  Ti  Ti2       1.0  0.34300  0.00000  0.68700  1.0000
