data_image0
_chemical_formula_structural       B4Ru2
_chemical_formula_sum              "B4 Ru2"
_cell_length_a       4.6654
_cell_length_b       2.87393
_cell_length_c       4.05623
_cell_angle_alpha    90
_cell_angle_beta     90
_cell_angle_gamma    90

_space_group_name_H-M_alt    "P 1"
_space_group_IT_number       1

loop_
  _space_group_symop_operation_xyz
  'x, y, z'

loop_
  _atom_site_type_symbol
  _atom_site_label
  _atom_site_symmetry_multiplicity
  _atom_site_fract_x
  _atom_site_fract_y
  _atom_site_fract_z
  _atom_site_occupancy
  B   B1        1.0  0.55500  0.75000  0.36300  1.0000
  B   B2        1.0  0.94500  0.75000  0.36300  1.0000
  B   B3        1.0  0.05480  0.25000  0.63700  1.0000
  B   B4        1.0  0.44500  0.25000  0.63700  1.0000
  Ru  Ru1       1.0  0.25000  0.25000  0.15100  1.0000
  Ru  Ru2       1.0  0.75000  0.75000  0.84900  1.0000
