data_image0
_chemical_formula_structural       Er8Re12Si20
_chemical_formula_sum              "Er8 Re12 Si20"
_cell_length_a       10.9754
_cell_length_b       10.9754
_cell_length_c       5.48264
_cell_angle_alpha    90
_cell_angle_beta     90
_cell_angle_gamma    90

_space_group_name_H-M_alt    "P 1"
_space_group_IT_number       1

loop_
  _space_group_symop_operation_xyz
  'x, y, z'

loop_
  _atom_site_type_symbol
  _atom_site_label
  _atom_site_symmetry_multiplicity
  _atom_site_fract_x
  _atom_site_fract_y
  _atom_site_fract_z
  _atom_site_occupancy
  Er  Er1       1.0  0.76300  0.07760  0.00000  1.0000
  Er  Er2       1.0  0.07760  0.23700  0.00000  1.0000
  Er  Er3       1.0  0.92200  0.76300  0.00000  1.0000
  Er  Er4       1.0  0.23700  0.92200  0.00000  1.0000
  Er  Er5       1.0  0.57800  0.26300  0.50000  1.0000
  Er  Er6       1.0  0.26300  0.42200  0.50000  1.0000
  Er  Er7       1.0  0.73700  0.57800  0.50000  1.0000
  Er  Er8       1.0  0.42200  0.73700  0.50000  1.0000
  Re  Re1       1.0  0.37700  0.35300  0.00000  1.0000
  Re  Re2       1.0  0.64700  0.37700  0.00000  1.0000
  Re  Re3       1.0  0.35300  0.62300  0.00000  1.0000
  Re  Re4       1.0  0.62300  0.64700  0.00000  1.0000
  Re  Re5       1.0  0.50000  0.00000  0.25000  1.0000
  Re  Re6       1.0  0.00000  0.50000  0.25000  1.0000
  Re  Re7       1.0  0.14700  0.12300  0.50000  1.0000
  Re  Re8       1.0  0.87700  0.14700  0.50000  1.0000
  Re  Re9       1.0  0.12300  0.85300  0.50000  1.0000
  Re  Re10      1.0  0.85300  0.87700  0.50000  1.0000
  Re  Re11      1.0  0.50000  0.00000  0.75000  1.0000
  Re  Re12      1.0  0.00000  0.50000  0.75000  1.0000
  Si  Si1       1.0  0.52900  0.18600  0.00000  1.0000
  Si  Si2       1.0  0.18600  0.47100  0.00000  1.0000
  Si  Si3       1.0  0.81400  0.52900  0.00000  1.0000
  Si  Si4       1.0  0.47100  0.81400  0.00000  1.0000
  Si  Si5       1.0  0.00000  0.00000  0.23900  1.0000
  Si  Si6       1.0  0.32700  0.17300  0.25000  1.0000
  Si  Si7       1.0  0.82700  0.32700  0.25000  1.0000
  Si  Si8       1.0  0.17300  0.67300  0.25000  1.0000
  Si  Si9       1.0  0.67300  0.82700  0.25000  1.0000
  Si  Si10      1.0  0.50000  0.50000  0.26100  1.0000
  Si  Si11      1.0  0.68600  0.02880  0.50000  1.0000
  Si  Si12      1.0  0.02880  0.31400  0.50000  1.0000
  Si  Si13      1.0  0.97100  0.68600  0.50000  1.0000
  Si  Si14      1.0  0.31400  0.97100  0.50000  1.0000
  Si  Si15      1.0  0.50000  0.50000  0.73900  1.0000
  Si  Si16      1.0  0.32700  0.17300  0.75000  1.0000
  Si  Si17      1.0  0.82700  0.32700  0.75000  1.0000
  Si  Si18      1.0  0.17300  0.67300  0.75000  1.0000
  Si  Si19      1.0  0.67300  0.82700  0.75000  1.0000
  Si  Si20      1.0  0.00000  0.00000  0.76100  1.0000
