data_image0
_chemical_formula_structural       Eu6Ge26Os8
_chemical_formula_sum              "Eu6 Ge26 Os8"
_cell_length_a       9.13532
_cell_length_b       9.13532
_cell_length_c       9.13532
_cell_angle_alpha    90
_cell_angle_beta     90
_cell_angle_gamma    90

_space_group_name_H-M_alt    "P 1"
_space_group_IT_number       1

loop_
  _space_group_symop_operation_xyz
  'x, y, z'

loop_
  _atom_site_type_symbol
  _atom_site_label
  _atom_site_symmetry_multiplicity
  _atom_site_fract_x
  _atom_site_fract_y
  _atom_site_fract_z
  _atom_site_occupancy
  Eu  Eu1       1.0  0.50000  0.25000  0.00000  1.0000
  Eu  Eu2       1.0  0.50000  0.75000  0.00000  1.0000
  Eu  Eu3       1.0  0.00000  0.50000  0.25000  1.0000
  Eu  Eu4       1.0  0.25000  0.00000  0.50000  1.0000
  Eu  Eu5       1.0  0.75000  0.00000  0.50000  1.0000
  Eu  Eu6       1.0  0.00000  0.50000  0.75000  1.0000
  Ge  Ge1       1.0  0.00000  0.00000  0.00000  1.0000
  Ge  Ge2       1.0  0.14500  0.29200  0.00000  1.0000
  Ge  Ge3       1.0  0.85500  0.29200  0.00000  1.0000
  Ge  Ge4       1.0  0.14500  0.70800  0.00000  1.0000
  Ge  Ge5       1.0  0.85500  0.70800  0.00000  1.0000
  Ge  Ge6       1.0  0.29200  0.00000  0.14500  1.0000
  Ge  Ge7       1.0  0.70800  0.00000  0.14500  1.0000
  Ge  Ge8       1.0  0.35500  0.50000  0.20800  1.0000
  Ge  Ge9       1.0  0.64500  0.50000  0.20800  1.0000
  Ge  Ge10      1.0  0.00000  0.14500  0.29200  1.0000
  Ge  Ge11      1.0  0.00000  0.85500  0.29200  1.0000
  Ge  Ge12      1.0  0.50000  0.20800  0.35500  1.0000
  Ge  Ge13      1.0  0.50000  0.79200  0.35500  1.0000
  Ge  Ge14      1.0  0.20800  0.35500  0.50000  1.0000
  Ge  Ge15      1.0  0.79200  0.35500  0.50000  1.0000
  Ge  Ge16      1.0  0.50000  0.50000  0.50000  1.0000
  Ge  Ge17      1.0  0.20800  0.64500  0.50000  1.0000
  Ge  Ge18      1.0  0.79200  0.64500  0.50000  1.0000
  Ge  Ge19      1.0  0.50000  0.20800  0.64500  1.0000
  Ge  Ge20      1.0  0.50000  0.79200  0.64500  1.0000
  Ge  Ge21      1.0  0.00000  0.14500  0.70800  1.0000
  Ge  Ge22      1.0  0.00000  0.85500  0.70800  1.0000
  Ge  Ge23      1.0  0.35500  0.50000  0.79200  1.0000
  Ge  Ge24      1.0  0.64500  0.50000  0.79200  1.0000
  Ge  Ge25      1.0  0.29200  0.00000  0.85500  1.0000
  Ge  Ge26      1.0  0.70800  0.00000  0.85500  1.0000
  Os  Os1       1.0  0.25000  0.25000  0.25000  1.0000
  Os  Os2       1.0  0.75000  0.25000  0.25000  1.0000
  Os  Os3       1.0  0.25000  0.75000  0.25000  1.0000
  Os  Os4       1.0  0.75000  0.75000  0.25000  1.0000
  Os  Os5       1.0  0.25000  0.25000  0.75000  1.0000
  Os  Os6       1.0  0.75000  0.25000  0.75000  1.0000
  Os  Os7       1.0  0.25000  0.75000  0.75000  1.0000
  Os  Os8       1.0  0.75000  0.75000  0.75000  1.0000
