data_image0
_chemical_formula_structural       Al16Co7Hf6
_chemical_formula_sum              "Al16 Co7 Hf6"
_cell_length_a       8.46065
_cell_length_b       8.46065
_cell_length_c       8.46065
_cell_angle_alpha    120
_cell_angle_beta     90
_cell_angle_gamma    120

_space_group_name_H-M_alt    "P 1"
_space_group_IT_number       1

loop_
  _space_group_symop_operation_xyz
  'x, y, z'

loop_
  _atom_site_type_symbol
  _atom_site_label
  _atom_site_symmetry_multiplicity
  _atom_site_fract_x
  _atom_site_fract_y
  _atom_site_fract_z
  _atom_site_occupancy
  Al  Al1       1.0  0.33500  0.67100  0.00611  1.0000
  Al  Al2       1.0  0.35500  0.23700  0.11800  1.0000
  Al  Al3       1.0  0.88200  0.23700  0.11800  1.0000
  Al  Al4       1.0  0.88200  0.76300  0.11800  1.0000
  Al  Al5       1.0  0.66500  0.32900  0.33500  1.0000
  Al  Al6       1.0  0.00611  0.67100  0.33500  1.0000
  Al  Al7       1.0  0.66500  0.67100  0.33500  1.0000
  Al  Al8       1.0  0.11800  0.23700  0.35500  1.0000
  Al  Al9       1.0  0.88200  0.76300  0.64500  1.0000
  Al  Al10      1.0  0.33500  0.32900  0.66500  1.0000
  Al  Al11      1.0  0.99400  0.32900  0.66500  1.0000
  Al  Al12      1.0  0.33500  0.67100  0.66500  1.0000
  Al  Al13      1.0  0.11800  0.23700  0.88200  1.0000
  Al  Al14      1.0  0.11800  0.76300  0.88200  1.0000
  Al  Al15      1.0  0.64500  0.76300  0.88200  1.0000
  Al  Al16      1.0  0.66500  0.32900  0.99400  1.0000
  Co  Co1       1.0  0.00000  0.00000  0.00000  1.0000
  Co  Co2       1.0  0.50000  0.00000  0.00000  1.0000
  Co  Co3       1.0  0.00000  0.50000  0.00000  1.0000
  Co  Co4       1.0  0.50000  0.50000  0.00000  1.0000
  Co  Co5       1.0  0.00000  0.00000  0.50000  1.0000
  Co  Co6       1.0  0.00000  0.50000  0.50000  1.0000
  Co  Co7       1.0  0.50000  0.50000  0.50000  1.0000
  Hf  Hf1       1.0  0.69200  0.00000  0.30800  1.0000
  Hf  Hf2       1.0  0.30800  0.00000  0.30800  1.0000
  Hf  Hf3       1.0  0.30800  0.61700  0.30800  1.0000
  Hf  Hf4       1.0  0.30800  0.00000  0.69200  1.0000
  Hf  Hf5       1.0  0.69200  0.00000  0.69200  1.0000
  Hf  Hf6       1.0  0.69200  0.38300  0.69200  1.0000
