data_image0
_chemical_formula_structural       Ag6O24P6Tl4
_chemical_formula_sum              "Ag6 O24 P6 Tl4"
_cell_length_a       6.68945
_cell_length_b       9.18556
_cell_length_c       9.18556
_cell_angle_alpha    89.6864
_cell_angle_beta     106.882
_cell_angle_gamma    73.1179

_space_group_name_H-M_alt    "P 1"
_space_group_IT_number       1

loop_
  _space_group_symop_operation_xyz
  'x, y, z'

loop_
  _atom_site_type_symbol
  _atom_site_label
  _atom_site_symmetry_multiplicity
  _atom_site_fract_x
  _atom_site_fract_y
  _atom_site_fract_z
  _atom_site_occupancy
  Ag  Ag1       1.0  0.25000  0.00175  0.00175  1.0000
  Ag  Ag2       1.0  0.75000  0.28600  0.28600  1.0000
  Ag  Ag3       1.0  0.50000  0.50000  0.50000  1.0000
  Ag  Ag4       1.0  0.00000  0.50000  0.50000  1.0000
  Ag  Ag5       1.0  0.25000  0.71400  0.71400  1.0000
  Ag  Ag6       1.0  0.75000  0.99800  0.99800  1.0000
  O   O1        1.0  0.42600  0.66500  0.00544  1.0000
  O   O2        1.0  0.83600  0.58300  0.07630  1.0000
  O   O3        1.0  0.04450  0.25200  0.14400  1.0000
  O   O4        1.0  0.63500  0.83400  0.15300  1.0000
  O   O5        1.0  0.13500  0.84700  0.16600  1.0000
  O   O6        1.0  0.45500  0.14400  0.25200  1.0000
  O   O7        1.0  0.29800  0.42400  0.26000  1.0000
  O   O8        1.0  0.65400  0.58400  0.28700  1.0000
  O   O9        1.0  0.92600  0.99500  0.33500  1.0000
  O   O10       1.0  0.15400  0.71300  0.41600  1.0000
  O   O11       1.0  0.33600  0.92400  0.41700  1.0000
  O   O12       1.0  0.20200  0.26000  0.42400  1.0000
  O   O13       1.0  0.79800  0.74000  0.57600  1.0000
  O   O14       1.0  0.66400  0.07630  0.58300  1.0000
  O   O15       1.0  0.84600  0.28700  0.58400  1.0000
  O   O16       1.0  0.07400  0.00544  0.66500  1.0000
  O   O17       1.0  0.34600  0.41600  0.71300  1.0000
  O   O18       1.0  0.70200  0.57600  0.74000  1.0000
  O   O19       1.0  0.54500  0.85600  0.74800  1.0000
  O   O20       1.0  0.86500  0.15300  0.83400  1.0000
  O   O21       1.0  0.36500  0.16600  0.84700  1.0000
  O   O22       1.0  0.95500  0.74800  0.85600  1.0000
  O   O23       1.0  0.16400  0.41700  0.92400  1.0000
  O   O24       1.0  0.57400  0.33500  0.99500  1.0000
  P   P1        1.0  0.63800  0.66300  0.13500  1.0000
  P   P2        1.0  0.25000  0.26700  0.26700  1.0000
  P   P3        1.0  0.13800  0.86500  0.33700  1.0000
  P   P4        1.0  0.86200  0.13500  0.66300  1.0000
  P   P5        1.0  0.75000  0.73300  0.73300  1.0000
  P   P6        1.0  0.36200  0.33700  0.86500  1.0000
  Tl  Tl1       1.0  0.16600  0.61600  0.08290  1.0000
  Tl  Tl2       1.0  0.66600  0.91700  0.38400  1.0000
  Tl  Tl3       1.0  0.33400  0.08290  0.61600  1.0000
  Tl  Tl4       1.0  0.83400  0.38400  0.91700  1.0000
