data_image0
_chemical_formula_structural       Ca2Cu6Ga4O24Ta4
_chemical_formula_sum              "Ca2 Cu6 Ga4 O24 Ta4"
_cell_length_a       7.4676
_cell_length_b       7.4676
_cell_length_c       7.4676
_cell_angle_alpha    90
_cell_angle_beta     90
_cell_angle_gamma    90

_space_group_name_H-M_alt    "P 1"
_space_group_IT_number       1

loop_
  _space_group_symop_operation_xyz
  'x, y, z'

loop_
  _atom_site_type_symbol
  _atom_site_label
  _atom_site_symmetry_multiplicity
  _atom_site_fract_x
  _atom_site_fract_y
  _atom_site_fract_z
  _atom_site_occupancy
  Ca  Ca1       1.0  0.25000  0.25000  0.25000  1.0000
  Ca  Ca2       1.0  0.75000  0.75000  0.75000  1.0000
  Cu  Cu1       1.0  0.75000  0.25000  0.25000  1.0000
  Cu  Cu2       1.0  0.25000  0.75000  0.25000  1.0000
  Cu  Cu3       1.0  0.75000  0.75000  0.25000  1.0000
  Cu  Cu4       1.0  0.25000  0.25000  0.75000  1.0000
  Cu  Cu5       1.0  0.75000  0.25000  0.75000  1.0000
  Cu  Cu6       1.0  0.25000  0.75000  0.75000  1.0000
  Ga  Ga1       1.0  0.00000  0.00000  0.00000  1.0000
  Ga  Ga2       1.0  0.50000  0.50000  0.00000  1.0000
  Ga  Ga3       1.0  0.50000  0.00000  0.50000  1.0000
  Ga  Ga4       1.0  0.00000  0.50000  0.50000  1.0000
  O   O1        1.0  0.75000  0.57400  0.05450  1.0000
  O   O2        1.0  0.75000  0.92600  0.05450  1.0000
  O   O3        1.0  0.94500  0.25000  0.07360  1.0000
  O   O4        1.0  0.55500  0.25000  0.07360  1.0000
  O   O5        1.0  0.42600  0.55500  0.25000  1.0000
  O   O6        1.0  0.07360  0.94500  0.25000  1.0000
  O   O7        1.0  0.07360  0.55500  0.25000  1.0000
  O   O8        1.0  0.42600  0.94500  0.25000  1.0000
  O   O9        1.0  0.55500  0.25000  0.42600  1.0000
  O   O10       1.0  0.94500  0.25000  0.42600  1.0000
  O   O11       1.0  0.75000  0.57400  0.44500  1.0000
  O   O12       1.0  0.75000  0.92600  0.44500  1.0000
  O   O13       1.0  0.25000  0.07360  0.55500  1.0000
  O   O14       1.0  0.25000  0.42600  0.55500  1.0000
  O   O15       1.0  0.05450  0.75000  0.57400  1.0000
  O   O16       1.0  0.44500  0.75000  0.57400  1.0000
  O   O17       1.0  0.57400  0.05450  0.75000  1.0000
  O   O18       1.0  0.92600  0.44500  0.75000  1.0000
  O   O19       1.0  0.92600  0.05450  0.75000  1.0000
  O   O20       1.0  0.57400  0.44500  0.75000  1.0000
  O   O21       1.0  0.44500  0.75000  0.92600  1.0000
  O   O22       1.0  0.05450  0.75000  0.92600  1.0000
  O   O23       1.0  0.25000  0.07360  0.94500  1.0000
  O   O24       1.0  0.25000  0.42600  0.94500  1.0000
  Ta  Ta1       1.0  0.50000  0.00000  0.00000  1.0000
  Ta  Ta2       1.0  0.00000  0.50000  0.00000  1.0000
  Ta  Ta3       1.0  0.00000  0.00000  0.50000  1.0000
  Ta  Ta4       1.0  0.50000  0.50000  0.50000  1.0000
