data_image0
_chemical_formula_structural       Na6Si34
_chemical_formula_sum              "Na6 Si34"
_cell_length_a       10.4264
_cell_length_b       10.4264
_cell_length_c       10.4264
_cell_angle_alpha    120
_cell_angle_beta     90
_cell_angle_gamma    120

_space_group_name_H-M_alt    "P 1"
_space_group_IT_number       1

loop_
  _space_group_symop_operation_xyz
  'x, y, z'

loop_
  _atom_site_type_symbol
  _atom_site_label
  _atom_site_symmetry_multiplicity
  _atom_site_fract_x
  _atom_site_fract_y
  _atom_site_fract_z
  _atom_site_occupancy
  Na  Na1       1.0  0.00000  0.00000  0.00000  1.0000
  Na  Na2       1.0  0.37500  0.75000  0.12500  1.0000
  Na  Na3       1.0  0.00000  0.00000  0.50000  1.0000
  Na  Na4       1.0  0.00000  0.50000  0.50000  1.0000
  Na  Na5       1.0  0.50000  0.50000  0.50000  1.0000
  Na  Na6       1.0  0.62500  0.25000  0.87500  1.0000
  Si  Si1       1.0  0.99400  0.36500  0.12900  1.0000
  Si  Si2       1.0  0.99400  0.75700  0.12900  1.0000
  Si  Si3       1.0  0.37100  0.13500  0.12900  1.0000
  Si  Si4       1.0  0.37100  0.36500  0.12900  1.0000
  Si  Si5       1.0  0.76400  0.13500  0.12900  1.0000
  Si  Si6       1.0  0.76400  0.75700  0.12900  1.0000
  Si  Si7       1.0  0.62900  0.25700  0.26400  1.0000
  Si  Si8       1.0  0.00617  0.63500  0.26400  1.0000
  Si  Si9       1.0  0.62900  0.63500  0.26400  1.0000
  Si  Si10      1.0  0.21800  0.06390  0.28200  1.0000
  Si  Si11      1.0  0.84600  0.06390  0.28200  1.0000
  Si  Si12      1.0  0.21800  0.43600  0.28200  1.0000
  Si  Si13      1.0  0.78200  0.56400  0.34600  1.0000
  Si  Si14      1.0  0.12500  0.25000  0.37500  1.0000
  Si  Si15      1.0  0.62900  0.25700  0.49400  1.0000
  Si  Si16      1.0  0.23600  0.86500  0.49400  1.0000
  Si  Si17      1.0  0.62900  0.86500  0.49400  1.0000
  Si  Si18      1.0  0.37100  0.13500  0.50600  1.0000
  Si  Si19      1.0  0.76400  0.13500  0.50600  1.0000
  Si  Si20      1.0  0.37100  0.74300  0.50600  1.0000
  Si  Si21      1.0  0.87500  0.75000  0.62500  1.0000
  Si  Si22      1.0  0.21800  0.43600  0.65400  1.0000
  Si  Si23      1.0  0.78200  0.56400  0.71800  1.0000
  Si  Si24      1.0  0.78200  0.93600  0.71800  1.0000
  Si  Si25      1.0  0.15400  0.93600  0.71800  1.0000
  Si  Si26      1.0  0.37100  0.36500  0.73600  1.0000
  Si  Si27      1.0  0.99400  0.36500  0.73600  1.0000
  Si  Si28      1.0  0.37100  0.74300  0.73600  1.0000
  Si  Si29      1.0  0.00617  0.24300  0.87100  1.0000
  Si  Si30      1.0  0.23600  0.24300  0.87100  1.0000
  Si  Si31      1.0  0.62900  0.63500  0.87100  1.0000
  Si  Si32      1.0  0.62900  0.86500  0.87100  1.0000
  Si  Si33      1.0  0.00617  0.63500  0.87100  1.0000
  Si  Si34      1.0  0.23600  0.86500  0.87100  1.0000
