data_image0
_chemical_formula_structural       As12Ga4Na24
_chemical_formula_sum              "As12 Ga4 Na24"
_cell_length_a       8.17824
_cell_length_b       8.23004
_cell_length_c       17.2873
_cell_angle_alpha    94.1457
_cell_angle_beta     95.1747
_cell_angle_gamma    119.665

_space_group_name_H-M_alt    "P 1"
_space_group_IT_number       1

loop_
  _space_group_symop_operation_xyz
  'x, y, z'

loop_
  _atom_site_type_symbol
  _atom_site_label
  _atom_site_symmetry_multiplicity
  _atom_site_fract_x
  _atom_site_fract_y
  _atom_site_fract_z
  _atom_site_occupancy
  As  As1       1.0  0.69600  0.50200  0.11800  1.0000
  As  As2       1.0  0.99200  0.18400  0.11800  1.0000
  As  As3       1.0  0.40900  0.91700  0.13000  1.0000
  As  As4       1.0  0.44500  0.32200  0.37100  1.0000
  As  As5       1.0  0.14900  0.61400  0.38000  1.0000
  As  As6       1.0  0.76500  0.91200  0.38200  1.0000
  As  As7       1.0  0.23500  0.08810  0.61800  1.0000
  As  As8       1.0  0.85100  0.38600  0.62000  1.0000
  As  As9       1.0  0.55500  0.67800  0.62900  1.0000
  As  As10      1.0  0.59100  0.08300  0.87000  1.0000
  As  As11      1.0  0.00773  0.81600  0.88200  1.0000
  As  As12      1.0  0.30400  0.49800  0.88200  1.0000
  Ga  Ga1       1.0  0.71000  0.21200  0.12500  1.0000
  Ga  Ga2       1.0  0.45300  0.62600  0.37500  1.0000
  Ga  Ga3       1.0  0.54700  0.37400  0.62500  1.0000
  Ga  Ga4       1.0  0.29000  0.78800  0.87500  1.0000
  Na  Na1       1.0  0.62800  0.87400  0.00232  1.0000
  Na  Na2       1.0  0.30700  0.51900  0.05730  1.0000
  Na  Na3       1.0  0.02230  0.83300  0.06820  1.0000
  Na  Na4       1.0  0.36600  0.25100  0.19500  1.0000
  Na  Na5       1.0  0.10200  0.58100  0.19700  1.0000
  Na  Na6       1.0  0.71000  0.84700  0.19900  1.0000
  Na  Na7       1.0  0.78700  0.57300  0.30200  1.0000
  Na  Na8       1.0  0.04570  0.23200  0.30200  1.0000
  Na  Na9       1.0  0.44900  0.97200  0.30500  1.0000
  Na  Na10      1.0  0.16300  0.97500  0.43200  1.0000
  Na  Na11      1.0  0.77000  0.27000  0.44300  1.0000
  Na  Na12      1.0  0.75400  0.62700  0.49900  1.0000
  Na  Na13      1.0  0.24600  0.37300  0.50100  1.0000
  Na  Na14      1.0  0.23000  0.73000  0.55700  1.0000
  Na  Na15      1.0  0.83700  0.02470  0.56800  1.0000
  Na  Na16      1.0  0.55100  0.02830  0.69500  1.0000
  Na  Na17      1.0  0.95400  0.76800  0.69800  1.0000
  Na  Na18      1.0  0.21300  0.42700  0.69800  1.0000
  Na  Na19      1.0  0.29000  0.15300  0.80100  1.0000
  Na  Na20      1.0  0.89800  0.41900  0.80300  1.0000
  Na  Na21      1.0  0.63400  0.74900  0.80500  1.0000
  Na  Na22      1.0  0.97800  0.16700  0.93200  1.0000
  Na  Na23      1.0  0.69300  0.48100  0.94300  1.0000
  Na  Na24      1.0  0.37200  0.12600  0.99800  1.0000
