data_image0
_chemical_formula_structural       Cd8K2O24V6
_chemical_formula_sum              "Cd8 K2 O24 V6"
_cell_length_a       7.06534
_cell_length_b       9.31979
_cell_length_c       9.31979
_cell_angle_alpha    92.4525
_cell_angle_beta     106.646
_cell_angle_gamma    106.646

_space_group_name_H-M_alt    "P 1"
_space_group_IT_number       1

loop_
  _space_group_symop_operation_xyz
  'x, y, z'

loop_
  _atom_site_type_symbol
  _atom_site_label
  _atom_site_symmetry_multiplicity
  _atom_site_fract_x
  _atom_site_fract_y
  _atom_site_fract_z
  _atom_site_occupancy
  Cd  Cd1       1.0  0.00000  0.00000  0.00000  1.0000
  Cd  Cd2       1.0  0.50000  0.00000  0.00000  1.0000
  Cd  Cd3       1.0  0.85300  0.43700  0.12100  1.0000
  Cd  Cd4       1.0  0.75000  0.76800  0.23200  1.0000
  Cd  Cd5       1.0  0.35300  0.12100  0.43700  1.0000
  Cd  Cd6       1.0  0.64700  0.87900  0.56300  1.0000
  Cd  Cd7       1.0  0.25000  0.23200  0.76800  1.0000
  Cd  Cd8       1.0  0.14700  0.56300  0.87900  1.0000
  K   K1        1.0  0.25000  0.52700  0.47300  1.0000
  K   K2        1.0  0.75000  0.47300  0.52700  1.0000
  O   O1        1.0  0.27100  0.78300  0.02430  1.0000
  O   O2        1.0  0.29700  0.20700  0.02520  1.0000
  O   O3        1.0  0.17600  0.46100  0.10400  1.0000
  O   O4        1.0  0.59900  0.51000  0.16800  1.0000
  O   O5        1.0  0.79700  0.02520  0.20700  1.0000
  O   O6        1.0  0.22900  0.97600  0.21700  1.0000
  O   O7        1.0  0.02870  0.67900  0.23700  1.0000
  O   O8        1.0  0.47100  0.76300  0.32100  1.0000
  O   O9        1.0  0.87800  0.33400  0.33300  1.0000
  O   O10       1.0  0.37800  0.33300  0.33400  1.0000
  O   O11       1.0  0.67600  0.10400  0.46100  1.0000
  O   O12       1.0  0.90100  0.83200  0.49000  1.0000
  O   O13       1.0  0.09870  0.16800  0.51000  1.0000
  O   O14       1.0  0.32400  0.89600  0.53900  1.0000
  O   O15       1.0  0.62200  0.66700  0.66600  1.0000
  O   O16       1.0  0.12200  0.66600  0.66700  1.0000
  O   O17       1.0  0.52900  0.23700  0.67900  1.0000
  O   O18       1.0  0.97100  0.32100  0.76300  1.0000
  O   O19       1.0  0.77100  0.02430  0.78300  1.0000
  O   O20       1.0  0.20300  0.97500  0.79300  1.0000
  O   O21       1.0  0.40100  0.49000  0.83200  1.0000
  O   O22       1.0  0.82400  0.53900  0.89600  1.0000
  O   O23       1.0  0.70300  0.79300  0.97500  1.0000
  O   O24       1.0  0.72900  0.21700  0.97600  1.0000
  V   V1        1.0  0.36400  0.37400  0.15500  1.0000
  V   V2        1.0  0.25000  0.79300  0.20700  1.0000
  V   V3        1.0  0.86400  0.15500  0.37400  1.0000
  V   V4        1.0  0.13600  0.84500  0.62600  1.0000
  V   V5        1.0  0.75000  0.20700  0.79300  1.0000
  V   V6        1.0  0.63600  0.62600  0.84500  1.0000
