data_image0
_chemical_formula_structural       Ga4Na24P12
_chemical_formula_sum              "Ga4 Na24 P12"
_cell_length_a       7.94454
_cell_length_b       7.98393
_cell_length_c       16.8678
_cell_angle_alpha    94.1598
_cell_angle_beta     95.0376
_cell_angle_gamma    119.647

_space_group_name_H-M_alt    "P 1"
_space_group_IT_number       1

loop_
  _space_group_symop_operation_xyz
  'x, y, z'

loop_
  _atom_site_type_symbol
  _atom_site_label
  _atom_site_symmetry_multiplicity
  _atom_site_fract_x
  _atom_site_fract_y
  _atom_site_fract_z
  _atom_site_occupancy
  Ga  Ga1       1.0  0.71100  0.21300  0.12500  1.0000
  Ga  Ga2       1.0  0.45400  0.62800  0.37500  1.0000
  Ga  Ga3       1.0  0.54600  0.37200  0.62500  1.0000
  Ga  Ga4       1.0  0.28900  0.78700  0.87500  1.0000
  Na  Na1       1.0  0.62900  0.87300  0.00241  1.0000
  Na  Na2       1.0  0.30200  0.52100  0.05580  1.0000
  Na  Na3       1.0  0.02410  0.83500  0.06960  1.0000
  Na  Na4       1.0  0.36400  0.25400  0.19500  1.0000
  Na  Na5       1.0  0.10700  0.58600  0.19800  1.0000
  Na  Na6       1.0  0.71000  0.84400  0.19800  1.0000
  Na  Na7       1.0  0.79000  0.57300  0.30200  1.0000
  Na  Na8       1.0  0.04290  0.23200  0.30300  1.0000
  Na  Na9       1.0  0.45200  0.97800  0.30400  1.0000
  Na  Na10      1.0  0.16300  0.97700  0.43000  1.0000
  Na  Na11      1.0  0.76400  0.26600  0.44500  1.0000
  Na  Na12      1.0  0.75600  0.62800  0.49900  1.0000
  Na  Na13      1.0  0.24400  0.37200  0.50100  1.0000
  Na  Na14      1.0  0.23600  0.73400  0.55500  1.0000
  Na  Na15      1.0  0.83700  0.02300  0.57000  1.0000
  Na  Na16      1.0  0.54800  0.02160  0.69600  1.0000
  Na  Na17      1.0  0.95700  0.76800  0.69700  1.0000
  Na  Na18      1.0  0.21000  0.42700  0.69800  1.0000
  Na  Na19      1.0  0.29000  0.15600  0.80200  1.0000
  Na  Na20      1.0  0.89300  0.41400  0.80200  1.0000
  Na  Na21      1.0  0.63600  0.74600  0.80500  1.0000
  Na  Na22      1.0  0.97600  0.16500  0.93000  1.0000
  Na  Na23      1.0  0.69800  0.47900  0.94400  1.0000
  Na  Na24      1.0  0.37100  0.12700  0.99800  1.0000
  P   P1        1.0  0.98900  0.18600  0.11800  1.0000
  P   P2        1.0  0.69900  0.50000  0.11900  1.0000
  P   P3        1.0  0.41400  0.92200  0.13000  1.0000
  P   P4        1.0  0.44500  0.32800  0.37100  1.0000
  P   P5        1.0  0.15500  0.61800  0.37900  1.0000
  P   P6        1.0  0.76200  0.91000  0.38200  1.0000
  P   P7        1.0  0.23800  0.09020  0.61800  1.0000
  P   P8        1.0  0.84500  0.38200  0.62100  1.0000
  P   P9        1.0  0.55500  0.67200  0.62900  1.0000
  P   P10       1.0  0.58600  0.07760  0.87000  1.0000
  P   P11       1.0  0.30100  0.50000  0.88100  1.0000
  P   P12       1.0  0.01060  0.81400  0.88200  1.0000
