data_image0
_chemical_formula_structural       S4Sr2
_chemical_formula_sum              "S4 Sr2"
_cell_length_a       5.7887
_cell_length_b       5.7887
_cell_length_c       5.7887
_cell_angle_alpha    97.0122
_cell_angle_beta     116.037
_cell_angle_gamma    116.037

_space_group_name_H-M_alt    "P 1"
_space_group_IT_number       1

loop_
  _space_group_symop_operation_xyz
  'x, y, z'

loop_
  _atom_site_type_symbol
  _atom_site_label
  _atom_site_symmetry_multiplicity
  _atom_site_fract_x
  _atom_site_fract_y
  _atom_site_fract_z
  _atom_site_occupancy
  S   S1        1.0  0.50000  0.37800  0.12200  1.0000
  S   S2        1.0  0.25600  0.87800  0.37800  1.0000
  S   S3        1.0  0.74400  0.12200  0.62200  1.0000
  S   S4        1.0  0.50000  0.62200  0.87800  1.0000
  Sr  Sr1       1.0  0.00000  0.25000  0.25000  1.0000
  Sr  Sr2       1.0  0.00000  0.75000  0.75000  1.0000
