data_image0
_chemical_formula_structural       Nb4O28P8
_chemical_formula_sum              "Nb4 O28 P8"
_cell_length_a       8.34012
_cell_length_b       8.34012
_cell_length_c       8.34012
_cell_angle_alpha    90
_cell_angle_beta     90
_cell_angle_gamma    90

_space_group_name_H-M_alt    "P 1"
_space_group_IT_number       1

loop_
  _space_group_symop_operation_xyz
  'x, y, z'

loop_
  _atom_site_type_symbol
  _atom_site_label
  _atom_site_symmetry_multiplicity
  _atom_site_fract_x
  _atom_site_fract_y
  _atom_site_fract_z
  _atom_site_occupancy
  Nb  Nb1       1.0  0.00000  0.00000  0.00000  1.0000
  Nb  Nb2       1.0  0.50000  0.50000  0.00000  1.0000
  Nb  Nb3       1.0  0.50000  0.00000  0.50000  1.0000
  Nb  Nb4       1.0  0.00000  0.50000  0.50000  1.0000
  O   O1        1.0  0.50000  0.00000  0.00000  1.0000
  O   O2        1.0  0.00000  0.50000  0.00000  1.0000
  O   O3        1.0  0.71900  0.41200  0.05580  1.0000
  O   O4        1.0  0.78100  0.91200  0.05580  1.0000
  O   O5        1.0  0.94400  0.21900  0.08760  1.0000
  O   O6        1.0  0.55600  0.71900  0.08760  1.0000
  O   O7        1.0  0.41200  0.44400  0.21900  1.0000
  O   O8        1.0  0.08760  0.94400  0.21900  1.0000
  O   O9        1.0  0.91200  0.44400  0.28100  1.0000
  O   O10       1.0  0.58800  0.94400  0.28100  1.0000
  O   O11       1.0  0.44400  0.21900  0.41200  1.0000
  O   O12       1.0  0.05580  0.71900  0.41200  1.0000
  O   O13       1.0  0.21900  0.41200  0.44400  1.0000
  O   O14       1.0  0.28100  0.91200  0.44400  1.0000
  O   O15       1.0  0.00000  0.00000  0.50000  1.0000
  O   O16       1.0  0.50000  0.50000  0.50000  1.0000
  O   O17       1.0  0.71900  0.08760  0.55600  1.0000
  O   O18       1.0  0.78100  0.58800  0.55600  1.0000
  O   O19       1.0  0.94400  0.28100  0.58800  1.0000
  O   O20       1.0  0.55600  0.78100  0.58800  1.0000
  O   O21       1.0  0.41200  0.05580  0.71900  1.0000
  O   O22       1.0  0.08760  0.55600  0.71900  1.0000
  O   O23       1.0  0.91200  0.05580  0.78100  1.0000
  O   O24       1.0  0.58800  0.55600  0.78100  1.0000
  O   O25       1.0  0.44400  0.28100  0.91200  1.0000
  O   O26       1.0  0.05580  0.78100  0.91200  1.0000
  O   O27       1.0  0.21900  0.08760  0.94400  1.0000
  O   O28       1.0  0.28100  0.58800  0.94400  1.0000
  P   P1        1.0  0.89000  0.39000  0.11000  1.0000
  P   P2        1.0  0.61000  0.89000  0.11000  1.0000
  P   P3        1.0  0.39000  0.39000  0.39000  1.0000
  P   P4        1.0  0.11000  0.89000  0.39000  1.0000
  P   P5        1.0  0.89000  0.11000  0.61000  1.0000
  P   P6        1.0  0.61000  0.61000  0.61000  1.0000
  P   P7        1.0  0.39000  0.11000  0.89000  1.0000
  P   P8        1.0  0.11000  0.61000  0.89000  1.0000
