data_image0
_chemical_formula_structural       Al2Ca2Fe2Na2O24Si8
_chemical_formula_sum              "Al2 Ca2 Fe2 Na2 O24 Si8"
_cell_length_a       9.59447
_cell_length_b       8.74977
_cell_length_c       5.2733
_cell_angle_alpha    90
_cell_angle_beta     106.835
_cell_angle_gamma    90

_space_group_name_H-M_alt    "P 1"
_space_group_IT_number       1

loop_
  _space_group_symop_operation_xyz
  'x, y, z'

loop_
  _atom_site_type_symbol
  _atom_site_label
  _atom_site_symmetry_multiplicity
  _atom_site_fract_x
  _atom_site_fract_y
  _atom_site_fract_z
  _atom_site_occupancy
  Al  Al1       1.0  0.25000  0.15000  0.25000  1.0000
  Al  Al2       1.0  0.75000  0.85000  0.75000  1.0000
  Ca  Ca1       1.0  0.25000  0.54800  0.25000  1.0000
  Ca  Ca2       1.0  0.75000  0.45200  0.75000  1.0000
  Fe  Fe1       1.0  0.75000  0.66200  0.25000  1.0000
  Fe  Fe2       1.0  0.25000  0.33800  0.75000  1.0000
  Na  Na1       1.0  0.75000  0.05080  0.25000  1.0000
  Na  Na2       1.0  0.25000  0.94900  0.75000  1.0000
  O   O1        1.0  0.40300  0.73800  0.00248  1.0000
  O   O2        1.0  0.11100  0.76800  0.01090  1.0000
  O   O3        1.0  0.86400  0.84200  0.11700  1.0000
  O   O4        1.0  0.36200  0.32200  0.16300  1.0000
  O   O5        1.0  0.38500  0.01340  0.18600  1.0000
  O   O6        1.0  0.89600  0.50200  0.18600  1.0000
  O   O7        1.0  0.60400  0.50200  0.31400  1.0000
  O   O8        1.0  0.11500  0.01340  0.31400  1.0000
  O   O9        1.0  0.13800  0.32200  0.33700  1.0000
  O   O10       1.0  0.63600  0.84200  0.38300  1.0000
  O   O11       1.0  0.38900  0.76800  0.48900  1.0000
  O   O12       1.0  0.09740  0.73800  0.49800  1.0000
  O   O13       1.0  0.90300  0.26200  0.50200  1.0000
  O   O14       1.0  0.61100  0.23200  0.51100  1.0000
  O   O15       1.0  0.36400  0.15800  0.61700  1.0000
  O   O16       1.0  0.86200  0.67800  0.66300  1.0000
  O   O17       1.0  0.88500  0.98700  0.68600  1.0000
  O   O18       1.0  0.39600  0.49800  0.68600  1.0000
  O   O19       1.0  0.10400  0.49800  0.81400  1.0000
  O   O20       1.0  0.61500  0.98700  0.81400  1.0000
  O   O21       1.0  0.63800  0.67800  0.83700  1.0000
  O   O22       1.0  0.13600  0.15800  0.88300  1.0000
  O   O23       1.0  0.88900  0.23200  0.98900  1.0000
  O   O24       1.0  0.59700  0.26200  0.99800  1.0000
  Si  Si1       1.0  0.04000  0.85100  0.23000  1.0000
  Si  Si2       1.0  0.53800  0.33500  0.23600  1.0000
  Si  Si3       1.0  0.96200  0.33500  0.26400  1.0000
  Si  Si4       1.0  0.46000  0.85100  0.27000  1.0000
  Si  Si5       1.0  0.54000  0.14900  0.73000  1.0000
  Si  Si6       1.0  0.03820  0.66500  0.73600  1.0000
  Si  Si7       1.0  0.46200  0.66500  0.76400  1.0000
  Si  Si8       1.0  0.96000  0.14900  0.77000  1.0000
