data_image0
_chemical_formula_structural       Na2P2Sn2
_chemical_formula_sum              "Na2 P2 Sn2"
_cell_length_a       3.90346
_cell_length_b       3.90351
_cell_length_c       11.7153
_cell_angle_alpha    90
_cell_angle_beta     90
_cell_angle_gamma    120

_space_group_name_H-M_alt    "P 1"
_space_group_IT_number       1

loop_
  _space_group_symop_operation_xyz
  'x, y, z'

loop_
  _atom_site_type_symbol
  _atom_site_label
  _atom_site_symmetry_multiplicity
  _atom_site_fract_x
  _atom_site_fract_y
  _atom_site_fract_z
  _atom_site_occupancy
  Na  Na1       1.0  0.33300  0.66700  0.27900  1.0000
  Na  Na2       1.0  0.66700  0.33300  0.77900  1.0000
  P   P1        1.0  0.66700  0.33300  0.11300  1.0000
  P   P2        1.0  0.33300  0.66700  0.61300  1.0000
  Sn  Sn1       1.0  0.00001  0.00002  0.99900  1.0000
  Sn  Sn2       1.0  0.00000  0.00000  0.49900  1.0000
