data_image0
_chemical_formula_structural       Cu2EuSn2
_chemical_formula_sum              "Cu2 Eu1 Sn2"
_cell_length_a       4.29171
_cell_length_b       4.85682
_cell_length_c       5.89936
_cell_angle_alpha    107.577
_cell_angle_beta     111.33
_cell_angle_gamma    90

_space_group_name_H-M_alt    "P 1"
_space_group_IT_number       1

loop_
  _space_group_symop_operation_xyz
  'x, y, z'

loop_
  _atom_site_type_symbol
  _atom_site_label
  _atom_site_symmetry_multiplicity
  _atom_site_fract_x
  _atom_site_fract_y
  _atom_site_fract_z
  _atom_site_occupancy
  Cu  Cu1       1.0  0.73900  0.13800  0.47800  1.0000
  Cu  Cu2       1.0  0.26100  0.86200  0.52200  1.0000
  Eu  Eu1       1.0  0.00000  0.00000  0.00000  1.0000
  Sn  Sn1       1.0  0.64300  0.56900  0.28600  1.0000
  Sn  Sn2       1.0  0.35700  0.43100  0.71400  1.0000
