data_image0
_chemical_formula_structural       Br6Mn15O20
_chemical_formula_sum              "Br6 Mn15 O20"
_cell_length_a       9.30701
_cell_length_b       9.30701
_cell_length_c       9.30701
_cell_angle_alpha    90.1442
_cell_angle_beta     119.917
_cell_angle_gamma    119.917

_space_group_name_H-M_alt    "P 1"
_space_group_IT_number       1

loop_
  _space_group_symop_operation_xyz
  'x, y, z'

loop_
  _atom_site_type_symbol
  _atom_site_label
  _atom_site_symmetry_multiplicity
  _atom_site_fract_x
  _atom_site_fract_y
  _atom_site_fract_z
  _atom_site_occupancy
  Br  Br1       1.0  1.00000  0.69800  0.30200  1.0000
  Br  Br2       1.0  0.60300  0.30200  0.30200  1.0000
  Br  Br3       1.0  1.00000  0.30200  0.30200  1.0000
  Br  Br4       1.0  1.00000  0.69800  0.69800  1.0000
  Br  Br5       1.0  1.00000  0.30200  0.69800  1.0000
  Br  Br6       1.0  0.39700  0.69800  0.69800  1.0000
  Mn  Mn1       1.0  0.00000  0.00000  0.00000  1.0000
  Mn  Mn2       1.0  0.35000  0.35000  0.00000  1.0000
  Mn  Mn3       1.0  0.65000  0.65000  0.00000  1.0000
  Mn  Mn4       1.0  0.00000  0.35000  0.00024  1.0000
  Mn  Mn5       1.0  0.65000  0.00024  0.00024  1.0000
  Mn  Mn6       1.0  0.50000  0.75000  0.25000  1.0000
  Mn  Mn7       1.0  0.35000  0.00000  0.35000  1.0000
  Mn  Mn8       1.0  0.00000  0.00024  0.35000  1.0000
  Mn  Mn9       1.0  0.35000  0.35000  0.35000  1.0000
  Mn  Mn10      1.0  0.65000  0.65000  0.65000  1.0000
  Mn  Mn11      1.0  1.00000  0.00000  0.65000  1.0000
  Mn  Mn12      1.0  0.65000  0.00000  0.65000  1.0000
  Mn  Mn13      1.0  0.50000  0.25000  0.75000  1.0000
  Mn  Mn14      1.0  1.00000  0.65000  0.00000  1.0000
  Mn  Mn15      1.0  0.35000  0.00000  0.00000  1.0000
  O   O1        1.0  0.19800  0.59900  0.09880  1.0000
  O   O2        1.0  0.50000  0.90100  0.09880  1.0000
  O   O3        1.0  0.50000  0.59900  0.09900  1.0000
  O   O4        1.0  0.19900  0.90000  0.09930  1.0000
  O   O5        1.0  0.19900  0.29900  0.09960  1.0000
  O   O6        1.0  0.80100  0.90100  0.09960  1.0000
  O   O7        1.0  0.19900  0.09960  0.29900  1.0000
  O   O8        1.0  0.50000  0.90100  0.40100  1.0000
  O   O9        1.0  0.50000  0.59900  0.40100  1.0000
  O   O10       1.0  0.80200  0.90100  0.40100  1.0000
  O   O11       1.0  0.19800  0.09880  0.59900  1.0000
  O   O12       1.0  0.50000  0.40100  0.59900  1.0000
  O   O13       1.0  0.50000  0.09900  0.59900  1.0000
  O   O14       1.0  0.80100  0.90000  0.70100  1.0000
  O   O15       1.0  0.19900  0.09930  0.90000  1.0000
  O   O16       1.0  0.80100  0.70100  0.90000  1.0000
  O   O17       1.0  0.80100  0.09960  0.90100  1.0000
  O   O18       1.0  0.50000  0.40100  0.90100  1.0000
  O   O19       1.0  0.50000  0.09880  0.90100  1.0000
  O   O20       1.0  0.80200  0.40100  0.90100  1.0000
