data_image0
_chemical_formula_structural       Ca4Cr4F28Sr4
_chemical_formula_sum              "Ca4 Cr4 F28 Sr4"
_cell_length_a       7.76784
_cell_length_b       7.16511
_cell_length_c       9.73274
_cell_angle_alpha    90
_cell_angle_beta     90
_cell_angle_gamma    90

_space_group_name_H-M_alt    "P 1"
_space_group_IT_number       1

loop_
  _space_group_symop_operation_xyz
  'x, y, z'

loop_
  _atom_site_type_symbol
  _atom_site_label
  _atom_site_symmetry_multiplicity
  _atom_site_fract_x
  _atom_site_fract_y
  _atom_site_fract_z
  _atom_site_occupancy
  Ca  Ca1       1.0  0.38000  0.75000  0.24500  1.0000
  Ca  Ca2       1.0  0.88000  0.75000  0.25500  1.0000
  Ca  Ca3       1.0  0.12000  0.25000  0.74500  1.0000
  Ca  Ca4       1.0  0.62000  0.25000  0.75500  1.0000
  Cr  Cr1       1.0  0.32000  0.25000  0.05690  1.0000
  Cr  Cr2       1.0  0.82000  0.25000  0.44300  1.0000
  Cr  Cr3       1.0  0.18000  0.75000  0.55700  1.0000
  Cr  Cr4       1.0  0.68000  0.75000  0.94300  1.0000
  F   F1        1.0  0.45800  0.75000  0.02520  1.0000
  F   F2        1.0  0.76300  0.57500  0.07640  1.0000
  F   F3        1.0  0.76300  0.92500  0.07640  1.0000
  F   F4        1.0  0.12300  0.75000  0.13700  1.0000
  F   F5        1.0  0.11100  0.25000  0.15200  1.0000
  F   F6        1.0  0.39600  0.06110  0.18300  1.0000
  F   F7        1.0  0.39600  0.43900  0.18300  1.0000
  F   F8        1.0  0.89600  0.06110  0.31700  1.0000
  F   F9        1.0  0.89600  0.43900  0.31700  1.0000
  F   F10       1.0  0.61100  0.25000  0.34800  1.0000
  F   F11       1.0  0.62300  0.75000  0.36300  1.0000
  F   F12       1.0  0.26300  0.57500  0.42400  1.0000
  F   F13       1.0  0.26300  0.92500  0.42400  1.0000
  F   F14       1.0  0.95800  0.75000  0.47500  1.0000
  F   F15       1.0  0.04150  0.25000  0.52500  1.0000
  F   F16       1.0  0.73700  0.07490  0.57600  1.0000
  F   F17       1.0  0.73700  0.42500  0.57600  1.0000
  F   F18       1.0  0.37700  0.25000  0.63700  1.0000
  F   F19       1.0  0.38900  0.75000  0.65200  1.0000
  F   F20       1.0  0.10400  0.56100  0.68300  1.0000
  F   F21       1.0  0.10400  0.93900  0.68300  1.0000
  F   F22       1.0  0.60400  0.56100  0.81700  1.0000
  F   F23       1.0  0.60400  0.93900  0.81700  1.0000
  F   F24       1.0  0.88900  0.75000  0.84800  1.0000
  F   F25       1.0  0.87700  0.25000  0.86300  1.0000
  F   F26       1.0  0.23700  0.07490  0.92400  1.0000
  F   F27       1.0  0.23700  0.42500  0.92400  1.0000
  F   F28       1.0  0.54200  0.25000  0.97500  1.0000
  Sr  Sr1       1.0  0.80400  0.25000  0.11100  1.0000
  Sr  Sr2       1.0  0.30400  0.25000  0.38900  1.0000
  Sr  Sr3       1.0  0.69600  0.75000  0.61100  1.0000
  Sr  Sr4       1.0  0.19600  0.75000  0.88900  1.0000
