data_image0
_chemical_formula_structural       F2I2Sr2
_chemical_formula_sum              "F2 I2 Sr2"
_cell_length_a       4.23265
_cell_length_b       4.23265
_cell_length_c       8.77289
_cell_angle_alpha    90
_cell_angle_beta     90
_cell_angle_gamma    90

_space_group_name_H-M_alt    "P 1"
_space_group_IT_number       1

loop_
  _space_group_symop_operation_xyz
  'x, y, z'

loop_
  _atom_site_type_symbol
  _atom_site_label
  _atom_site_symmetry_multiplicity
  _atom_site_fract_x
  _atom_site_fract_y
  _atom_site_fract_z
  _atom_site_occupancy
  F   F1        1.0  0.75000  0.25000  0.00000  1.0000
  F   F2        1.0  0.25000  0.75000  0.00000  1.0000
  I   I1        1.0  0.75000  0.75000  0.33900  1.0000
  I   I2        1.0  0.25000  0.25000  0.66100  1.0000
  Sr  Sr1       1.0  0.25000  0.25000  0.15400  1.0000
  Sr  Sr2       1.0  0.75000  0.75000  0.84600  1.0000
