data_image0
_chemical_formula_structural       H2Na2S2
_chemical_formula_sum              "H2 Na2 S2"
_cell_length_a       3.90328
_cell_length_b       4.41984
_cell_length_c       5.92419
_cell_angle_alpha    90
_cell_angle_beta     99.7694
_cell_angle_gamma    90

_space_group_name_H-M_alt    "P 1"
_space_group_IT_number       1

loop_
  _space_group_symop_operation_xyz
  'x, y, z'

loop_
  _atom_site_type_symbol
  _atom_site_label
  _atom_site_symmetry_multiplicity
  _atom_site_fract_x
  _atom_site_fract_y
  _atom_site_fract_z
  _atom_site_occupancy
  H   H1        1.0  0.54900  0.25000  0.39800  1.0000
  H   H2        1.0  0.45100  0.75000  0.60200  1.0000
  Na  Na1       1.0  0.76600  0.75000  0.23400  1.0000
  Na  Na2       1.0  0.23400  0.25000  0.76600  1.0000
  S   S1        1.0  0.23900  0.25000  0.25100  1.0000
  S   S2        1.0  0.76100  0.75000  0.74900  1.0000
