data_image0
_chemical_formula_structural       CdH18N4O14Se4
_chemical_formula_sum              "Cd1 H18 N4 O14 Se4"
_cell_length_a       5.70606
_cell_length_b       7.24014
_cell_length_c       10.5394
_cell_angle_alpha    90.437
_cell_angle_beta     105.018
_cell_angle_gamma    113.384

_space_group_name_H-M_alt    "P 1"
_space_group_IT_number       1

loop_
  _space_group_symop_operation_xyz
  'x, y, z'

loop_
  _atom_site_type_symbol
  _atom_site_label
  _atom_site_symmetry_multiplicity
  _atom_site_fract_x
  _atom_site_fract_y
  _atom_site_fract_z
  _atom_site_occupancy
  Cd  Cd1       1.0  0.00000  0.00000  0.00000  1.0000
  H   H1        1.0  0.75300  0.37000  0.02250  1.0000
  H   H2        1.0  0.93600  0.61000  0.10300  1.0000
  H   H3        1.0  0.61700  0.47600  0.11100  1.0000
  H   H4        1.0  0.86900  0.41400  0.19100  1.0000
  H   H5        1.0  0.60200  0.73800  0.34000  1.0000
  H   H6        1.0  0.12400  0.63900  0.39900  1.0000
  H   H7        1.0  0.15900  0.88600  0.40900  1.0000
  H   H8        1.0  0.63800  0.18600  0.47700  1.0000
  H   H9        1.0  0.95900  0.27100  0.47900  1.0000
  H   H10       1.0  0.04130  0.72900  0.52100  1.0000
  H   H11       1.0  0.36200  0.81400  0.52300  1.0000
  H   H12       1.0  0.84100  0.11400  0.59100  1.0000
  H   H13       1.0  0.87600  0.36100  0.60100  1.0000
  H   H14       1.0  0.39800  0.26200  0.66000  1.0000
  H   H15       1.0  0.13100  0.58600  0.80900  1.0000
  H   H16       1.0  0.38300  0.52400  0.88900  1.0000
  H   H17       1.0  0.06390  0.39000  0.89700  1.0000
  H   H18       1.0  0.24700  0.63000  0.97700  1.0000
  N   N1        1.0  0.79100  0.46800  0.10600  1.0000
  N   N2        1.0  0.16800  0.76700  0.46100  1.0000
  N   N3        1.0  0.83200  0.23300  0.53900  1.0000
  N   N4        1.0  0.20900  0.53200  0.89400  1.0000
  O   O1        1.0  0.23700  0.81700  0.10000  1.0000
  O   O2        1.0  0.71600  0.84500  0.11600  1.0000
  O   O3        1.0  0.25000  0.31600  0.13200  1.0000
  O   O4        1.0  0.06590  0.37900  0.33500  1.0000
  O   O5        1.0  0.60700  0.88200  0.34400  1.0000
  O   O6        1.0  0.32600  0.12800  0.35400  1.0000
  O   O7        1.0  0.60700  0.53200  0.36100  1.0000
  O   O8        1.0  0.39300  0.46800  0.63900  1.0000
  O   O9        1.0  0.67400  0.87200  0.64600  1.0000
  O   O10       1.0  0.39300  0.11800  0.65600  1.0000
  O   O11       1.0  0.93400  0.62100  0.66500  1.0000
  O   O12       1.0  0.75000  0.68400  0.86800  1.0000
  O   O13       1.0  0.28400  0.15500  0.88400  1.0000
  O   O14       1.0  0.76300  0.18300  0.90000  1.0000
  Se  Se1       1.0  0.56500  0.96400  0.18500  1.0000
  Se  Se2       1.0  0.31300  0.33800  0.29800  1.0000
  Se  Se3       1.0  0.68700  0.66200  0.70200  1.0000
  Se  Se4       1.0  0.43500  0.03590  0.81500  1.0000
