data_image0
_chemical_formula_structural       CCa7H4O23Si6
_chemical_formula_sum              "C1 Ca7 H4 O23 Si6"
_cell_length_a       6.59708
_cell_length_b       9.30072
_cell_length_c       9.30072
_cell_angle_alpha    107.675
_cell_angle_beta     104.884
_cell_angle_gamma    104.884

_space_group_name_H-M_alt    "P 1"
_space_group_IT_number       1

loop_
  _space_group_symop_operation_xyz
  'x, y, z'

loop_
  _atom_site_type_symbol
  _atom_site_label
  _atom_site_symmetry_multiplicity
  _atom_site_fract_x
  _atom_site_fract_y
  _atom_site_fract_z
  _atom_site_occupancy
  C   C1        1.0  0.00301  0.00000  0.00000  1.0000
  Ca  Ca1       1.0  0.54600  0.00247  0.00247  1.0000
  Ca  Ca2       1.0  0.02260  0.37600  0.08430  1.0000
  Ca  Ca3       1.0  0.51400  0.76000  0.26100  1.0000
  Ca  Ca4       1.0  0.02260  0.08430  0.37600  1.0000
  Ca  Ca5       1.0  0.00064  0.94300  0.67500  1.0000
  Ca  Ca6       1.0  0.51400  0.26100  0.76000  1.0000
  Ca  Ca7       1.0  0.00064  0.67500  0.94300  1.0000
  H   H1        1.0  0.29400  0.34000  0.34000  1.0000
  H   H2        1.0  0.16000  0.43400  0.43400  1.0000
  H   H3        1.0  0.84000  0.56400  0.56400  1.0000
  H   H4        1.0  0.70800  0.65800  0.65800  1.0000
  O   O1        1.0  0.62100  0.27200  0.02880  1.0000
  O   O2        1.0  0.92800  0.94800  0.09690  1.0000
  O   O3        1.0  0.40000  0.47600  0.14300  1.0000
  O   O4        1.0  0.11000  0.66500  0.19200  1.0000
  O   O5        1.0  0.62100  0.02880  0.27200  1.0000
  O   O6        1.0  0.48000  0.27500  0.27500  1.0000
  O   O7        1.0  0.82300  0.51700  0.30600  1.0000
  O   O8        1.0  0.14200  0.34000  0.34000  1.0000
  O   O9        1.0  0.92300  0.83500  0.38400  1.0000
  O   O10       1.0  0.40000  0.14300  0.47600  1.0000
  O   O11       1.0  0.20900  0.69900  0.49900  1.0000
  O   O12       1.0  0.82300  0.30600  0.51700  1.0000
  O   O13       1.0  0.62500  0.87900  0.54500  1.0000
  O   O14       1.0  0.85800  0.65800  0.65800  1.0000
  O   O15       1.0  0.11000  0.19200  0.66500  1.0000
  O   O16       1.0  0.20900  0.49900  0.69900  1.0000
  O   O17       1.0  0.39300  0.99000  0.73700  1.0000
  O   O18       1.0  0.54800  0.75800  0.75800  1.0000
  O   O19       1.0  0.92300  0.38400  0.83500  1.0000
  O   O20       1.0  0.62500  0.54500  0.87900  1.0000
  O   O21       1.0  0.14100  0.94400  0.94400  1.0000
  O   O22       1.0  0.92800  0.09690  0.94800  1.0000
  O   O23       1.0  0.39300  0.73700  0.99000  1.0000
  Si  Si1       1.0  0.57200  0.38600  0.17600  1.0000
  Si  Si2       1.0  0.01560  0.68900  0.33900  1.0000
  Si  Si3       1.0  0.57200  0.17600  0.38600  1.0000
  Si  Si4       1.0  0.44900  0.84200  0.63100  1.0000
  Si  Si5       1.0  0.01560  0.33900  0.68900  1.0000
  Si  Si6       1.0  0.44900  0.63100  0.84200  1.0000
