data_image0
_chemical_formula_structural       Ce4Pt12Sn25
_chemical_formula_sum              "Ce4 Pt12 Sn25"
_cell_length_a       10.7703
_cell_length_b       10.7703
_cell_length_c       10.7703
_cell_angle_alpha    109.471
_cell_angle_beta     109.471
_cell_angle_gamma    109.471

_space_group_name_H-M_alt    "P 1"
_space_group_IT_number       1

loop_
  _space_group_symop_operation_xyz
  'x, y, z'

loop_
  _atom_site_type_symbol
  _atom_site_label
  _atom_site_symmetry_multiplicity
  _atom_site_fract_x
  _atom_site_fract_y
  _atom_site_fract_z
  _atom_site_occupancy
  Ce  Ce1       1.0  0.50000  0.00000  0.00000  1.0000
  Ce  Ce2       1.0  0.00000  0.50000  0.00000  1.0000
  Ce  Ce3       1.0  0.00000  0.00000  0.50000  1.0000
  Ce  Ce4       1.0  0.50000  0.50000  0.50000  1.0000
  Pt  Pt1       1.0  0.83300  0.32000  0.15300  1.0000
  Pt  Pt2       1.0  0.32000  0.48700  0.16700  1.0000
  Pt  Pt3       1.0  0.68000  0.84700  0.16700  1.0000
  Pt  Pt4       1.0  0.48700  0.16700  0.32000  1.0000
  Pt  Pt5       1.0  0.15300  0.83300  0.32000  1.0000
  Pt  Pt6       1.0  0.16700  0.32000  0.48700  1.0000
  Pt  Pt7       1.0  0.83300  0.68000  0.51300  1.0000
  Pt  Pt8       1.0  0.84700  0.16700  0.68000  1.0000
  Pt  Pt9       1.0  0.51300  0.83300  0.68000  1.0000
  Pt  Pt10      1.0  0.32000  0.15300  0.83300  1.0000
  Pt  Pt11      1.0  0.68000  0.51300  0.83300  1.0000
  Pt  Pt12      1.0  0.16700  0.68000  0.84700  1.0000
  Sn  Sn1       1.0  0.00000  0.00000  0.00000  1.0000
  Sn  Sn2       1.0  0.62600  0.38100  0.00709  1.0000
  Sn  Sn3       1.0  0.37000  0.24700  0.12300  1.0000
  Sn  Sn4       1.0  0.87500  0.75300  0.12300  1.0000
  Sn  Sn5       1.0  0.24700  0.87700  0.12500  1.0000
  Sn  Sn6       1.0  0.62600  0.61900  0.24600  1.0000
  Sn  Sn7       1.0  0.12300  0.37000  0.24700  1.0000
  Sn  Sn8       1.0  0.87700  0.12500  0.24700  1.0000
  Sn  Sn9       1.0  0.24700  0.12300  0.37000  1.0000
  Sn  Sn10      1.0  0.38100  0.75400  0.37400  1.0000
  Sn  Sn11      1.0  0.61900  0.99300  0.37400  1.0000
  Sn  Sn12      1.0  0.75400  0.37400  0.38100  1.0000
  Sn  Sn13      1.0  0.00709  0.62600  0.38100  1.0000
  Sn  Sn14      1.0  0.99300  0.37400  0.61900  1.0000
  Sn  Sn15      1.0  0.24600  0.62600  0.61900  1.0000
  Sn  Sn16      1.0  0.38100  0.00709  0.62600  1.0000
  Sn  Sn17      1.0  0.61900  0.24600  0.62600  1.0000
  Sn  Sn18      1.0  0.75300  0.87700  0.63000  1.0000
  Sn  Sn19      1.0  0.87700  0.63000  0.75300  1.0000
  Sn  Sn20      1.0  0.12300  0.87500  0.75300  1.0000
  Sn  Sn21      1.0  0.37400  0.38100  0.75400  1.0000
  Sn  Sn22      1.0  0.75300  0.12300  0.87500  1.0000
  Sn  Sn23      1.0  0.12500  0.24700  0.87700  1.0000
  Sn  Sn24      1.0  0.63000  0.75300  0.87700  1.0000
  Sn  Sn25      1.0  0.37400  0.61900  0.99300  1.0000
