data_image0
_chemical_formula_structural       Fe2H18MgO18P2
_chemical_formula_sum              "Fe2 H18 Mg1 O18 P2"
_cell_length_a       5.30016
_cell_length_b       10.4193
_cell_length_c       7.10682
_cell_angle_alpha    108.462
_cell_angle_beta     111.52
_cell_angle_gamma    71.523

_space_group_name_H-M_alt    "P 1"
_space_group_IT_number       1

loop_
  _space_group_symop_operation_xyz
  'x, y, z'

loop_
  _atom_site_type_symbol
  _atom_site_label
  _atom_site_symmetry_multiplicity
  _atom_site_fract_x
  _atom_site_fract_y
  _atom_site_fract_z
  _atom_site_occupancy
  Fe  Fe1       1.0  0.00000  0.50000  0.00000  1.0000
  Fe  Fe2       1.0  0.00000  0.50000  0.50000  1.0000
  H   H1        1.0  0.42600  0.11700  0.01250  1.0000
  H   H2        1.0  0.88600  0.79600  0.04390  1.0000
  H   H3        1.0  0.71000  0.68800  0.30800  1.0000
  H   H4        1.0  0.37100  0.48100  0.32600  1.0000
  H   H5        1.0  0.74600  0.18000  0.34900  1.0000
  H   H6        1.0  0.22200  0.94400  0.39100  1.0000
  H   H7        1.0  0.23300  0.09750  0.40600  1.0000
  H   H8        1.0  0.16700  0.73200  0.42100  1.0000
  H   H9        1.0  0.57200  0.73500  0.49300  1.0000
  H   H10       1.0  0.42800  0.26500  0.50700  1.0000
  H   H11       1.0  0.83300  0.26800  0.57900  1.0000
  H   H12       1.0  0.76700  0.90300  0.59400  1.0000
  H   H13       1.0  0.77800  0.05570  0.60900  1.0000
  H   H14       1.0  0.25400  0.82000  0.65100  1.0000
  H   H15       1.0  0.62900  0.51900  0.67400  1.0000
  H   H16       1.0  0.29000  0.31200  0.69200  1.0000
  H   H17       1.0  0.11400  0.20400  0.95600  1.0000
  H   H18       1.0  0.57400  0.88300  0.98800  1.0000
  Mg  Mg1       1.0  0.00000  0.00000  0.00000  1.0000
  O   O1        1.0  0.77000  0.89100  0.03380  1.0000
  O   O2        1.0  0.16700  0.66100  0.04700  1.0000
  O   O3        1.0  0.66100  0.64100  0.06100  1.0000
  O   O4        1.0  0.73000  0.17600  0.09910  1.0000
  O   O5        1.0  0.68400  0.42800  0.28400  1.0000
  O   O6        1.0  0.16500  0.50700  0.30000  1.0000
  O   O7        1.0  0.23600  0.00481  0.31300  1.0000
  O   O8        1.0  0.76000  0.70300  0.46400  1.0000
  O   O9        1.0  0.73500  0.19400  0.49200  1.0000
  O   O10       1.0  0.26500  0.80600  0.50800  1.0000
  O   O11       1.0  0.24000  0.29700  0.53600  1.0000
  O   O12       1.0  0.76400  0.99500  0.68700  1.0000
  O   O13       1.0  0.83500  0.49300  0.70000  1.0000
  O   O14       1.0  0.31600  0.57200  0.71600  1.0000
  O   O15       1.0  0.27000  0.82400  0.90100  1.0000
  O   O16       1.0  0.33900  0.35900  0.93900  1.0000
  O   O17       1.0  0.83300  0.33900  0.95300  1.0000
  O   O18       1.0  0.23000  0.10900  0.96600  1.0000
  P   P1        1.0  0.65100  0.32500  0.06890  1.0000
  P   P2        1.0  0.34900  0.67500  0.93100  1.0000
