data_image0
_chemical_formula_structural       AlNd2Ni2
_chemical_formula_sum              "Al1 Nd2 Ni2"
_cell_length_a       4.27132
_cell_length_b       5.54951
_cell_length_c       5.54951
_cell_angle_alpha    102.53
_cell_angle_beta     112.634
_cell_angle_gamma    112.634

_space_group_name_H-M_alt    "P 1"
_space_group_IT_number       1

loop_
  _space_group_symop_operation_xyz
  'x, y, z'

loop_
  _atom_site_type_symbol
  _atom_site_label
  _atom_site_symmetry_multiplicity
  _atom_site_fract_x
  _atom_site_fract_y
  _atom_site_fract_z
  _atom_site_occupancy
  Al  Al1       1.0  0.00000  0.00000  0.00000  1.0000
  Nd  Nd1       1.0  0.50000  0.70200  0.29800  1.0000
  Nd  Nd2       1.0  0.50000  0.29800  0.70200  1.0000
  Ni  Ni1       1.0  0.76000  0.26000  0.26000  1.0000
  Ni  Ni2       1.0  0.24000  0.74000  0.74000  1.0000
