data_image0
_chemical_formula_structural       Al4Ba4Cu2F28Mn2
_chemical_formula_sum              "Al4 Ba4 Cu2 F28 Mn2"
_cell_length_a       5.12972
_cell_length_b       7.18385
_cell_length_c       14.1134
_cell_angle_alpha    91.6746
_cell_angle_beta     90
_cell_angle_gamma    110.918

_space_group_name_H-M_alt    "P 1"
_space_group_IT_number       1

loop_
  _space_group_symop_operation_xyz
  'x, y, z'

loop_
  _atom_site_type_symbol
  _atom_site_label
  _atom_site_symmetry_multiplicity
  _atom_site_fract_x
  _atom_site_fract_y
  _atom_site_fract_z
  _atom_site_occupancy
  Al  Al1       1.0  0.86900  0.75900  0.12500  1.0000
  Al  Al2       1.0  0.10900  0.24100  0.37500  1.0000
  Al  Al3       1.0  0.89100  0.75900  0.62500  1.0000
  Al  Al4       1.0  0.13100  0.24100  0.87500  1.0000
  Ba  Ba1       1.0  0.13700  0.38300  0.12000  1.0000
  Ba  Ba2       1.0  0.75500  0.61700  0.38000  1.0000
  Ba  Ba3       1.0  0.24500  0.38300  0.62000  1.0000
  Ba  Ba4       1.0  0.86300  0.61700  0.88000  1.0000
  Cu  Cu1       1.0  0.50000  0.00000  0.00000  1.0000
  Cu  Cu2       1.0  0.50000  0.00000  0.50000  1.0000
  F   F1        1.0  0.72400  0.83200  0.02170  1.0000
  F   F2        1.0  0.14400  0.73600  0.04770  1.0000
  F   F3        1.0  0.68200  0.50200  0.09170  1.0000
  F   F4        1.0  0.60500  0.11000  0.12600  1.0000
  F   F5        1.0  0.08000  0.00936  0.15700  1.0000
  F   F6        1.0  0.58800  0.75700  0.20300  1.0000
  F   F7        1.0  0.04440  0.68100  0.22200  1.0000
  F   F8        1.0  0.36300  0.31900  0.27800  1.0000
  F   F9        1.0  0.83100  0.24300  0.29700  1.0000
  F   F10       1.0  0.07070  0.99100  0.34300  1.0000
  F   F11       1.0  0.49500  0.89000  0.37400  1.0000
  F   F12       1.0  0.17900  0.49800  0.40800  1.0000
  F   F13       1.0  0.40800  0.26400  0.45200  1.0000
  F   F14       1.0  0.89200  0.16800  0.47800  1.0000
  F   F15       1.0  0.10800  0.83200  0.52200  1.0000
  F   F16       1.0  0.59200  0.73600  0.54800  1.0000
  F   F17       1.0  0.82100  0.50200  0.59200  1.0000
  F   F18       1.0  0.50500  0.11000  0.62600  1.0000
  F   F19       1.0  0.92900  0.00936  0.65700  1.0000
  F   F20       1.0  0.16900  0.75700  0.70300  1.0000
  F   F21       1.0  0.63700  0.68100  0.72200  1.0000
  F   F22       1.0  0.95600  0.31900  0.77800  1.0000
  F   F23       1.0  0.41200  0.24300  0.79700  1.0000
  F   F24       1.0  0.92000  0.99100  0.84300  1.0000
  F   F25       1.0  0.39500  0.89000  0.87400  1.0000
  F   F26       1.0  0.31800  0.49800  0.90800  1.0000
  F   F27       1.0  0.85600  0.26400  0.95200  1.0000
  F   F28       1.0  0.27600  0.16800  0.97800  1.0000
  Mn  Mn1       1.0  0.43000  0.00000  0.25000  1.0000
  Mn  Mn2       1.0  0.57000  0.00000  0.75000  1.0000
