data_image0
_chemical_formula_structural       Al4Ba4Co2F28Mn2
_chemical_formula_sum              "Al4 Ba4 Co2 F28 Mn2"
_cell_length_a       5.12062
_cell_length_b       7.18511
_cell_length_c       14.1595
_cell_angle_alpha    91.1466
_cell_angle_beta     90
_cell_angle_gamma    110.875

_space_group_name_H-M_alt    "P 1"
_space_group_IT_number       1

loop_
  _space_group_symop_operation_xyz
  'x, y, z'

loop_
  _atom_site_type_symbol
  _atom_site_label
  _atom_site_symmetry_multiplicity
  _atom_site_fract_x
  _atom_site_fract_y
  _atom_site_fract_z
  _atom_site_occupancy
  Al  Al1       1.0  0.88300  0.76300  0.12500  1.0000
  Al  Al2       1.0  0.12000  0.23700  0.37500  1.0000
  Al  Al3       1.0  0.88000  0.76300  0.62500  1.0000
  Al  Al4       1.0  0.11700  0.23700  0.87500  1.0000
  Ba  Ba1       1.0  0.15400  0.38500  0.11900  1.0000
  Ba  Ba2       1.0  0.76900  0.61500  0.38100  1.0000
  Ba  Ba3       1.0  0.23100  0.38500  0.61900  1.0000
  Ba  Ba4       1.0  0.84600  0.61500  0.88100  1.0000
  Co  Co1       1.0  0.50000  0.00000  0.00000  1.0000
  Co  Co2       1.0  0.50000  0.00000  0.50000  1.0000
  F   F1        1.0  0.74200  0.83900  0.02240  1.0000
  F   F2        1.0  0.17300  0.75200  0.04880  1.0000
  F   F3        1.0  0.70600  0.50900  0.08500  1.0000
  F   F4        1.0  0.62600  0.12400  0.12700  1.0000
  F   F5        1.0  0.09120  0.01160  0.15900  1.0000
  F   F6        1.0  0.59500  0.75200  0.20000  1.0000
  F   F7        1.0  0.04860  0.67600  0.22100  1.0000
  F   F8        1.0  0.37200  0.32400  0.27900  1.0000
  F   F9        1.0  0.84300  0.24800  0.30000  1.0000
  F   F10       1.0  0.07960  0.98800  0.34100  1.0000
  F   F11       1.0  0.50200  0.87600  0.37300  1.0000
  F   F12       1.0  0.19600  0.49100  0.41500  1.0000
  F   F13       1.0  0.42100  0.24800  0.45100  1.0000
  F   F14       1.0  0.90300  0.16100  0.47800  1.0000
  F   F15       1.0  0.09690  0.83900  0.52200  1.0000
  F   F16       1.0  0.57900  0.75200  0.54900  1.0000
  F   F17       1.0  0.80400  0.50900  0.58500  1.0000
  F   F18       1.0  0.49800  0.12400  0.62700  1.0000
  F   F19       1.0  0.92000  0.01160  0.65900  1.0000
  F   F20       1.0  0.15700  0.75200  0.70000  1.0000
  F   F21       1.0  0.62800  0.67600  0.72100  1.0000
  F   F22       1.0  0.95100  0.32400  0.77900  1.0000
  F   F23       1.0  0.40500  0.24800  0.80000  1.0000
  F   F24       1.0  0.90900  0.98800  0.84100  1.0000
  F   F25       1.0  0.37400  0.87600  0.87300  1.0000
  F   F26       1.0  0.29400  0.49100  0.91500  1.0000
  F   F27       1.0  0.82700  0.24800  0.95100  1.0000
  F   F28       1.0  0.25800  0.16100  0.97800  1.0000
  Mn  Mn1       1.0  0.44500  0.00000  0.25000  1.0000
  Mn  Mn2       1.0  0.55500  0.00000  0.75000  1.0000
