data_image0
_chemical_formula_structural       Dy4Ni12Sn25
_chemical_formula_sum              "Dy4 Ni12 Sn25"
_cell_length_a       10.3359
_cell_length_b       10.3359
_cell_length_c       10.3359
_cell_angle_alpha    109.471
_cell_angle_beta     109.471
_cell_angle_gamma    109.471

_space_group_name_H-M_alt    "P 1"
_space_group_IT_number       1

loop_
  _space_group_symop_operation_xyz
  'x, y, z'

loop_
  _atom_site_type_symbol
  _atom_site_label
  _atom_site_symmetry_multiplicity
  _atom_site_fract_x
  _atom_site_fract_y
  _atom_site_fract_z
  _atom_site_occupancy
  Dy  Dy1       1.0  0.50000  0.00000  0.00000  1.0000
  Dy  Dy2       1.0  0.00000  0.50000  0.00000  1.0000
  Dy  Dy3       1.0  0.00000  0.00000  0.50000  1.0000
  Dy  Dy4       1.0  0.50000  0.50000  0.50000  1.0000
  Ni  Ni1       1.0  0.32000  0.83800  0.15800  1.0000
  Ni  Ni2       1.0  0.48200  0.32000  0.16200  1.0000
  Ni  Ni3       1.0  0.84200  0.68000  0.16200  1.0000
  Ni  Ni4       1.0  0.83800  0.15800  0.32000  1.0000
  Ni  Ni5       1.0  0.16200  0.48200  0.32000  1.0000
  Ni  Ni6       1.0  0.32000  0.16200  0.48200  1.0000
  Ni  Ni7       1.0  0.68000  0.83800  0.51800  1.0000
  Ni  Ni8       1.0  0.16200  0.84200  0.68000  1.0000
  Ni  Ni9       1.0  0.83800  0.51800  0.68000  1.0000
  Ni  Ni10      1.0  0.15800  0.32000  0.83800  1.0000
  Ni  Ni11      1.0  0.51800  0.68000  0.83800  1.0000
  Ni  Ni12      1.0  0.68000  0.16200  0.84200  1.0000
  Sn  Sn1       1.0  0.00000  0.00000  0.00000  1.0000
  Sn  Sn2       1.0  0.37200  0.63000  0.00217  1.0000
  Sn  Sn3       1.0  0.87300  0.24800  0.12100  1.0000
  Sn  Sn4       1.0  0.24800  0.37500  0.12700  1.0000
  Sn  Sn5       1.0  0.75200  0.87900  0.12700  1.0000
  Sn  Sn6       1.0  0.37500  0.12700  0.24800  1.0000
  Sn  Sn7       1.0  0.12100  0.87300  0.24800  1.0000
  Sn  Sn8       1.0  0.62800  0.63000  0.25700  1.0000
  Sn  Sn9       1.0  0.74300  0.37200  0.37000  1.0000
  Sn  Sn10      1.0  0.99800  0.62800  0.37000  1.0000
  Sn  Sn11      1.0  0.63000  0.00217  0.37200  1.0000
  Sn  Sn12      1.0  0.37000  0.74300  0.37200  1.0000
  Sn  Sn13      1.0  0.12700  0.24800  0.37500  1.0000
  Sn  Sn14      1.0  0.87300  0.75200  0.62500  1.0000
  Sn  Sn15      1.0  0.63000  0.25700  0.62800  1.0000
  Sn  Sn16      1.0  0.37000  0.99800  0.62800  1.0000
  Sn  Sn17      1.0  0.00217  0.37200  0.63000  1.0000
  Sn  Sn18      1.0  0.25700  0.62800  0.63000  1.0000
  Sn  Sn19      1.0  0.37200  0.37000  0.74300  1.0000
  Sn  Sn20      1.0  0.62500  0.87300  0.75200  1.0000
  Sn  Sn21      1.0  0.87900  0.12700  0.75200  1.0000
  Sn  Sn22      1.0  0.24800  0.12100  0.87300  1.0000
  Sn  Sn23      1.0  0.75200  0.62500  0.87300  1.0000
  Sn  Sn24      1.0  0.12700  0.75200  0.87900  1.0000
  Sn  Sn25      1.0  0.62800  0.37000  0.99800  1.0000
