data_image0
_chemical_formula_structural       CuH8Na4O22P6
_chemical_formula_sum              "Cu1 H8 Na4 O22 P6"
_cell_length_a       7.69659
_cell_length_b       8.20453
_cell_length_c       6.95369
_cell_angle_alpha    102.007
_cell_angle_beta     97.7312
_cell_angle_gamma    85.1131

_space_group_name_H-M_alt    "P 1"
_space_group_IT_number       1

loop_
  _space_group_symop_operation_xyz
  'x, y, z'

loop_
  _atom_site_type_symbol
  _atom_site_label
  _atom_site_symmetry_multiplicity
  _atom_site_fract_x
  _atom_site_fract_y
  _atom_site_fract_z
  _atom_site_occupancy
  Cu  Cu1       1.0  0.00000  0.00000  0.00000  1.0000
  H   H1        1.0  0.40600  0.16600  0.03760  1.0000
  H   H2        1.0  0.60500  0.10200  0.04960  1.0000
  H   H3        1.0  0.21700  0.19100  0.25000  1.0000
  H   H4        1.0  0.24900  0.00087  0.26200  1.0000
  H   H5        1.0  0.75100  0.99900  0.73800  1.0000
  H   H6        1.0  0.78300  0.80900  0.75000  1.0000
  H   H7        1.0  0.39500  0.89800  0.95000  1.0000
  H   H8        1.0  0.59400  0.83400  0.96200  1.0000
  Na  Na1       1.0  0.68300  0.40400  0.10100  1.0000
  Na  Na2       1.0  0.57800  0.80100  0.34600  1.0000
  Na  Na3       1.0  0.42200  0.19900  0.65400  1.0000
  Na  Na4       1.0  0.31700  0.59600  0.89900  1.0000
  O   O1        1.0  0.48400  0.82900  0.01770  1.0000
  O   O2        1.0  0.07070  0.77200  0.06820  1.0000
  O   O3        1.0  0.21300  0.07550  0.16400  1.0000
  O   O4        1.0  0.79300  0.66700  0.16800  1.0000
  O   O5        1.0  0.41700  0.55100  0.22300  1.0000
  O   O6        1.0  0.81300  0.09230  0.22900  1.0000
  O   O7        1.0  0.08920  0.52700  0.23800  1.0000
  O   O8        1.0  0.30500  0.33900  0.40100  1.0000
  O   O9        1.0  0.01670  0.81500  0.43200  1.0000
  O   O10       1.0  0.71900  0.35500  0.45200  1.0000
  O   O11       1.0  0.32200  0.92700  0.45900  1.0000
  O   O12       1.0  0.67800  0.07340  0.54100  1.0000
  O   O13       1.0  0.28100  0.64500  0.54800  1.0000
  O   O14       1.0  0.98300  0.18500  0.56800  1.0000
  O   O15       1.0  0.69500  0.66100  0.59900  1.0000
  O   O16       1.0  0.91100  0.47300  0.76200  1.0000
  O   O17       1.0  0.18700  0.90800  0.77100  1.0000
  O   O18       1.0  0.58300  0.44900  0.77700  1.0000
  O   O19       1.0  0.20700  0.33300  0.83200  1.0000
  O   O20       1.0  0.78700  0.92400  0.83600  1.0000
  O   O21       1.0  0.92900  0.22800  0.93200  1.0000
  O   O22       1.0  0.51600  0.17100  0.98200  1.0000
  P   P1        1.0  0.98200  0.70100  0.21000  1.0000
  P   P2        1.0  0.28900  0.50500  0.34300  1.0000
  P   P3        1.0  0.79200  0.16100  0.44000  1.0000
  P   P4        1.0  0.20800  0.83900  0.56000  1.0000
  P   P5        1.0  0.71100  0.49500  0.65700  1.0000
  P   P6        1.0  0.01820  0.29900  0.79000  1.0000
