data_image0
_chemical_formula_structural       Al2H18MgO18P2
_chemical_formula_sum              "Al2 H18 Mg1 O18 P2"
_cell_length_a       5.18061
_cell_length_b       10.293
_cell_length_c       6.82848
_cell_angle_alpha    107.436
_cell_angle_beta     110.578
_cell_angle_gamma    72.2122

_space_group_name_H-M_alt    "P 1"
_space_group_IT_number       1

loop_
  _space_group_symop_operation_xyz
  'x, y, z'

loop_
  _atom_site_type_symbol
  _atom_site_label
  _atom_site_symmetry_multiplicity
  _atom_site_fract_x
  _atom_site_fract_y
  _atom_site_fract_z
  _atom_site_occupancy
  Al  Al1       1.0  0.00000  0.50000  0.00000  1.0000
  Al  Al2       1.0  0.00000  0.50000  0.50000  1.0000
  H   H1        1.0  0.58800  0.88200  0.01360  1.0000
  H   H2        1.0  0.90300  0.79600  0.06690  1.0000
  H   H3        1.0  0.72400  0.68000  0.30600  1.0000
  H   H4        1.0  0.35400  0.48500  0.32800  1.0000
  H   H5        1.0  0.73200  0.17500  0.34000  1.0000
  H   H6        1.0  0.24900  0.95100  0.39900  1.0000
  H   H7        1.0  0.23400  0.10800  0.40600  1.0000
  H   H8        1.0  0.16500  0.74600  0.41900  1.0000
  H   H9        1.0  0.58600  0.72800  0.49900  1.0000
  H   H10       1.0  0.41400  0.27200  0.50100  1.0000
  H   H11       1.0  0.83500  0.25400  0.58100  1.0000
  H   H12       1.0  0.76600  0.89200  0.59400  1.0000
  H   H13       1.0  0.75100  0.04850  0.60100  1.0000
  H   H14       1.0  0.26800  0.82500  0.66000  1.0000
  H   H15       1.0  0.64600  0.51500  0.67200  1.0000
  H   H16       1.0  0.27600  0.32000  0.69400  1.0000
  H   H17       1.0  0.09710  0.20400  0.93300  1.0000
  H   H18       1.0  0.41200  0.11800  0.98600  1.0000
  Mg  Mg1       1.0  0.00000  0.00000  0.00000  1.0000
  O   O1        1.0  0.16700  0.65300  0.05000  1.0000
  O   O2        1.0  0.66700  0.63200  0.05390  1.0000
  O   O3        1.0  0.78600  0.89300  0.07030  1.0000
  O   O4        1.0  0.72400  0.17800  0.09530  1.0000
  O   O5        1.0  0.14600  0.50100  0.29100  1.0000
  O   O6        1.0  0.69100  0.43000  0.29700  1.0000
  O   O7        1.0  0.25200  0.01400  0.31500  1.0000
  O   O8        1.0  0.77700  0.69100  0.46700  1.0000
  O   O9        1.0  0.71800  0.18800  0.48900  1.0000
  O   O10       1.0  0.28200  0.81200  0.51100  1.0000
  O   O11       1.0  0.22300  0.30900  0.53300  1.0000
  O   O12       1.0  0.74800  0.98600  0.68500  1.0000
  O   O13       1.0  0.30900  0.57000  0.70300  1.0000
  O   O14       1.0  0.85400  0.49900  0.70900  1.0000
  O   O15       1.0  0.27600  0.82200  0.90500  1.0000
  O   O16       1.0  0.21400  0.10700  0.93000  1.0000
  O   O17       1.0  0.33300  0.36800  0.94600  1.0000
  O   O18       1.0  0.83300  0.34700  0.95000  1.0000
  P   P1        1.0  0.64900  0.33100  0.07350  1.0000
  P   P2        1.0  0.35100  0.66900  0.92600  1.0000
