data_image0
_chemical_formula_structural       Ba4Cd2F28Fe4Mn2
_chemical_formula_sum              "Ba4 Cd2 F28 Fe4 Mn2"
_cell_length_a       5.27972
_cell_length_b       7.21482
_cell_length_c       14.527
_cell_angle_alpha    91.2309
_cell_angle_beta     90
_cell_angle_gamma    111.463

_space_group_name_H-M_alt    "P 1"
_space_group_IT_number       1

loop_
  _space_group_symop_operation_xyz
  'x, y, z'

loop_
  _atom_site_type_symbol
  _atom_site_label
  _atom_site_symmetry_multiplicity
  _atom_site_fract_x
  _atom_site_fract_y
  _atom_site_fract_z
  _atom_site_occupancy
  Ba  Ba1       1.0  0.15000  0.39600  0.11900  1.0000
  Ba  Ba2       1.0  0.75400  0.60400  0.38100  1.0000
  Ba  Ba3       1.0  0.24600  0.39600  0.61900  1.0000
  Ba  Ba4       1.0  0.85000  0.60400  0.88100  1.0000
  Cd  Cd1       1.0  0.43000  0.00000  0.25000  1.0000
  Cd  Cd2       1.0  0.57000  0.00000  0.75000  1.0000
  F   F1        1.0  0.72500  0.84000  0.01180  1.0000
  F   F2        1.0  0.17400  0.74700  0.04620  1.0000
  F   F3        1.0  0.68300  0.49200  0.08160  1.0000
  F   F4        1.0  0.63500  0.11100  0.11800  1.0000
  F   F5        1.0  0.09430  0.02880  0.15800  1.0000
  F   F6        1.0  0.56800  0.74000  0.21000  1.0000
  F   F7        1.0  0.04520  0.66800  0.22700  1.0000
  F   F8        1.0  0.37700  0.33200  0.27300  1.0000
  F   F9        1.0  0.82800  0.26000  0.29000  1.0000
  F   F10       1.0  0.06550  0.97100  0.34200  1.0000
  F   F11       1.0  0.52400  0.88900  0.38200  1.0000
  F   F12       1.0  0.19100  0.50800  0.41800  1.0000
  F   F13       1.0  0.42700  0.25300  0.45400  1.0000
  F   F14       1.0  0.88400  0.16000  0.48800  1.0000
  F   F15       1.0  0.11600  0.84000  0.51200  1.0000
  F   F16       1.0  0.57300  0.74700  0.54600  1.0000
  F   F17       1.0  0.80900  0.49200  0.58200  1.0000
  F   F18       1.0  0.47600  0.11100  0.61800  1.0000
  F   F19       1.0  0.93400  0.02880  0.65800  1.0000
  F   F20       1.0  0.17200  0.74000  0.71000  1.0000
  F   F21       1.0  0.62300  0.66800  0.72700  1.0000
  F   F22       1.0  0.95500  0.33200  0.77300  1.0000
  F   F23       1.0  0.43200  0.26000  0.79000  1.0000
  F   F24       1.0  0.90600  0.97100  0.84200  1.0000
  F   F25       1.0  0.36500  0.88900  0.88200  1.0000
  F   F26       1.0  0.31700  0.50800  0.91800  1.0000
  F   F27       1.0  0.82600  0.25300  0.95400  1.0000
  F   F28       1.0  0.27500  0.16000  0.98800  1.0000
  Fe  Fe1       1.0  0.86600  0.76100  0.12700  1.0000
  Fe  Fe2       1.0  0.10500  0.23900  0.37300  1.0000
  Fe  Fe3       1.0  0.89500  0.76100  0.62700  1.0000
  Fe  Fe4       1.0  0.13400  0.23900  0.87300  1.0000
  Mn  Mn1       1.0  0.50000  0.00000  0.00000  1.0000
  Mn  Mn2       1.0  0.50000  0.00000  0.50000  1.0000
