data_image0
_chemical_formula_structural       Cs2Cu2O2
_chemical_formula_sum              "Cs2 Cu2 O2"
_cell_length_a       4.98775
_cell_length_b       5.96471
_cell_length_c       5.92628
_cell_angle_alpha    59.7853
_cell_angle_beta     90
_cell_angle_gamma    90

_space_group_name_H-M_alt    "P 1"
_space_group_IT_number       1

loop_
  _space_group_symop_operation_xyz
  'x, y, z'

loop_
  _atom_site_type_symbol
  _atom_site_label
  _atom_site_symmetry_multiplicity
  _atom_site_fract_x
  _atom_site_fract_y
  _atom_site_fract_z
  _atom_site_occupancy
  Cs  Cs1       1.0  0.25000  0.32000  0.36500  1.0000
  Cs  Cs2       1.0  0.75000  0.68500  0.63500  1.0000
  Cu  Cu1       1.0  0.00000  0.00202  0.00000  1.0000
  Cu  Cu2       1.0  0.50000  0.00202  0.00000  1.0000
  O   O1        1.0  0.25000  0.87200  0.26100  1.0000
  O   O2        1.0  0.75000  0.13300  0.73900  1.0000
