data_image0
_chemical_formula_structural       H4Mg7O24P6
_chemical_formula_sum              "H4 Mg7 O24 P6"
_cell_length_a       6.39199
_cell_length_b       7.80335
_cell_length_c       9.37649
_cell_angle_alpha    104.676
_cell_angle_beta     108.651
_cell_angle_gamma    101.212

_space_group_name_H-M_alt    "P 1"
_space_group_IT_number       1

loop_
  _space_group_symop_operation_xyz
  'x, y, z'

loop_
  _atom_site_type_symbol
  _atom_site_label
  _atom_site_symmetry_multiplicity
  _atom_site_fract_x
  _atom_site_fract_y
  _atom_site_fract_z
  _atom_site_occupancy
  H   H1        1.0  0.81900  0.12800  0.18500  1.0000
  H   H2        1.0  0.63200  0.57300  0.43500  1.0000
  H   H3        1.0  0.36800  0.42700  0.56500  1.0000
  H   H4        1.0  0.18100  0.87200  0.81500  1.0000
  Mg  Mg1       1.0  0.00000  0.00000  0.00000  1.0000
  Mg  Mg2       1.0  0.38500  0.45800  0.11100  1.0000
  Mg  Mg3       1.0  0.27700  0.81100  0.28300  1.0000
  Mg  Mg4       1.0  0.94500  0.28600  0.48500  1.0000
  Mg  Mg5       1.0  0.05490  0.71400  0.51500  1.0000
  Mg  Mg6       1.0  0.72300  0.18900  0.71700  1.0000
  Mg  Mg7       1.0  0.61500  0.54200  0.88900  1.0000
  O   O1        1.0  0.77800  0.81100  0.05240  1.0000
  O   O2        1.0  0.69100  0.46400  0.08570  1.0000
  O   O3        1.0  0.88500  0.21100  0.09220  1.0000
  O   O4        1.0  0.12500  0.54000  0.16300  1.0000
  O   O5        1.0  0.54500  0.75600  0.22900  1.0000
  O   O6        1.0  0.26000  0.05040  0.23600  1.0000
  O   O7        1.0  0.79400  0.06960  0.27500  1.0000
  O   O8        1.0  0.48000  0.38900  0.31100  1.0000
  O   O9        1.0  0.98400  0.82800  0.33900  1.0000
  O   O10       1.0  0.94200  0.45500  0.34800  1.0000
  O   O11       1.0  0.26600  0.29800  0.47700  1.0000
  O   O12       1.0  0.62000  0.20700  0.49300  1.0000
  O   O13       1.0  0.38000  0.79300  0.50700  1.0000
  O   O14       1.0  0.73400  0.70200  0.52300  1.0000
  O   O15       1.0  0.05780  0.54500  0.65200  1.0000
  O   O16       1.0  0.01600  0.17200  0.66100  1.0000
  O   O17       1.0  0.52000  0.61100  0.68900  1.0000
  O   O18       1.0  0.20600  0.93000  0.72500  1.0000
  O   O19       1.0  0.74000  0.95000  0.76400  1.0000
  O   O20       1.0  0.45500  0.24400  0.77100  1.0000
  O   O21       1.0  0.87500  0.46000  0.83700  1.0000
  O   O22       1.0  0.11500  0.78900  0.90800  1.0000
  O   O23       1.0  0.30900  0.53600  0.91400  1.0000
  O   O24       1.0  0.22200  0.18900  0.94800  1.0000
  P   P1        1.0  0.91000  0.42000  0.17200  1.0000
  P   P2        1.0  0.77100  0.85500  0.22200  1.0000
  P   P3        1.0  0.41000  0.23300  0.37300  1.0000
  P   P4        1.0  0.59000  0.76700  0.62700  1.0000
  P   P5        1.0  0.22900  0.14500  0.77800  1.0000
  P   P6        1.0  0.09010  0.58000  0.82800  1.0000
