data_image0
_chemical_formula_structural       Ca10O24P6Se
_chemical_formula_sum              "Ca10 O24 P6 Se1"
_cell_length_a       9.44397
_cell_length_b       9.44397
_cell_length_c       6.81183
_cell_angle_alpha    90
_cell_angle_beta     90
_cell_angle_gamma    120

_space_group_name_H-M_alt    "P 1"
_space_group_IT_number       1

loop_
  _space_group_symop_operation_xyz
  'x, y, z'

loop_
  _atom_site_type_symbol
  _atom_site_label
  _atom_site_symmetry_multiplicity
  _atom_site_fract_x
  _atom_site_fract_y
  _atom_site_fract_z
  _atom_site_occupancy
  Ca  Ca1       1.0  0.33300  0.66700  0.02060  1.0000
  Ca  Ca2       1.0  0.01460  0.26100  0.24900  1.0000
  Ca  Ca3       1.0  0.24600  0.98500  0.24900  1.0000
  Ca  Ca4       1.0  0.73900  0.75400  0.24900  1.0000
  Ca  Ca5       1.0  0.66700  0.33300  0.48700  1.0000
  Ca  Ca6       1.0  0.33300  0.66700  0.51300  1.0000
  Ca  Ca7       1.0  0.26100  0.24600  0.75100  1.0000
  Ca  Ca8       1.0  0.75400  0.01460  0.75100  1.0000
  Ca  Ca9       1.0  0.98500  0.73900  0.75100  1.0000
  Ca  Ca10      1.0  0.66700  0.33300  0.97900  1.0000
  O   O1        1.0  0.30300  0.23400  0.09590  1.0000
  O   O2        1.0  0.76600  0.06890  0.09590  1.0000
  O   O3        1.0  0.93100  0.69700  0.09590  1.0000
  O   O4        1.0  0.53100  0.11500  0.19600  1.0000
  O   O5        1.0  0.58400  0.46900  0.19600  1.0000
  O   O6        1.0  0.88500  0.41600  0.19600  1.0000
  O   O7        1.0  0.51600  0.84000  0.25600  1.0000
  O   O8        1.0  0.32400  0.48400  0.25600  1.0000
  O   O9        1.0  0.16000  0.67600  0.25600  1.0000
  O   O10       1.0  0.39000  0.29000  0.44900  1.0000
  O   O11       1.0  0.71000  0.10000  0.44900  1.0000
  O   O12       1.0  0.90000  0.61000  0.44900  1.0000
  O   O13       1.0  0.10000  0.39000  0.55100  1.0000
  O   O14       1.0  0.29000  0.90000  0.55100  1.0000
  O   O15       1.0  0.61000  0.71000  0.55100  1.0000
  O   O16       1.0  0.84000  0.32400  0.74400  1.0000
  O   O17       1.0  0.48400  0.16000  0.74400  1.0000
  O   O18       1.0  0.67600  0.51600  0.74400  1.0000
  O   O19       1.0  0.11500  0.58400  0.80400  1.0000
  O   O20       1.0  0.46900  0.88500  0.80400  1.0000
  O   O21       1.0  0.41600  0.53100  0.80400  1.0000
  O   O22       1.0  0.06890  0.30300  0.90400  1.0000
  O   O23       1.0  0.23400  0.93100  0.90400  1.0000
  O   O24       1.0  0.69700  0.76600  0.90400  1.0000
  P   P1        1.0  0.39900  0.37100  0.24900  1.0000
  P   P2        1.0  0.62900  0.02800  0.24900  1.0000
  P   P3        1.0  0.97200  0.60100  0.24900  1.0000
  P   P4        1.0  0.02800  0.39900  0.75100  1.0000
  P   P5        1.0  0.37100  0.97200  0.75100  1.0000
  P   P6        1.0  0.60100  0.62900  0.75100  1.0000
  Se  Se1       1.0  0.00000  0.00000  0.50000  1.0000
