data_image0
_chemical_formula_structural       Ni7O24P6Tl4
_chemical_formula_sum              "Ni7 O24 P6 Tl4"
_cell_length_a       6.66386
_cell_length_b       8.89769
_cell_length_c       8.89769
_cell_angle_alpha    106.226
_cell_angle_beta     98.0676
_cell_angle_gamma    98.0676

_space_group_name_H-M_alt    "P 1"
_space_group_IT_number       1

loop_
  _space_group_symop_operation_xyz
  'x, y, z'

loop_
  _atom_site_type_symbol
  _atom_site_label
  _atom_site_symmetry_multiplicity
  _atom_site_fract_x
  _atom_site_fract_y
  _atom_site_fract_z
  _atom_site_occupancy
  Ni  Ni1       1.0  0.18500  0.63700  0.03040  1.0000
  Ni  Ni2       1.0  0.82400  0.98300  0.36300  1.0000
  Ni  Ni3       1.0  0.00984  0.62200  0.38200  1.0000
  Ni  Ni4       1.0  0.00984  0.38200  0.62200  1.0000
  Ni  Ni5       1.0  0.18500  0.03040  0.63700  1.0000
  Ni  Ni6       1.0  0.82400  0.36300  0.98300  1.0000
  Ni  Ni7       1.0  0.99900  0.99900  0.99900  1.0000
  O   O1        1.0  0.86100  0.60300  0.02150  1.0000
  O   O2        1.0  0.50300  0.66000  0.04450  1.0000
  O   O3        1.0  0.20200  0.88600  0.10500  1.0000
  O   O4        1.0  0.80100  0.89400  0.12000  1.0000
  O   O5        1.0  0.10500  0.18900  0.18900  1.0000
  O   O6        1.0  0.87800  0.40000  0.22000  1.0000
  O   O7        1.0  0.22700  0.71700  0.27800  1.0000
  O   O8        1.0  0.78400  0.72800  0.29900  1.0000
  O   O9        1.0  0.50400  0.97100  0.33500  1.0000
  O   O10       1.0  0.14600  0.99200  0.39800  1.0000
  O   O11       1.0  0.87800  0.22000  0.40000  1.0000
  O   O12       1.0  0.17400  0.43800  0.43800  1.0000
  O   O13       1.0  0.86100  0.56100  0.56100  1.0000
  O   O14       1.0  0.86100  0.02150  0.60300  1.0000
  O   O15       1.0  0.14000  0.79000  0.60800  1.0000
  O   O16       1.0  0.50300  0.04450  0.66000  1.0000
  O   O17       1.0  0.22700  0.27800  0.71700  1.0000
  O   O18       1.0  0.78400  0.29900  0.72800  1.0000
  O   O19       1.0  0.14000  0.60800  0.79000  1.0000
  O   O20       1.0  0.89400  0.80700  0.80700  1.0000
  O   O21       1.0  0.20200  0.10500  0.88600  1.0000
  O   O22       1.0  0.80100  0.12000  0.89400  1.0000
  O   O23       1.0  0.50400  0.33500  0.97100  1.0000
  O   O24       1.0  0.14600  0.39800  0.99200  1.0000
  P   P1        1.0  0.73200  0.71600  0.11600  1.0000
  P   P2        1.0  0.27500  0.90000  0.28400  1.0000
  P   P3        1.0  0.01180  0.30500  0.30500  1.0000
  P   P4        1.0  0.00845  0.70000  0.70000  1.0000
  P   P5        1.0  0.73200  0.11600  0.71600  1.0000
  P   P6        1.0  0.27500  0.28400  0.90000  1.0000
  Tl  Tl1       1.0  0.50500  0.30400  0.30400  1.0000
  Tl  Tl2       1.0  0.53200  0.73200  0.50800  1.0000
  Tl  Tl3       1.0  0.53200  0.50800  0.73200  1.0000
  Tl  Tl4       1.0  0.47900  0.91700  0.91700  1.0000
