data_image0
_chemical_formula_structural       C18Ru12Th11
_chemical_formula_sum              "C18 Ru12 Th11"
_cell_length_a       9.36985
_cell_length_b       9.36985
_cell_length_c       9.36985
_cell_angle_alpha    109.471
_cell_angle_beta     109.471
_cell_angle_gamma    109.471

_space_group_name_H-M_alt    "P 1"
_space_group_IT_number       1

loop_
  _space_group_symop_operation_xyz
  'x, y, z'

loop_
  _atom_site_type_symbol
  _atom_site_label
  _atom_site_symmetry_multiplicity
  _atom_site_fract_x
  _atom_site_fract_y
  _atom_site_fract_z
  _atom_site_occupancy
  C   C1        1.0  0.68900  0.21500  0.00000  1.0000
  C   C2        1.0  0.43500  0.43500  0.00000  1.0000
  C   C3        1.0  0.56500  0.56500  0.00000  1.0000
  C   C4        1.0  0.21500  0.68900  0.00000  1.0000
  C   C5        1.0  0.68900  0.00000  0.21500  1.0000
  C   C6        1.0  0.00000  0.68900  0.21500  1.0000
  C   C7        1.0  0.52600  0.31100  0.31100  1.0000
  C   C8        1.0  0.31100  0.52600  0.31100  1.0000
  C   C9        1.0  0.43500  0.00000  0.43500  1.0000
  C   C10       1.0  0.00000  0.43500  0.43500  1.0000
  C   C11       1.0  0.78500  0.78500  0.47400  1.0000
  C   C12       1.0  0.31100  0.31100  0.52600  1.0000
  C   C13       1.0  0.56500  0.00000  0.56500  1.0000
  C   C14       1.0  0.00000  0.56500  0.56500  1.0000
  C   C15       1.0  0.21500  0.00000  0.68900  1.0000
  C   C16       1.0  0.00000  0.21500  0.68900  1.0000
  C   C17       1.0  0.78500  0.47400  0.78500  1.0000
  C   C18       1.0  0.47400  0.78500  0.78500  1.0000
  Ru  Ru1       1.0  0.80300  0.63300  0.00000  1.0000
  Ru  Ru2       1.0  0.63300  0.80300  0.00000  1.0000
  Ru  Ru3       1.0  0.36700  0.36700  0.17000  1.0000
  Ru  Ru4       1.0  0.83000  0.19700  0.19700  1.0000
  Ru  Ru5       1.0  0.19700  0.83000  0.19700  1.0000
  Ru  Ru6       1.0  0.36700  0.17000  0.36700  1.0000
  Ru  Ru7       1.0  0.17000  0.36700  0.36700  1.0000
  Ru  Ru8       1.0  0.80300  0.00000  0.63300  1.0000
  Ru  Ru9       1.0  0.00000  0.80300  0.63300  1.0000
  Ru  Ru10      1.0  0.63300  0.00000  0.80300  1.0000
  Ru  Ru11      1.0  0.00000  0.63300  0.80300  1.0000
  Ru  Ru12      1.0  0.19700  0.19700  0.83000  1.0000
  Th  Th1       1.0  0.00000  0.00000  0.00000  1.0000
  Th  Th2       1.0  0.40700  0.00000  0.00000  1.0000
  Th  Th3       1.0  0.00000  0.40700  0.00000  1.0000
  Th  Th4       1.0  0.75000  0.50000  0.25000  1.0000
  Th  Th5       1.0  0.50000  0.75000  0.25000  1.0000
  Th  Th6       1.0  0.00000  0.00000  0.40700  1.0000
  Th  Th7       1.0  0.75000  0.25000  0.50000  1.0000
  Th  Th8       1.0  0.25000  0.75000  0.50000  1.0000
  Th  Th9       1.0  0.59300  0.59300  0.59300  1.0000
  Th  Th10      1.0  0.50000  0.25000  0.75000  1.0000
  Th  Th11      1.0  0.25000  0.50000  0.75000  1.0000
