data_image0
_chemical_formula_structural       C4Co8Ta16
_chemical_formula_sum              "C4 Co8 Ta16"
_cell_length_a       8.23396
_cell_length_b       8.23396
_cell_length_c       8.23396
_cell_angle_alpha    120
_cell_angle_beta     90
_cell_angle_gamma    120

_space_group_name_H-M_alt    "P 1"
_space_group_IT_number       1

loop_
  _space_group_symop_operation_xyz
  'x, y, z'

loop_
  _atom_site_type_symbol
  _atom_site_label
  _atom_site_symmetry_multiplicity
  _atom_site_fract_x
  _atom_site_fract_y
  _atom_site_fract_z
  _atom_site_occupancy
  C   C1        1.0  0.00000  0.50000  0.00000  1.0000
  C   C2        1.0  0.00000  0.00000  0.50000  1.0000
  C   C3        1.0  0.00000  0.50000  0.50000  1.0000
  C   C4        1.0  0.50000  0.00000  0.50000  1.0000
  Co  Co1       1.0  0.71200  0.92300  0.13500  1.0000
  Co  Co2       1.0  0.28800  0.07680  0.21200  1.0000
  Co  Co3       1.0  0.28800  0.42300  0.21200  1.0000
  Co  Co4       1.0  0.63500  0.42300  0.21200  1.0000
  Co  Co5       1.0  0.36500  0.57700  0.78800  1.0000
  Co  Co6       1.0  0.71200  0.57700  0.78800  1.0000
  Co  Co7       1.0  0.71200  0.92300  0.78800  1.0000
  Co  Co8       1.0  0.28800  0.07680  0.86500  1.0000
  Ta  Ta1       1.0  0.00000  0.00000  0.00000  1.0000
  Ta  Ta2       1.0  0.50000  0.00000  0.00000  1.0000
  Ta  Ta3       1.0  0.50000  0.50000  0.00000  1.0000
  Ta  Ta4       1.0  0.93900  0.37700  0.18900  1.0000
  Ta  Ta5       1.0  0.93900  0.75000  0.18900  1.0000
  Ta  Ta6       1.0  0.31100  0.75000  0.18900  1.0000
  Ta  Ta7       1.0  0.06130  0.25000  0.43900  1.0000
  Ta  Ta8       1.0  0.68900  0.25000  0.43900  1.0000
  Ta  Ta9       1.0  0.68900  0.87700  0.43900  1.0000
  Ta  Ta10      1.0  0.50000  0.50000  0.50000  1.0000
  Ta  Ta11      1.0  0.31100  0.12300  0.56100  1.0000
  Ta  Ta12      1.0  0.31100  0.75000  0.56100  1.0000
  Ta  Ta13      1.0  0.93900  0.75000  0.56100  1.0000
  Ta  Ta14      1.0  0.68900  0.25000  0.81100  1.0000
  Ta  Ta15      1.0  0.06130  0.25000  0.81100  1.0000
  Ta  Ta16      1.0  0.06130  0.62300  0.81100  1.0000
