data_image0
_chemical_formula_structural       Na4Ni7O24P6
_chemical_formula_sum              "Na4 Ni7 O24 P6"
_cell_length_a       6.38104
_cell_length_b       8.70827
_cell_length_c       8.70827
_cell_angle_alpha    105.774
_cell_angle_beta     99.1393
_cell_angle_gamma    99.1393

_space_group_name_H-M_alt    "P 1"
_space_group_IT_number       1

loop_
  _space_group_symop_operation_xyz
  'x, y, z'

loop_
  _atom_site_type_symbol
  _atom_site_label
  _atom_site_symmetry_multiplicity
  _atom_site_fract_x
  _atom_site_fract_y
  _atom_site_fract_z
  _atom_site_occupancy
  Na  Na1       1.0  0.52500  0.07440  0.07440  1.0000
  Na  Na2       1.0  0.46900  0.50900  0.27400  1.0000
  Na  Na3       1.0  0.46900  0.27400  0.50900  1.0000
  Na  Na4       1.0  0.45100  0.71500  0.71500  1.0000
  Ni  Ni1       1.0  0.18300  0.64100  0.01590  1.0000
  Ni  Ni2       1.0  0.81800  0.97600  0.36300  1.0000
  Ni  Ni3       1.0  0.99800  0.62600  0.37000  1.0000
  Ni  Ni4       1.0  0.99800  0.37000  0.62600  1.0000
  Ni  Ni5       1.0  0.18300  0.01590  0.64100  1.0000
  Ni  Ni6       1.0  0.81800  0.36300  0.97600  1.0000
  Ni  Ni7       1.0  0.00189  0.00000  0.00000  1.0000
  O   O1        1.0  0.51500  0.34300  0.00838  1.0000
  O   O2        1.0  0.86400  0.60700  0.01270  1.0000
  O   O3        1.0  0.21500  0.88800  0.09960  1.0000
  O   O4        1.0  0.79000  0.90400  0.11400  1.0000
  O   O5        1.0  0.16100  0.20300  0.20300  1.0000
  O   O6        1.0  0.89500  0.39900  0.21800  1.0000
  O   O7        1.0  0.74400  0.71500  0.27500  1.0000
  O   O8        1.0  0.25800  0.71800  0.28100  1.0000
  O   O9        1.0  0.51500  0.00838  0.34300  1.0000
  O   O10       1.0  0.14300  0.98400  0.39700  1.0000
  O   O11       1.0  0.89500  0.21800  0.39900  1.0000
  O   O12       1.0  0.21000  0.45100  0.45100  1.0000
  O   O13       1.0  0.78500  0.54200  0.54200  1.0000
  O   O14       1.0  0.10000  0.77400  0.59700  1.0000
  O   O15       1.0  0.86400  0.01270  0.60700  1.0000
  O   O16       1.0  0.48800  0.98900  0.66000  1.0000
  O   O17       1.0  0.74400  0.27500  0.71500  1.0000
  O   O18       1.0  0.25800  0.28100  0.71800  1.0000
  O   O19       1.0  0.10000  0.59700  0.77400  1.0000
  O   O20       1.0  0.83900  0.79500  0.79500  1.0000
  O   O21       1.0  0.21500  0.09960  0.88800  1.0000
  O   O22       1.0  0.79000  0.11400  0.90400  1.0000
  O   O23       1.0  0.14300  0.39700  0.98400  1.0000
  O   O24       1.0  0.48800  0.66000  0.98900  1.0000
  P   P1        1.0  0.71800  0.71700  0.09070  1.0000
  P   P2        1.0  0.28600  0.90200  0.28500  1.0000
  P   P3        1.0  0.04280  0.31100  0.31100  1.0000
  P   P4        1.0  0.94600  0.68300  0.68300  1.0000
  P   P5        1.0  0.71800  0.09070  0.71700  1.0000
  P   P6        1.0  0.28600  0.28500  0.90200  1.0000
