data_image0
_chemical_formula_structural       Ag2BaGe2
_chemical_formula_sum              "Ag2 Ba1 Ge2"
_cell_length_a       4.66444
_cell_length_b       4.66444
_cell_length_c       6.33703
_cell_angle_alpha    111.594
_cell_angle_beta     111.594
_cell_angle_gamma    90

_space_group_name_H-M_alt    "P 1"
_space_group_IT_number       1

loop_
  _space_group_symop_operation_xyz
  'x, y, z'

loop_
  _atom_site_type_symbol
  _atom_site_label
  _atom_site_symmetry_multiplicity
  _atom_site_fract_x
  _atom_site_fract_y
  _atom_site_fract_z
  _atom_site_occupancy
  Ag  Ag1       1.0  0.75000  0.25000  0.50000  1.0000
  Ag  Ag2       1.0  0.25000  0.75000  0.50000  1.0000
  Ba  Ba1       1.0  0.00000  0.00000  0.00000  1.0000
  Ge  Ge1       1.0  0.61800  0.61800  0.23500  1.0000
  Ge  Ge2       1.0  0.38200  0.38200  0.76500  1.0000
