data_image0
_chemical_formula_structural       C18Mn13Tm10
_chemical_formula_sum              "C18 Mn13 Tm10"
_cell_length_a       8.62529
_cell_length_b       8.62529
_cell_length_c       8.62529
_cell_angle_alpha    109.471
_cell_angle_beta     109.471
_cell_angle_gamma    109.471

_space_group_name_H-M_alt    "P 1"
_space_group_IT_number       1

loop_
  _space_group_symop_operation_xyz
  'x, y, z'

loop_
  _atom_site_type_symbol
  _atom_site_label
  _atom_site_symmetry_multiplicity
  _atom_site_fract_x
  _atom_site_fract_y
  _atom_site_fract_z
  _atom_site_occupancy
  C   C1        1.0  0.77700  0.29500  0.00000  1.0000
  C   C2        1.0  0.43100  0.43100  0.00000  1.0000
  C   C3        1.0  0.56900  0.56900  0.00000  1.0000
  C   C4        1.0  0.29500  0.77700  0.00000  1.0000
  C   C5        1.0  0.51800  0.22300  0.22300  1.0000
  C   C6        1.0  0.22300  0.51800  0.22300  1.0000
  C   C7        1.0  0.77700  0.00000  0.29500  1.0000
  C   C8        1.0  0.00000  0.77700  0.29500  1.0000
  C   C9        1.0  0.43100  0.00000  0.43100  1.0000
  C   C10       1.0  0.00000  0.43100  0.43100  1.0000
  C   C11       1.0  0.70500  0.70500  0.48200  1.0000
  C   C12       1.0  0.22300  0.22300  0.51800  1.0000
  C   C13       1.0  0.56900  0.00000  0.56900  1.0000
  C   C14       1.0  0.00000  0.56900  0.56900  1.0000
  C   C15       1.0  0.70500  0.48200  0.70500  1.0000
  C   C16       1.0  0.48200  0.70500  0.70500  1.0000
  C   C17       1.0  0.29500  0.00000  0.77700  1.0000
  C   C18       1.0  0.00000  0.29500  0.77700  1.0000
  Mn  Mn1       1.0  0.00000  0.00000  0.00000  1.0000
  Mn  Mn2       1.0  0.33300  0.18000  0.00000  1.0000
  Mn  Mn3       1.0  0.18000  0.33300  0.00000  1.0000
  Mn  Mn4       1.0  0.82000  0.82000  0.15200  1.0000
  Mn  Mn5       1.0  0.33300  0.00000  0.18000  1.0000
  Mn  Mn6       1.0  0.00000  0.33300  0.18000  1.0000
  Mn  Mn7       1.0  0.18000  0.00000  0.33300  1.0000
  Mn  Mn8       1.0  0.00000  0.18000  0.33300  1.0000
  Mn  Mn9       1.0  0.84800  0.66700  0.66700  1.0000
  Mn  Mn10      1.0  0.66700  0.84800  0.66700  1.0000
  Mn  Mn11      1.0  0.82000  0.15200  0.82000  1.0000
  Mn  Mn12      1.0  0.15200  0.82000  0.82000  1.0000
  Mn  Mn13      1.0  0.66700  0.66700  0.84800  1.0000
  Tm  Tm1       1.0  0.58800  0.00000  0.00000  1.0000
  Tm  Tm2       1.0  0.00000  0.58800  0.00000  1.0000
  Tm  Tm3       1.0  0.75000  0.50000  0.25000  1.0000
  Tm  Tm4       1.0  0.50000  0.75000  0.25000  1.0000
  Tm  Tm5       1.0  0.41200  0.41200  0.41200  1.0000
  Tm  Tm6       1.0  0.75000  0.25000  0.50000  1.0000
  Tm  Tm7       1.0  0.25000  0.75000  0.50000  1.0000
  Tm  Tm8       1.0  0.00000  0.00000  0.58800  1.0000
  Tm  Tm9       1.0  0.50000  0.25000  0.75000  1.0000
  Tm  Tm10      1.0  0.25000  0.50000  0.75000  1.0000
