data_image0
_chemical_formula_structural       C8F6H24N2Pt
_chemical_formula_sum              "C8 F6 H24 N2 Pt1"
_cell_length_a       7.74965
_cell_length_b       7.74965
_cell_length_c       7.74965
_cell_angle_alpha    90.0193
_cell_angle_beta     119.989
_cell_angle_gamma    119.989

_space_group_name_H-M_alt    "P 1"
_space_group_IT_number       1

loop_
  _space_group_symop_operation_xyz
  'x, y, z'

loop_
  _atom_site_type_symbol
  _atom_site_label
  _atom_site_symmetry_multiplicity
  _atom_site_fract_x
  _atom_site_fract_y
  _atom_site_fract_z
  _atom_site_occupancy
  C   C1        1.0  0.31300  0.63800  0.01740  1.0000
  C   C2        1.0  0.62100  0.98300  0.29500  1.0000
  C   C3        1.0  0.68700  0.70500  0.32600  1.0000
  C   C4        1.0  0.37900  0.67400  0.36200  1.0000
  C   C5        1.0  0.62100  0.32600  0.63800  1.0000
  C   C6        1.0  0.31300  0.29500  0.67400  1.0000
  C   C7        1.0  0.37900  0.01740  0.70500  1.0000
  C   C8        1.0  0.68700  0.36200  0.98300  1.0000
  F   F1        1.0  0.35000  0.21400  0.13600  1.0000
  F   F2        1.0  0.00000  0.17900  0.17900  1.0000
  F   F3        1.0  0.07750  0.86400  0.21400  1.0000
  F   F4        1.0  0.92200  0.13600  0.78600  1.0000
  F   F5        1.0  1.00000  0.82100  0.82100  1.0000
  F   F6        1.0  0.65000  0.78600  0.86400  1.0000
  H   H1        1.0  0.78100  0.53200  0.01350  1.0000
  H   H2        1.0  0.81600  0.31800  0.03600  1.0000
  H   H3        1.0  0.59300  0.31000  0.05970  1.0000
  H   H4        1.0  0.71800  0.03600  0.22000  1.0000
  H   H5        1.0  0.48100  0.01350  0.23200  1.0000
  H   H6        1.0  0.78100  0.76800  0.24900  1.0000
  H   H7        1.0  0.59300  0.53300  0.28300  1.0000
  H   H8        1.0  0.25100  0.71700  0.31000  1.0000
  H   H9        1.0  0.28200  0.50300  0.31800  1.0000
  H   H10       1.0  0.74900  0.05970  0.46700  1.0000
  H   H11       1.0  0.48100  0.24900  0.46800  1.0000
  H   H12       1.0  0.81600  0.78000  0.49700  1.0000
  H   H13       1.0  0.18400  0.22000  0.50300  1.0000
  H   H14       1.0  0.51900  0.75100  0.53200  1.0000
  H   H15       1.0  0.25100  0.94000  0.53300  1.0000
  H   H16       1.0  0.71800  0.49700  0.68200  1.0000
  H   H17       1.0  0.74900  0.28300  0.69000  1.0000
  H   H18       1.0  0.40700  0.46700  0.71700  1.0000
  H   H19       1.0  0.21900  0.23200  0.75100  1.0000
  H   H20       1.0  0.51900  0.98700  0.76800  1.0000
  H   H21       1.0  0.28200  0.96400  0.78000  1.0000
  H   H22       1.0  0.40700  0.69000  0.94000  1.0000
  H   H23       1.0  0.18400  0.68200  0.96400  1.0000
  H   H24       1.0  0.21900  0.46800  0.98700  1.0000
  N   N1        1.0  0.50000  0.75000  0.25000  1.0000
  N   N2        1.0  0.50000  0.25000  0.75000  1.0000
  Pt  Pt1       1.0  0.00000  0.00000  0.00000  1.0000
