data_image0
_chemical_formula_structural       C6F6H24N2O2Sn
_chemical_formula_sum              "C6 F6 H24 N2 O2 Sn1"
_cell_length_a       7.08562
_cell_length_b       7.67058
_cell_length_c       7.8741
_cell_angle_alpha    115.978
_cell_angle_beta     116.739
_cell_angle_gamma    90

_space_group_name_H-M_alt    "P 1"
_space_group_IT_number       1

loop_
  _space_group_symop_operation_xyz
  'x, y, z'

loop_
  _atom_site_type_symbol
  _atom_site_label
  _atom_site_symmetry_multiplicity
  _atom_site_fract_x
  _atom_site_fract_y
  _atom_site_fract_z
  _atom_site_occupancy
  C   C1        1.0  0.34200  0.62200  0.33800  1.0000
  C   C2        1.0  0.99600  0.62200  0.33800  1.0000
  C   C3        1.0  0.72500  0.06240  0.45000  1.0000
  C   C4        1.0  0.27500  0.93800  0.55000  1.0000
  C   C5        1.0  0.00406  0.37800  0.66200  1.0000
  C   C6        1.0  0.65800  0.37800  0.66200  1.0000
  F   F1        1.0  0.23300  0.85400  0.06920  1.0000
  F   F2        1.0  0.83600  0.85400  0.06920  1.0000
  F   F3        1.0  0.15400  0.21500  0.30900  1.0000
  F   F4        1.0  0.84600  0.78500  0.69100  1.0000
  F   F5        1.0  0.16400  0.14600  0.93100  1.0000
  F   F6        1.0  0.76700  0.14600  0.93100  1.0000
  H   H1        1.0  0.42800  0.24400  0.07820  1.0000
  H   H2        1.0  0.65000  0.24400  0.07820  1.0000
  H   H3        1.0  0.27500  0.64500  0.19600  1.0000
  H   H4        1.0  0.92000  0.64500  0.19600  1.0000
  H   H5        1.0  0.30900  0.46300  0.28600  1.0000
  H   H6        1.0  0.97800  0.46300  0.28600  1.0000
  H   H7        1.0  0.54900  0.99900  0.34900  1.0000
  H   H8        1.0  0.80100  0.99900  0.34900  1.0000
  H   H9        1.0  0.69700  0.30100  0.39300  1.0000
  H   H10       1.0  0.20700  0.96700  0.41400  1.0000
  H   H11       1.0  0.51700  0.68900  0.44100  1.0000
  H   H12       1.0  0.92400  0.68900  0.44100  1.0000
  H   H13       1.0  0.07640  0.31100  0.55900  1.0000
  H   H14       1.0  0.48300  0.31100  0.55900  1.0000
  H   H15       1.0  0.79300  0.03250  0.58600  1.0000
  H   H16       1.0  0.30300  0.69900  0.60700  1.0000
  H   H17       1.0  0.19900  0.00112  0.65100  1.0000
  H   H18       1.0  0.45100  0.00112  0.65100  1.0000
  H   H19       1.0  0.02220  0.53700  0.71400  1.0000
  H   H20       1.0  0.69100  0.53700  0.71400  1.0000
  H   H21       1.0  0.07970  0.35500  0.80400  1.0000
  H   H22       1.0  0.72500  0.35500  0.80400  1.0000
  H   H23       1.0  0.35000  0.75600  0.92200  1.0000
  H   H24       1.0  0.57200  0.75600  0.92200  1.0000
  N   N1        1.0  0.23300  0.71900  0.46600  1.0000
  N   N2        1.0  0.76700  0.28100  0.53400  1.0000
  O   O1        1.0  0.58500  0.31100  0.17100  1.0000
  O   O2        1.0  0.41500  0.68900  0.82900  1.0000
  Sn  Sn1       1.0  0.00000  0.00000  0.00000  1.0000
