data_image0
_chemical_formula_structural       Er12In4S24
_chemical_formula_sum              "Er12 In4 S24"
_cell_length_a       16.4905
_cell_length_b       13.3742
_cell_length_c       3.8284
_cell_angle_alpha    90
_cell_angle_beta     90
_cell_angle_gamma    90

_space_group_name_H-M_alt    "P 1"
_space_group_IT_number       1

loop_
  _space_group_symop_operation_xyz
  'x, y, z'

loop_
  _atom_site_type_symbol
  _atom_site_label
  _atom_site_symmetry_multiplicity
  _atom_site_fract_x
  _atom_site_fract_y
  _atom_site_fract_z
  _atom_site_occupancy
  Er  Er1       1.0  0.27500  0.46500  0.25000  1.0000
  Er  Er2       1.0  0.72500  0.53500  0.25000  1.0000
  Er  Er3       1.0  0.85600  0.30800  0.25100  1.0000
  Er  Er4       1.0  0.14400  0.69200  0.25100  1.0000
  Er  Er5       1.0  0.11000  0.25200  0.26300  1.0000
  Er  Er6       1.0  0.89000  0.74800  0.26300  1.0000
  Er  Er7       1.0  0.61000  0.24800  0.73700  1.0000
  Er  Er8       1.0  0.39000  0.75200  0.73700  1.0000
  Er  Er9       1.0  0.35600  0.19200  0.74900  1.0000
  Er  Er10      1.0  0.64400  0.80800  0.74900  1.0000
  Er  Er11      1.0  0.77500  0.03490  0.75000  1.0000
  Er  Er12      1.0  0.22500  0.96500  0.75000  1.0000
  In  In1       1.0  0.50000  0.00000  0.24700  1.0000
  In  In2       1.0  0.00000  0.00000  0.35400  1.0000
  In  In3       1.0  0.50000  0.50000  0.64600  1.0000
  In  In4       1.0  0.00000  0.50000  0.75300  1.0000
  S   S1        1.0  0.59200  0.39800  0.23200  1.0000
  S   S2        1.0  0.40800  0.60200  0.23200  1.0000
  S   S3        1.0  0.71600  0.17900  0.24100  1.0000
  S   S4        1.0  0.28400  0.82100  0.24100  1.0000
  S   S5        1.0  0.48000  0.19500  0.24700  1.0000
  S   S6        1.0  0.52000  0.80500  0.24700  1.0000
  S   S7        1.0  0.25600  0.11700  0.25100  1.0000
  S   S8        1.0  0.74400  0.88300  0.25100  1.0000
  S   S9        1.0  0.88100  0.10700  0.25200  1.0000
  S   S10       1.0  0.11900  0.89300  0.25200  1.0000
  S   S11       1.0  0.10600  0.48000  0.25400  1.0000
  S   S12       1.0  0.89400  0.52000  0.25400  1.0000
  S   S13       1.0  0.60600  0.02000  0.74600  1.0000
  S   S14       1.0  0.39400  0.98000  0.74600  1.0000
  S   S15       1.0  0.38100  0.39300  0.74800  1.0000
  S   S16       1.0  0.61900  0.60700  0.74800  1.0000
  S   S17       1.0  0.75600  0.38300  0.74900  1.0000
  S   S18       1.0  0.24400  0.61700  0.74900  1.0000
  S   S19       1.0  0.98000  0.30500  0.75300  1.0000
  S   S20       1.0  0.01980  0.69500  0.75300  1.0000
  S   S21       1.0  0.21600  0.32100  0.75900  1.0000
  S   S22       1.0  0.78400  0.67900  0.75900  1.0000
  S   S23       1.0  0.09230  0.10200  0.76800  1.0000
  S   S24       1.0  0.90800  0.89800  0.76800  1.0000
