data_image0
_chemical_formula_structural       C18Lu10Mn13
_chemical_formula_sum              "C18 Lu10 Mn13"
_cell_length_a       8.57822
_cell_length_b       8.57822
_cell_length_c       8.57822
_cell_angle_alpha    109.471
_cell_angle_beta     109.471
_cell_angle_gamma    109.471

_space_group_name_H-M_alt    "P 1"
_space_group_IT_number       1

loop_
  _space_group_symop_operation_xyz
  'x, y, z'

loop_
  _atom_site_type_symbol
  _atom_site_label
  _atom_site_symmetry_multiplicity
  _atom_site_fract_x
  _atom_site_fract_y
  _atom_site_fract_z
  _atom_site_occupancy
  C   C1        1.0  0.77600  0.29600  0.00000  1.0000
  C   C2        1.0  0.43100  0.43100  0.00000  1.0000
  C   C3        1.0  0.56900  0.56900  0.00000  1.0000
  C   C4        1.0  0.29600  0.77600  0.00000  1.0000
  C   C5        1.0  0.52000  0.22400  0.22400  1.0000
  C   C6        1.0  0.22400  0.52000  0.22400  1.0000
  C   C7        1.0  0.77600  0.00000  0.29600  1.0000
  C   C8        1.0  0.00000  0.77600  0.29600  1.0000
  C   C9        1.0  0.43100  0.00000  0.43100  1.0000
  C   C10       1.0  1.00000  0.43100  0.43100  1.0000
  C   C11       1.0  0.70400  0.70400  0.48000  1.0000
  C   C12       1.0  0.22400  0.22400  0.52000  1.0000
  C   C13       1.0  0.56900  0.00000  0.56900  1.0000
  C   C14       1.0  0.00000  0.56900  0.56900  1.0000
  C   C15       1.0  0.70400  0.48000  0.70400  1.0000
  C   C16       1.0  0.48000  0.70400  0.70400  1.0000
  C   C17       1.0  0.29600  0.00000  0.77600  1.0000
  C   C18       1.0  0.00000  0.29600  0.77600  1.0000
  Lu  Lu1       1.0  0.58700  0.00000  0.00000  1.0000
  Lu  Lu2       1.0  0.00000  0.58700  0.00000  1.0000
  Lu  Lu3       1.0  0.75000  0.50000  0.25000  1.0000
  Lu  Lu4       1.0  0.50000  0.75000  0.25000  1.0000
  Lu  Lu5       1.0  0.41300  0.41300  0.41300  1.0000
  Lu  Lu6       1.0  0.75000  0.25000  0.50000  1.0000
  Lu  Lu7       1.0  0.25000  0.75000  0.50000  1.0000
  Lu  Lu8       1.0  0.00000  0.00000  0.58700  1.0000
  Lu  Lu9       1.0  0.50000  0.25000  0.75000  1.0000
  Lu  Lu10      1.0  0.25000  0.50000  0.75000  1.0000
  Mn  Mn1       1.0  0.00000  0.00000  0.00000  1.0000
  Mn  Mn2       1.0  0.33300  0.18000  0.00000  1.0000
  Mn  Mn3       1.0  0.18000  0.33300  0.00000  1.0000
  Mn  Mn4       1.0  0.82000  0.82000  0.15300  1.0000
  Mn  Mn5       1.0  0.33300  0.00000  0.18000  1.0000
  Mn  Mn6       1.0  0.00000  0.33300  0.18000  1.0000
  Mn  Mn7       1.0  0.18000  0.00000  0.33300  1.0000
  Mn  Mn8       1.0  0.00000  0.18000  0.33300  1.0000
  Mn  Mn9       1.0  0.84700  0.66700  0.66700  1.0000
  Mn  Mn10      1.0  0.66700  0.84700  0.66700  1.0000
  Mn  Mn11      1.0  0.82000  0.15300  0.82000  1.0000
  Mn  Mn12      1.0  0.15300  0.82000  0.82000  1.0000
  Mn  Mn13      1.0  0.66700  0.66700  0.84700  1.0000
