data_image0
_chemical_formula_structural       C8F6H24N2Os
_chemical_formula_sum              "C8 F6 H24 N2 Os1"
_cell_length_a       7.75152
_cell_length_b       7.75152
_cell_length_c       7.8236
_cell_angle_alpha    119.696
_cell_angle_beta     60.3043
_cell_angle_gamma    120

_space_group_name_H-M_alt    "P 1"
_space_group_IT_number       1

loop_
  _space_group_symop_operation_xyz
  'x, y, z'

loop_
  _atom_site_type_symbol
  _atom_site_label
  _atom_site_symmetry_multiplicity
  _atom_site_fract_x
  _atom_site_fract_y
  _atom_site_fract_z
  _atom_site_occupancy
  C   C1        1.0  0.32700  0.67300  0.01990  1.0000
  C   C2        1.0  0.30400  0.65000  0.33000  1.0000
  C   C3        1.0  0.01550  0.69600  0.33000  1.0000
  C   C4        1.0  0.35000  0.98500  0.33000  1.0000
  C   C5        1.0  0.65000  0.01550  0.67000  1.0000
  C   C6        1.0  0.98500  0.30400  0.67000  1.0000
  C   C7        1.0  0.69600  0.35000  0.67000  1.0000
  C   C8        1.0  0.67300  0.32700  0.98000  1.0000
  F   F1        1.0  0.85000  0.20500  0.17800  1.0000
  F   F2        1.0  0.17700  0.15000  0.17800  1.0000
  F   F3        1.0  0.79500  0.82300  0.17800  1.0000
  F   F4        1.0  0.20500  0.17700  0.82200  1.0000
  F   F5        1.0  0.82300  0.85000  0.82200  1.0000
  F   F6        1.0  0.15000  0.79500  0.82200  1.0000
  H   H1        1.0  0.71600  0.25100  0.03360  1.0000
  H   H2        1.0  0.50200  0.28400  0.03360  1.0000
  H   H3        1.0  0.74900  0.49800  0.03360  1.0000
  H   H4        1.0  0.31000  0.05380  0.26800  1.0000
  H   H5        1.0  0.94600  0.52400  0.26800  1.0000
  H   H6        1.0  0.47600  0.69000  0.26800  1.0000
  H   H7        1.0  0.52100  0.02220  0.27500  1.0000
  H   H8        1.0  0.97800  0.77400  0.27500  1.0000
  H   H9        1.0  0.22600  0.47900  0.27500  1.0000
  H   H10       1.0  0.75000  0.28800  0.49900  1.0000
  H   H11       1.0  0.03850  0.25000  0.49900  1.0000
  H   H12       1.0  0.71200  0.96100  0.49900  1.0000
  H   H13       1.0  0.28800  0.03850  0.50100  1.0000
  H   H14       1.0  0.96100  0.75000  0.50100  1.0000
  H   H15       1.0  0.25000  0.71200  0.50100  1.0000
  H   H16       1.0  0.77400  0.52100  0.72500  1.0000
  H   H17       1.0  0.02220  0.22600  0.72500  1.0000
  H   H18       1.0  0.47900  0.97800  0.72500  1.0000
  H   H19       1.0  0.52400  0.31000  0.73200  1.0000
  H   H20       1.0  0.05380  0.47600  0.73200  1.0000
  H   H21       1.0  0.69000  0.94600  0.73200  1.0000
  H   H22       1.0  0.25100  0.50200  0.96600  1.0000
  H   H23       1.0  0.49800  0.71600  0.96600  1.0000
  H   H24       1.0  0.28400  0.74900  0.96600  1.0000
  N   N1        1.0  0.24900  0.75100  0.25300  1.0000
  N   N2        1.0  0.75100  0.24900  0.74700  1.0000
  Os  Os1       1.0  0.00000  0.00000  0.00000  1.0000
