data_image0
_chemical_formula_structural       Be12O24Si6
_chemical_formula_sum              "Be12 O24 Si6"
_cell_length_a       7.69373
_cell_length_b       7.69373
_cell_length_c       7.69373
_cell_angle_alpha    107.991
_cell_angle_beta     107.991
_cell_angle_gamma    107.991

_space_group_name_H-M_alt    "P 1"
_space_group_IT_number       1

loop_
  _space_group_symop_operation_xyz
  'x, y, z'

loop_
  _atom_site_type_symbol
  _atom_site_label
  _atom_site_symmetry_multiplicity
  _atom_site_fract_x
  _atom_site_fract_y
  _atom_site_fract_z
  _atom_site_occupancy
  Be  Be1       1.0  0.87300  0.27800  0.10200  1.0000
  Be  Be2       1.0  0.72200  0.89800  0.12700  1.0000
  Be  Be3       1.0  0.61000  0.43100  0.20600  1.0000
  Be  Be4       1.0  0.10200  0.87300  0.27800  1.0000
  Be  Be5       1.0  0.56900  0.79400  0.39000  1.0000
  Be  Be6       1.0  0.20600  0.61000  0.43100  1.0000
  Be  Be7       1.0  0.79400  0.39000  0.56900  1.0000
  Be  Be8       1.0  0.43100  0.20600  0.61000  1.0000
  Be  Be9       1.0  0.89800  0.12700  0.72200  1.0000
  Be  Be10      1.0  0.39000  0.56900  0.79400  1.0000
  Be  Be11      1.0  0.27800  0.10200  0.87300  1.0000
  Be  Be12      1.0  0.12700  0.72200  0.89800  1.0000
  O   O1        1.0  0.70600  0.03770  0.00425  1.0000
  O   O2        1.0  0.00425  0.70600  0.03770  1.0000
  O   O3        1.0  0.37200  0.33700  0.04030  1.0000
  O   O4        1.0  0.74900  0.41600  0.08450  1.0000
  O   O5        1.0  0.58400  0.91600  0.25100  1.0000
  O   O6        1.0  0.96200  0.99600  0.29400  1.0000
  O   O7        1.0  0.32900  0.62500  0.29500  1.0000
  O   O8        1.0  0.62500  0.29500  0.32900  1.0000
  O   O9        1.0  0.04030  0.37200  0.33700  1.0000
  O   O10       1.0  0.33700  0.04030  0.37200  1.0000
  O   O11       1.0  0.70500  0.67100  0.37500  1.0000
  O   O12       1.0  0.08450  0.74900  0.41600  1.0000
  O   O13       1.0  0.91600  0.25100  0.58400  1.0000
  O   O14       1.0  0.29500  0.32900  0.62500  1.0000
  O   O15       1.0  0.66300  0.96000  0.62800  1.0000
  O   O16       1.0  0.96000  0.62800  0.66300  1.0000
  O   O17       1.0  0.37500  0.70500  0.67100  1.0000
  O   O18       1.0  0.67100  0.37500  0.70500  1.0000
  O   O19       1.0  0.03770  0.00425  0.70600  1.0000
  O   O20       1.0  0.41600  0.08450  0.74900  1.0000
  O   O21       1.0  0.25100  0.58400  0.91600  1.0000
  O   O22       1.0  0.62800  0.66300  0.96000  1.0000
  O   O23       1.0  0.99600  0.29400  0.96200  1.0000
  O   O24       1.0  0.29400  0.96200  0.99600  1.0000
  Si  Si1       1.0  0.23400  0.46200  0.05460  1.0000
  Si  Si2       1.0  0.46200  0.05460  0.23400  1.0000
  Si  Si3       1.0  0.05460  0.23400  0.46200  1.0000
  Si  Si4       1.0  0.94500  0.76600  0.53800  1.0000
  Si  Si5       1.0  0.53800  0.94500  0.76600  1.0000
  Si  Si6       1.0  0.76600  0.53800  0.94500  1.0000
