data_image0
_chemical_formula_structural       Ga6Li6O24Si6
_chemical_formula_sum              "Ga6 Li6 O24 Si6"
_cell_length_a       8.42252
_cell_length_b       8.42252
_cell_length_c       8.42252
_cell_angle_alpha    107.822
_cell_angle_beta     107.822
_cell_angle_gamma    107.822

_space_group_name_H-M_alt    "P 1"
_space_group_IT_number       1

loop_
  _space_group_symop_operation_xyz
  'x, y, z'

loop_
  _atom_site_type_symbol
  _atom_site_label
  _atom_site_symmetry_multiplicity
  _atom_site_fract_x
  _atom_site_fract_y
  _atom_site_fract_z
  _atom_site_occupancy
  Ga  Ga1       1.0  0.45900  0.23400  0.05460  1.0000
  Ga  Ga2       1.0  0.05460  0.45900  0.23400  1.0000
  Ga  Ga3       1.0  0.23400  0.05460  0.45900  1.0000
  Ga  Ga4       1.0  0.76900  0.94500  0.53400  1.0000
  Ga  Ga5       1.0  0.94500  0.53400  0.76900  1.0000
  Ga  Ga6       1.0  0.53400  0.76900  0.94500  1.0000
  Li  Li1       1.0  0.89300  0.72500  0.12500  1.0000
  Li  Li2       1.0  0.43600  0.60600  0.21100  1.0000
  Li  Li3       1.0  0.60600  0.21100  0.43600  1.0000
  Li  Li4       1.0  0.21100  0.43600  0.60600  1.0000
  Li  Li5       1.0  0.12500  0.89300  0.72500  1.0000
  Li  Li6       1.0  0.72500  0.12500  0.89300  1.0000
  O   O1        1.0  0.05950  0.72900  0.00613  1.0000
  O   O2        1.0  0.31000  0.35300  0.02310  1.0000
  O   O3        1.0  0.72900  0.00613  0.05950  1.0000
  O   O4        1.0  0.40500  0.75800  0.08640  1.0000
  O   O5        1.0  0.91000  0.58100  0.26200  1.0000
  O   O6        1.0  0.63300  0.35500  0.30000  1.0000
  O   O7        1.0  0.98900  0.97400  0.31000  1.0000
  O   O8        1.0  0.35300  0.02310  0.31000  1.0000
  O   O9        1.0  0.02310  0.31000  0.35300  1.0000
  O   O10       1.0  0.30000  0.63300  0.35500  1.0000
  O   O11       1.0  0.69500  0.70300  0.37700  1.0000
  O   O12       1.0  0.75800  0.08640  0.40500  1.0000
  O   O13       1.0  0.26200  0.91000  0.58100  1.0000
  O   O14       1.0  0.93900  0.63600  0.60400  1.0000
  O   O15       1.0  0.35500  0.30000  0.63300  1.0000
  O   O16       1.0  0.60400  0.93900  0.63600  1.0000
  O   O17       1.0  0.70300  0.37700  0.69500  1.0000
  O   O18       1.0  0.37700  0.69500  0.70300  1.0000
  O   O19       1.0  0.00613  0.05950  0.72900  1.0000
  O   O20       1.0  0.08640  0.40500  0.75800  1.0000
  O   O21       1.0  0.58100  0.26200  0.91000  1.0000
  O   O22       1.0  0.63600  0.60400  0.93900  1.0000
  O   O23       1.0  0.31000  0.98900  0.97400  1.0000
  O   O24       1.0  0.97400  0.31000  0.98900  1.0000
  Si  Si1       1.0  0.28100  0.87400  0.09730  1.0000
  Si  Si2       1.0  0.87400  0.09730  0.28100  1.0000
  Si  Si3       1.0  0.79600  0.56700  0.38800  1.0000
  Si  Si4       1.0  0.38800  0.79600  0.56700  1.0000
  Si  Si5       1.0  0.56700  0.38800  0.79600  1.0000
  Si  Si6       1.0  0.09730  0.28100  0.87400  1.0000
