data_image0
_chemical_formula_structural       As6Li6O24Zn6
_chemical_formula_sum              "As6 Li6 O24 Zn6"
_cell_length_a       8.68871
_cell_length_b       8.68871
_cell_length_c       8.68871
_cell_angle_alpha    107.749
_cell_angle_beta     107.749
_cell_angle_gamma    107.749

_space_group_name_H-M_alt    "P 1"
_space_group_IT_number       1

loop_
  _space_group_symop_operation_xyz
  'x, y, z'

loop_
  _atom_site_type_symbol
  _atom_site_label
  _atom_site_symmetry_multiplicity
  _atom_site_fract_x
  _atom_site_fract_y
  _atom_site_fract_z
  _atom_site_occupancy
  As  As1       1.0  0.82600  0.59300  0.00449  1.0000
  As  As2       1.0  0.29000  0.52200  0.11300  1.0000
  As  As3       1.0  0.52200  0.11300  0.29000  1.0000
  As  As4       1.0  0.11300  0.29000  0.52200  1.0000
  As  As5       1.0  0.00449  0.82600  0.59300  1.0000
  As  As6       1.0  0.59300  0.00449  0.82600  1.0000
  Li  Li1       1.0  0.93300  0.33000  0.16200  1.0000
  Li  Li2       1.0  0.16200  0.93300  0.33000  1.0000
  Li  Li3       1.0  0.61700  0.85400  0.45000  1.0000
  Li  Li4       1.0  0.85400  0.45000  0.61700  1.0000
  Li  Li5       1.0  0.45000  0.61700  0.85400  1.0000
  Li  Li6       1.0  0.33000  0.16200  0.93300  1.0000
  O   O1        1.0  0.69000  0.69900  0.02310  1.0000
  O   O2        1.0  0.07180  0.36900  0.03200  1.0000
  O   O3        1.0  0.75400  0.08560  0.03990  1.0000
  O   O4        1.0  0.36900  0.03200  0.07180  1.0000
  O   O5        1.0  0.03990  0.75400  0.08560  1.0000
  O   O6        1.0  0.41500  0.40500  0.09270  1.0000
  O   O7        1.0  0.81400  0.47700  0.13100  1.0000
  O   O8        1.0  0.63700  0.98600  0.31000  1.0000
  O   O9        1.0  0.37400  0.66900  0.33300  1.0000
  O   O10       1.0  0.03200  0.07180  0.36900  1.0000
  O   O11       1.0  0.66900  0.33300  0.37400  1.0000
  O   O12       1.0  0.09270  0.41500  0.40500  1.0000
  O   O13       1.0  0.40500  0.09270  0.41500  1.0000
  O   O14       1.0  0.78200  0.74600  0.44900  1.0000
  O   O15       1.0  0.13100  0.81400  0.47700  1.0000
  O   O16       1.0  0.98600  0.31000  0.63700  1.0000
  O   O17       1.0  0.33300  0.37400  0.66900  1.0000
  O   O18       1.0  0.69900  0.02310  0.69000  1.0000
  O   O19       1.0  0.02310  0.69000  0.69900  1.0000
  O   O20       1.0  0.44900  0.78200  0.74600  1.0000
  O   O21       1.0  0.08560  0.03990  0.75400  1.0000
  O   O22       1.0  0.74600  0.44900  0.78200  1.0000
  O   O23       1.0  0.47700  0.13100  0.81400  1.0000
  O   O24       1.0  0.31000  0.63700  0.98600  1.0000
  Zn  Zn1       1.0  0.78400  0.95000  0.18300  1.0000
  Zn  Zn2       1.0  0.66500  0.49700  0.25900  1.0000
  Zn  Zn3       1.0  0.25900  0.66500  0.49700  1.0000
  Zn  Zn4       1.0  0.49700  0.25900  0.66500  1.0000
  Zn  Zn5       1.0  0.95000  0.18300  0.78400  1.0000
  Zn  Zn6       1.0  0.18300  0.78400  0.95000  1.0000
