data_image0
_chemical_formula_structural       B6Li10Na8O18
_chemical_formula_sum              "B6 Li10 Na8 O18"
_cell_length_a       7.16267
_cell_length_b       7.16267
_cell_length_c       9.70628
_cell_angle_alpha    105.195
_cell_angle_beta     105.195
_cell_angle_gamma    61.2142

_space_group_name_H-M_alt    "P 1"
_space_group_IT_number       1

loop_
  _space_group_symop_operation_xyz
  'x, y, z'

loop_
  _atom_site_type_symbol
  _atom_site_label
  _atom_site_symmetry_multiplicity
  _atom_site_fract_x
  _atom_site_fract_y
  _atom_site_fract_z
  _atom_site_occupancy
  B   B1        1.0  0.91600  0.74800  0.09610  1.0000
  B   B2        1.0  0.60400  0.39600  0.25000  1.0000
  B   B3        1.0  0.25200  0.08400  0.40400  1.0000
  B   B4        1.0  0.74800  0.91600  0.59600  1.0000
  B   B5        1.0  0.39600  0.60400  0.75000  1.0000
  B   B6        1.0  0.08400  0.25200  0.90400  1.0000
  Li  Li1       1.0  0.70500  0.48300  0.01120  1.0000
  Li  Li2       1.0  0.01500  0.07670  0.14000  1.0000
  Li  Li3       1.0  0.27500  0.72500  0.25000  1.0000
  Li  Li4       1.0  0.92300  0.98500  0.36000  1.0000
  Li  Li5       1.0  0.51700  0.29500  0.48900  1.0000
  Li  Li6       1.0  0.48300  0.70500  0.51100  1.0000
  Li  Li7       1.0  0.07670  0.01500  0.64000  1.0000
  Li  Li8       1.0  0.72500  0.27500  0.75000  1.0000
  Li  Li9       1.0  0.98500  0.92300  0.86000  1.0000
  Li  Li10      1.0  0.29500  0.51700  0.98900  1.0000
  Na  Na1       1.0  0.36300  0.88000  0.01590  1.0000
  Na  Na2       1.0  0.22200  0.33400  0.21400  1.0000
  Na  Na3       1.0  0.66600  0.77800  0.28600  1.0000
  Na  Na4       1.0  0.12000  0.63700  0.48400  1.0000
  Na  Na5       1.0  0.88000  0.36300  0.51600  1.0000
  Na  Na6       1.0  0.33400  0.22200  0.71400  1.0000
  Na  Na7       1.0  0.77800  0.66600  0.78600  1.0000
  Na  Na8       1.0  0.63700  0.12000  0.98400  1.0000
  O   O1        1.0  0.03470  0.79000  0.02410  1.0000
  O   O2        1.0  0.71900  0.75400  0.02780  1.0000
  O   O3        1.0  0.53300  0.52500  0.14500  1.0000
  O   O4        1.0  0.99900  0.70600  0.23700  1.0000
  O   O5        1.0  0.79300  0.20700  0.25000  1.0000
  O   O6        1.0  0.29400  0.00070  0.26300  1.0000
  O   O7        1.0  0.47500  0.46700  0.35500  1.0000
  O   O8        1.0  0.24600  0.28100  0.47200  1.0000
  O   O9        1.0  0.21000  0.96500  0.47600  1.0000
  O   O10       1.0  0.79000  0.03470  0.52400  1.0000
  O   O11       1.0  0.75400  0.71900  0.52800  1.0000
  O   O12       1.0  0.52500  0.53300  0.64500  1.0000
  O   O13       1.0  0.70600  0.99900  0.73700  1.0000
  O   O14       1.0  0.20700  0.79300  0.75000  1.0000
  O   O15       1.0  0.00070  0.29400  0.76300  1.0000
  O   O16       1.0  0.46700  0.47500  0.85500  1.0000
  O   O17       1.0  0.28100  0.24600  0.97200  1.0000
  O   O18       1.0  0.96500  0.21000  0.97600  1.0000
