data_image0
_chemical_formula_structural       Ga6Ge6Li6O24
_chemical_formula_sum              "Ga6 Ge6 Li6 O24"
_cell_length_a       8.60335
_cell_length_b       8.60334
_cell_length_c       8.60335
_cell_angle_alpha    107.775
_cell_angle_beta     107.775
_cell_angle_gamma    107.775

_space_group_name_H-M_alt    "P 1"
_space_group_IT_number       1

loop_
  _space_group_symop_operation_xyz
  'x, y, z'

loop_
  _atom_site_type_symbol
  _atom_site_label
  _atom_site_symmetry_multiplicity
  _atom_site_fract_x
  _atom_site_fract_y
  _atom_site_fract_z
  _atom_site_occupancy
  Ga  Ga1       1.0  0.43800  0.61300  0.20400  1.0000
  Ga  Ga2       1.0  0.79600  0.56200  0.38700  1.0000
  Ga  Ga3       1.0  0.61300  0.20400  0.43800  1.0000
  Ga  Ga4       1.0  0.38700  0.79600  0.56200  1.0000
  Ga  Ga5       1.0  0.20400  0.43800  0.61300  1.0000
  Ga  Ga6       1.0  0.56200  0.38700  0.79600  1.0000
  Ge  Ge1       1.0  0.27500  0.86400  0.10500  1.0000
  Ge  Ge2       1.0  0.89500  0.72500  0.13600  1.0000
  Ge  Ge3       1.0  0.86400  0.10500  0.27500  1.0000
  Ge  Ge4       1.0  0.13600  0.89500  0.72500  1.0000
  Ge  Ge5       1.0  0.10500  0.27500  0.86400  1.0000
  Ge  Ge6       1.0  0.72500  0.13600  0.89500  1.0000
  Li  Li1       1.0  0.46400  0.22900  0.06630  1.0000
  Li  Li2       1.0  0.06630  0.46400  0.22900  1.0000
  Li  Li3       1.0  0.22900  0.06630  0.46400  1.0000
  Li  Li4       1.0  0.77100  0.93400  0.53600  1.0000
  Li  Li5       1.0  0.93400  0.53600  0.77100  1.0000
  Li  Li6       1.0  0.53600  0.77100  0.93400  1.0000
  O   O1        1.0  0.03930  0.72100  0.02180  1.0000
  O   O2        1.0  0.32700  0.36800  0.03540  1.0000
  O   O3        1.0  0.72100  0.02180  0.03930  1.0000
  O   O4        1.0  0.39700  0.74100  0.06710  1.0000
  O   O5        1.0  0.93300  0.60300  0.25900  1.0000
  O   O6        1.0  0.97800  0.96100  0.27900  1.0000
  O   O7        1.0  0.64600  0.32500  0.30100  1.0000
  O   O8        1.0  0.30100  0.64600  0.32500  1.0000
  O   O9        1.0  0.36800  0.03540  0.32700  1.0000
  O   O10       1.0  0.67500  0.69900  0.35400  1.0000
  O   O11       1.0  0.03540  0.32700  0.36800  1.0000
  O   O12       1.0  0.74100  0.06710  0.39700  1.0000
  O   O13       1.0  0.25900  0.93300  0.60300  1.0000
  O   O14       1.0  0.96500  0.67300  0.63200  1.0000
  O   O15       1.0  0.32500  0.30100  0.64600  1.0000
  O   O16       1.0  0.63200  0.96500  0.67300  1.0000
  O   O17       1.0  0.69900  0.35400  0.67500  1.0000
  O   O18       1.0  0.35400  0.67500  0.69900  1.0000
  O   O19       1.0  0.02180  0.03930  0.72100  1.0000
  O   O20       1.0  0.06710  0.39700  0.74100  1.0000
  O   O21       1.0  0.60300  0.25900  0.93300  1.0000
  O   O22       1.0  0.27900  0.97800  0.96100  1.0000
  O   O23       1.0  0.67300  0.63200  0.96500  1.0000
  O   O24       1.0  0.96100  0.27900  0.97800  1.0000
