data_image0
_chemical_formula_structural       Fe7H4O24P6
_chemical_formula_sum              "Fe7 H4 O24 P6"
_cell_length_a       6.54045
_cell_length_b       7.97171
_cell_length_c       9.42459
_cell_angle_alpha    103.838
_cell_angle_beta     109.469
_cell_angle_gamma    101.648

_space_group_name_H-M_alt    "P 1"
_space_group_IT_number       1

loop_
  _space_group_symop_operation_xyz
  'x, y, z'

loop_
  _atom_site_type_symbol
  _atom_site_label
  _atom_site_symmetry_multiplicity
  _atom_site_fract_x
  _atom_site_fract_y
  _atom_site_fract_z
  _atom_site_occupancy
  Fe  Fe1       1.0  0.00000  0.00000  0.00000  1.0000
  Fe  Fe2       1.0  0.39100  0.45700  0.11900  1.0000
  Fe  Fe3       1.0  0.27100  0.81300  0.27800  1.0000
  Fe  Fe4       1.0  0.94200  0.28700  0.48400  1.0000
  Fe  Fe5       1.0  0.05840  0.71300  0.51600  1.0000
  Fe  Fe6       1.0  0.72900  0.18700  0.72200  1.0000
  Fe  Fe7       1.0  0.60900  0.54300  0.88100  1.0000
  H   H1        1.0  0.81300  0.12800  0.18200  1.0000
  H   H2        1.0  0.66500  0.74300  0.41700  1.0000
  H   H3        1.0  0.33500  0.25700  0.58300  1.0000
  H   H4        1.0  0.18700  0.87200  0.81800  1.0000
  O   O1        1.0  0.76900  0.81100  0.05350  1.0000
  O   O2        1.0  0.69400  0.45900  0.07870  1.0000
  O   O3        1.0  0.89000  0.21700  0.09710  1.0000
  O   O4        1.0  0.12300  0.54300  0.16400  1.0000
  O   O5        1.0  0.27100  0.04450  0.22700  1.0000
  O   O6        1.0  0.56500  0.75600  0.24500  1.0000
  O   O7        1.0  0.77700  0.06500  0.26600  1.0000
  O   O8        1.0  0.45900  0.38200  0.31200  1.0000
  O   O9        1.0  0.99000  0.84200  0.34200  1.0000
  O   O10       1.0  0.94200  0.45800  0.34600  1.0000
  O   O11       1.0  0.25300  0.25600  0.46900  1.0000
  O   O12       1.0  0.61600  0.20100  0.49000  1.0000
  O   O13       1.0  0.38400  0.79900  0.51000  1.0000
  O   O14       1.0  0.74700  0.74400  0.53100  1.0000
  O   O15       1.0  0.05780  0.54200  0.65400  1.0000
  O   O16       1.0  0.00995  0.15800  0.65800  1.0000
  O   O17       1.0  0.54100  0.61800  0.68800  1.0000
  O   O18       1.0  0.22300  0.93500  0.73400  1.0000
  O   O19       1.0  0.43500  0.24400  0.75500  1.0000
  O   O20       1.0  0.72900  0.95600  0.77300  1.0000
  O   O21       1.0  0.87700  0.45700  0.83600  1.0000
  O   O22       1.0  0.11000  0.78300  0.90300  1.0000
  O   O23       1.0  0.30600  0.54100  0.92100  1.0000
  O   O24       1.0  0.23100  0.18900  0.94700  1.0000
  P   P1        1.0  0.91300  0.42000  0.17000  1.0000
  P   P2        1.0  0.77500  0.86000  0.22300  1.0000
  P   P3        1.0  0.40600  0.22500  0.36900  1.0000
  P   P4        1.0  0.59400  0.77500  0.63100  1.0000
  P   P5        1.0  0.22500  0.14000  0.77700  1.0000
  P   P6        1.0  0.08740  0.58000  0.83000  1.0000
