data_image0
_chemical_formula_structural       Ca10O24P6S
_chemical_formula_sum              "Ca10 O24 P6 S1"
_cell_length_a       9.40183
_cell_length_b       9.40183
_cell_length_c       6.79997
_cell_angle_alpha    90
_cell_angle_beta     90
_cell_angle_gamma    120

_space_group_name_H-M_alt    "P 1"
_space_group_IT_number       1

loop_
  _space_group_symop_operation_xyz
  'x, y, z'

loop_
  _atom_site_type_symbol
  _atom_site_label
  _atom_site_symmetry_multiplicity
  _atom_site_fract_x
  _atom_site_fract_y
  _atom_site_fract_z
  _atom_site_occupancy
  Ca  Ca1       1.0  0.33300  0.66700  0.02110  1.0000
  Ca  Ca2       1.0  0.24400  0.98800  0.25500  1.0000
  Ca  Ca3       1.0  0.01170  0.25500  0.25500  1.0000
  Ca  Ca4       1.0  0.74500  0.75600  0.25500  1.0000
  Ca  Ca5       1.0  0.66700  0.33300  0.48500  1.0000
  Ca  Ca6       1.0  0.33300  0.66700  0.51500  1.0000
  Ca  Ca7       1.0  0.98800  0.74500  0.74500  1.0000
  Ca  Ca8       1.0  0.25500  0.24400  0.74500  1.0000
  Ca  Ca9       1.0  0.75600  0.01170  0.74500  1.0000
  Ca  Ca10      1.0  0.66700  0.33300  0.97900  1.0000
  O   O1        1.0  0.30300  0.23500  0.09150  1.0000
  O   O2        1.0  0.93200  0.69700  0.09150  1.0000
  O   O3        1.0  0.76500  0.06810  0.09150  1.0000
  O   O4        1.0  0.58500  0.47000  0.19900  1.0000
  O   O5        1.0  0.88500  0.41500  0.19900  1.0000
  O   O6        1.0  0.53000  0.11500  0.19900  1.0000
  O   O7        1.0  0.32300  0.48400  0.25700  1.0000
  O   O8        1.0  0.16100  0.67700  0.25700  1.0000
  O   O9        1.0  0.51600  0.83900  0.25700  1.0000
  O   O10       1.0  0.38500  0.28400  0.44500  1.0000
  O   O11       1.0  0.89900  0.61500  0.44500  1.0000
  O   O12       1.0  0.71600  0.10100  0.44500  1.0000
  O   O13       1.0  0.28400  0.89900  0.55500  1.0000
  O   O14       1.0  0.10100  0.38500  0.55500  1.0000
  O   O15       1.0  0.61500  0.71600  0.55500  1.0000
  O   O16       1.0  0.48400  0.16100  0.74300  1.0000
  O   O17       1.0  0.67700  0.51600  0.74300  1.0000
  O   O18       1.0  0.83900  0.32300  0.74300  1.0000
  O   O19       1.0  0.47000  0.88500  0.80100  1.0000
  O   O20       1.0  0.11500  0.58500  0.80100  1.0000
  O   O21       1.0  0.41500  0.53000  0.80100  1.0000
  O   O22       1.0  0.23500  0.93200  0.90800  1.0000
  O   O23       1.0  0.69700  0.76500  0.90800  1.0000
  O   O24       1.0  0.06810  0.30300  0.90800  1.0000
  P   P1        1.0  0.97200  0.60200  0.24700  1.0000
  P   P2        1.0  0.39800  0.37000  0.24700  1.0000
  P   P3        1.0  0.63000  0.02780  0.24700  1.0000
  P   P4        1.0  0.37000  0.97200  0.75300  1.0000
  P   P5        1.0  0.02780  0.39800  0.75300  1.0000
  P   P6        1.0  0.60200  0.63000  0.75300  1.0000
  S   S1        1.0  0.00000  0.00000  0.50000  1.0000
