data_image0
_chemical_formula_structural       As12Ni30
_chemical_formula_sum              "As12 Ni30"
_cell_length_a       6.80745
_cell_length_b       6.80745
_cell_length_c       12.5115
_cell_angle_alpha    90
_cell_angle_beta     90
_cell_angle_gamma    120.003

_space_group_name_H-M_alt    "P 1"
_space_group_IT_number       1

loop_
  _space_group_symop_operation_xyz
  'x, y, z'

loop_
  _atom_site_type_symbol
  _atom_site_label
  _atom_site_symmetry_multiplicity
  _atom_site_fract_x
  _atom_site_fract_y
  _atom_site_fract_z
  _atom_site_occupancy
  As  As1       1.0  0.00000  0.00000  0.22900  1.0000
  As  As2       1.0  0.66700  0.33300  0.27100  1.0000
  As  As3       1.0  0.33300  0.66700  0.27100  1.0000
  As  As4       1.0  0.66900  0.66900  0.49800  1.0000
  As  As5       1.0  0.33100  0.00000  0.49800  1.0000
  As  As6       1.0  0.00000  0.33100  0.49800  1.0000
  As  As7       1.0  0.00000  0.00000  0.72900  1.0000
  As  As8       1.0  0.66700  0.33300  0.77100  1.0000
  As  As9       1.0  0.33300  0.66700  0.77100  1.0000
  As  As10      1.0  0.33100  0.33100  0.99800  1.0000
  As  As11      1.0  0.66900  0.00000  0.99800  1.0000
  As  As12      1.0  0.00000  0.66900  0.99800  1.0000
  Ni  Ni1       1.0  0.66700  0.33300  0.06960  1.0000
  Ni  Ni2       1.0  0.33300  0.66700  0.06960  1.0000
  Ni  Ni3       1.0  0.25200  0.00000  0.09620  1.0000
  Ni  Ni4       1.0  0.00000  0.25200  0.09620  1.0000
  Ni  Ni5       1.0  0.74800  0.74800  0.09620  1.0000
  Ni  Ni6       1.0  0.62500  0.00000  0.19500  1.0000
  Ni  Ni7       1.0  0.00000  0.62500  0.19500  1.0000
  Ni  Ni8       1.0  0.37500  0.37500  0.19500  1.0000
  Ni  Ni9       1.0  0.31000  0.00000  0.30300  1.0000
  Ni  Ni10      1.0  0.00000  0.31000  0.30300  1.0000
  Ni  Ni11      1.0  0.69000  0.69000  0.30300  1.0000
  Ni  Ni12      1.0  0.62500  0.00000  0.40700  1.0000
  Ni  Ni13      1.0  0.37500  0.37500  0.40700  1.0000
  Ni  Ni14      1.0  0.00000  0.62500  0.40700  1.0000
  Ni  Ni15      1.0  0.00000  0.00000  0.42500  1.0000
  Ni  Ni16      1.0  0.66700  0.33300  0.57000  1.0000
  Ni  Ni17      1.0  0.33300  0.66700  0.57000  1.0000
  Ni  Ni18      1.0  0.74800  0.00000  0.59600  1.0000
  Ni  Ni19      1.0  0.00000  0.74800  0.59600  1.0000
  Ni  Ni20      1.0  0.25200  0.25200  0.59600  1.0000
  Ni  Ni21      1.0  0.37500  0.00000  0.69500  1.0000
  Ni  Ni22      1.0  0.00000  0.37500  0.69500  1.0000
  Ni  Ni23      1.0  0.62500  0.62500  0.69500  1.0000
  Ni  Ni24      1.0  0.69000  0.00000  0.80300  1.0000
  Ni  Ni25      1.0  0.00000  0.69000  0.80300  1.0000
  Ni  Ni26      1.0  0.31000  0.31000  0.80300  1.0000
  Ni  Ni27      1.0  0.37500  0.00000  0.90700  1.0000
  Ni  Ni28      1.0  0.00000  0.37500  0.90700  1.0000
  Ni  Ni29      1.0  0.62500  0.62500  0.90700  1.0000
  Ni  Ni30      1.0  0.00000  0.00000  0.92500  1.0000
