data_image0
_chemical_formula_structural       Al6Ge6Li6O24
_chemical_formula_sum              "Al6 Ge6 Li6 O24"
_cell_length_a       8.49199
_cell_length_b       8.49199
_cell_length_c       8.49199
_cell_angle_alpha    107.751
_cell_angle_beta     107.751
_cell_angle_gamma    107.751

_space_group_name_H-M_alt    "P 1"
_space_group_IT_number       1

loop_
  _space_group_symop_operation_xyz
  'x, y, z'

loop_
  _atom_site_type_symbol
  _atom_site_label
  _atom_site_symmetry_multiplicity
  _atom_site_fract_x
  _atom_site_fract_y
  _atom_site_fract_z
  _atom_site_occupancy
  Al  Al1       1.0  0.43700  0.61500  0.20800  1.0000
  Al  Al2       1.0  0.79200  0.56300  0.38500  1.0000
  Al  Al3       1.0  0.61500  0.20800  0.43700  1.0000
  Al  Al4       1.0  0.38500  0.79200  0.56300  1.0000
  Al  Al5       1.0  0.20800  0.43700  0.61500  1.0000
  Al  Al6       1.0  0.56300  0.38500  0.79200  1.0000
  Ge  Ge1       1.0  0.28000  0.86500  0.10700  1.0000
  Ge  Ge2       1.0  0.89300  0.72000  0.13500  1.0000
  Ge  Ge3       1.0  0.86500  0.10700  0.28000  1.0000
  Ge  Ge4       1.0  0.13500  0.89300  0.72000  1.0000
  Ge  Ge5       1.0  0.10700  0.28000  0.86500  1.0000
  Ge  Ge6       1.0  0.72000  0.13500  0.89300  1.0000
  Li  Li1       1.0  0.46700  0.23600  0.07320  1.0000
  Li  Li2       1.0  0.07320  0.46700  0.23600  1.0000
  Li  Li3       1.0  0.23600  0.07320  0.46700  1.0000
  Li  Li4       1.0  0.76400  0.92700  0.53300  1.0000
  Li  Li5       1.0  0.92700  0.53300  0.76400  1.0000
  Li  Li6       1.0  0.53300  0.76400  0.92700  1.0000
  O   O1        1.0  0.04250  0.71800  0.02380  1.0000
  O   O2        1.0  0.71800  0.02380  0.04250  1.0000
  O   O3        1.0  0.32700  0.37600  0.04550  1.0000
  O   O4        1.0  0.40400  0.73900  0.07510  1.0000
  O   O5        1.0  0.92500  0.59600  0.26100  1.0000
  O   O6        1.0  0.97600  0.95800  0.28200  1.0000
  O   O7        1.0  0.65400  0.33500  0.31500  1.0000
  O   O8        1.0  0.37600  0.04550  0.32700  1.0000
  O   O9        1.0  0.31500  0.65400  0.33500  1.0000
  O   O10       1.0  0.66500  0.68500  0.34600  1.0000
  O   O11       1.0  0.04550  0.32700  0.37600  1.0000
  O   O12       1.0  0.73900  0.07510  0.40400  1.0000
  O   O13       1.0  0.26100  0.92500  0.59600  1.0000
  O   O14       1.0  0.95500  0.67300  0.62400  1.0000
  O   O15       1.0  0.33500  0.31500  0.65400  1.0000
  O   O16       1.0  0.68500  0.34600  0.66500  1.0000
  O   O17       1.0  0.62400  0.95500  0.67300  1.0000
  O   O18       1.0  0.34600  0.66500  0.68500  1.0000
  O   O19       1.0  0.02380  0.04250  0.71800  1.0000
  O   O20       1.0  0.07510  0.40400  0.73900  1.0000
  O   O21       1.0  0.59600  0.26100  0.92500  1.0000
  O   O22       1.0  0.67300  0.62400  0.95500  1.0000
  O   O23       1.0  0.28200  0.97600  0.95800  1.0000
  O   O24       1.0  0.95800  0.28200  0.97600  1.0000
