data_image0
_chemical_formula_structural       Al2H18MnO18P2
_chemical_formula_sum              "Al2 H18 Mn1 O18 P2"
_cell_length_a       5.1702
_cell_length_b       10.3179
_cell_length_c       6.83904
_cell_angle_alpha    106.262
_cell_angle_beta     110.246
_cell_angle_gamma    73.621

_space_group_name_H-M_alt    "P 1"
_space_group_IT_number       1

loop_
  _space_group_symop_operation_xyz
  'x, y, z'

loop_
  _atom_site_type_symbol
  _atom_site_label
  _atom_site_symmetry_multiplicity
  _atom_site_fract_x
  _atom_site_fract_y
  _atom_site_fract_z
  _atom_site_occupancy
  Al  Al1       1.0  0.00000  0.50000  0.00000  1.0000
  Al  Al2       1.0  0.00000  0.50000  0.50000  1.0000
  H   H1        1.0  0.59700  0.87500  0.02890  1.0000
  H   H2        1.0  0.91100  0.79400  0.08320  1.0000
  H   H3        1.0  0.72300  0.67600  0.30100  1.0000
  H   H4        1.0  0.35300  0.48700  0.32800  1.0000
  H   H5        1.0  0.72000  0.17600  0.34200  1.0000
  H   H6        1.0  0.25500  0.95700  0.41100  1.0000
  H   H7        1.0  0.22500  0.11500  0.42000  1.0000
  H   H8        1.0  0.15700  0.74900  0.42100  1.0000
  H   H9        1.0  0.58700  0.72600  0.49300  1.0000
  H   H10       1.0  0.41300  0.27400  0.50700  1.0000
  H   H11       1.0  0.84300  0.25100  0.57900  1.0000
  H   H12       1.0  0.77500  0.88500  0.58000  1.0000
  H   H13       1.0  0.74500  0.04300  0.58900  1.0000
  H   H14       1.0  0.28000  0.82400  0.65800  1.0000
  H   H15       1.0  0.64700  0.51300  0.67200  1.0000
  H   H16       1.0  0.27700  0.32400  0.69900  1.0000
  H   H17       1.0  0.08870  0.20600  0.91700  1.0000
  H   H18       1.0  0.40300  0.12500  0.97100  1.0000
  Mn  Mn1       1.0  0.00000  0.00000  0.00000  1.0000
  O   O1        1.0  0.16400  0.65400  0.04420  1.0000
  O   O2        1.0  0.66800  0.62600  0.05090  1.0000
  O   O3        1.0  0.70600  0.18200  0.09900  1.0000
  O   O4        1.0  0.79300  0.88900  0.10200  1.0000
  O   O5        1.0  0.14600  0.50200  0.29100  1.0000
  O   O6        1.0  0.69200  0.42900  0.29900  1.0000
  O   O7        1.0  0.25600  0.02350  0.33000  1.0000
  O   O8        1.0  0.77700  0.68900  0.46200  1.0000
  O   O9        1.0  0.71300  0.18900  0.49100  1.0000
  O   O10       1.0  0.28700  0.81100  0.50900  1.0000
  O   O11       1.0  0.22300  0.31100  0.53800  1.0000
  O   O12       1.0  0.74400  0.97700  0.67000  1.0000
  O   O13       1.0  0.30800  0.57100  0.70100  1.0000
  O   O14       1.0  0.85400  0.49800  0.70900  1.0000
  O   O15       1.0  0.20700  0.11100  0.89800  1.0000
  O   O16       1.0  0.29400  0.81800  0.90100  1.0000
  O   O17       1.0  0.33200  0.37400  0.94900  1.0000
  O   O18       1.0  0.83600  0.34600  0.95600  1.0000
  P   P1        1.0  0.64500  0.33300  0.07730  1.0000
  P   P2        1.0  0.35500  0.66700  0.92300  1.0000
