data_image0
_chemical_formula_structural       Ca6Li6O24P6
_chemical_formula_sum              "Ca6 Li6 O24 P6"
_cell_length_a       7.4669
_cell_length_b       7.4669
_cell_length_c       9.94616
_cell_angle_alpha    90
_cell_angle_beta     90
_cell_angle_gamma    120

_space_group_name_H-M_alt    "P 1"
_space_group_IT_number       1

loop_
  _space_group_symop_operation_xyz
  'x, y, z'

loop_
  _atom_site_type_symbol
  _atom_site_label
  _atom_site_symmetry_multiplicity
  _atom_site_fract_x
  _atom_site_fract_y
  _atom_site_fract_z
  _atom_site_occupancy
  Ca  Ca1       1.0  0.01600  0.53300  0.47900  1.0000
  Ca  Ca2       1.0  0.46700  0.48300  0.47900  1.0000
  Ca  Ca3       1.0  0.51700  0.98400  0.47900  1.0000
  Ca  Ca4       1.0  0.53300  0.01600  0.97900  1.0000
  Ca  Ca5       1.0  0.48300  0.46700  0.97900  1.0000
  Ca  Ca6       1.0  0.98400  0.51700  0.97900  1.0000
  Li  Li1       1.0  0.04230  0.23400  0.25700  1.0000
  Li  Li2       1.0  0.76600  0.80800  0.25700  1.0000
  Li  Li3       1.0  0.19200  0.95800  0.25700  1.0000
  Li  Li4       1.0  0.23400  0.04230  0.75700  1.0000
  Li  Li5       1.0  0.80800  0.76600  0.75700  1.0000
  Li  Li6       1.0  0.95800  0.19200  0.75700  1.0000
  O   O1        1.0  0.66700  0.33300  0.10100  1.0000
  O   O2        1.0  0.55500  0.76900  0.12700  1.0000
  O   O3        1.0  0.23100  0.78600  0.12700  1.0000
  O   O4        1.0  0.21400  0.44500  0.12700  1.0000
  O   O5        1.0  0.00000  0.00000  0.15700  1.0000
  O   O6        1.0  0.70700  0.54300  0.31200  1.0000
  O   O7        1.0  0.83600  0.29300  0.31200  1.0000
  O   O8        1.0  0.45700  0.16400  0.31200  1.0000
  O   O9        1.0  0.33300  0.66700  0.34000  1.0000
  O   O10       1.0  0.12200  0.22700  0.44700  1.0000
  O   O11       1.0  0.77300  0.89600  0.44700  1.0000
  O   O12       1.0  0.10400  0.87800  0.44700  1.0000
  O   O13       1.0  0.33300  0.66700  0.60100  1.0000
  O   O14       1.0  0.76900  0.55500  0.62700  1.0000
  O   O15       1.0  0.78600  0.23100  0.62700  1.0000
  O   O16       1.0  0.44500  0.21400  0.62700  1.0000
  O   O17       1.0  0.00000  0.00000  0.65700  1.0000
  O   O18       1.0  0.54300  0.70700  0.81200  1.0000
  O   O19       1.0  0.29300  0.83600  0.81200  1.0000
  O   O20       1.0  0.16400  0.45700  0.81200  1.0000
  O   O21       1.0  0.66700  0.33300  0.84000  1.0000
  O   O22       1.0  0.22700  0.12200  0.94700  1.0000
  O   O23       1.0  0.89600  0.77300  0.94700  1.0000
  O   O24       1.0  0.87800  0.10400  0.94700  1.0000
  P   P1        1.0  0.00000  0.00000  0.00175  1.0000
  P   P2        1.0  0.33300  0.66700  0.18500  1.0000
  P   P3        1.0  0.66700  0.33300  0.25700  1.0000
  P   P4        1.0  0.00000  0.00000  0.50200  1.0000
  P   P5        1.0  0.66700  0.33300  0.68500  1.0000
  P   P6        1.0  0.33300  0.66700  0.75700  1.0000
