data_image0
_chemical_formula_structural       Ba2Te4
_chemical_formula_sum              "Ba2 Te4"
_cell_length_a       6.8578
_cell_length_b       6.8578
_cell_length_c       6.8578
_cell_angle_alpha    96.4511
_cell_angle_beta     116.348
_cell_angle_gamma    116.348

_space_group_name_H-M_alt    "P 1"
_space_group_IT_number       1

loop_
  _space_group_symop_operation_xyz
  'x, y, z'

loop_
  _atom_site_type_symbol
  _atom_site_label
  _atom_site_symmetry_multiplicity
  _atom_site_fract_x
  _atom_site_fract_y
  _atom_site_fract_z
  _atom_site_occupancy
  Ba  Ba1       1.0  0.00000  0.25000  0.25000  1.0000
  Ba  Ba2       1.0  0.00000  0.75000  0.75000  1.0000
  Te  Te1       1.0  0.77600  0.63800  0.13800  1.0000
  Te  Te2       1.0  0.50000  0.13800  0.36200  1.0000
  Te  Te3       1.0  0.50000  0.86200  0.63800  1.0000
  Te  Te4       1.0  0.22400  0.36200  0.86200  1.0000
