data_image0
_chemical_formula_structural       As2H16Li2O20U2
_chemical_formula_sum              "As2 H16 Li2 O20 U2"
_cell_length_a       6.92971
_cell_length_b       6.92971
_cell_length_c       8.91124
_cell_angle_alpha    90
_cell_angle_beta     90
_cell_angle_gamma    90

_space_group_name_H-M_alt    "P 1"
_space_group_IT_number       1

loop_
  _space_group_symop_operation_xyz
  'x, y, z'

loop_
  _atom_site_type_symbol
  _atom_site_label
  _atom_site_symmetry_multiplicity
  _atom_site_fract_x
  _atom_site_fract_y
  _atom_site_fract_z
  _atom_site_occupancy
  As  As1       1.0  0.75000  0.25000  0.00000  1.0000
  As  As2       1.0  0.25000  0.75000  0.00000  1.0000
  H   H1        1.0  0.83400  0.06750  0.27600  1.0000
  H   H2        1.0  0.66600  0.43300  0.27600  1.0000
  H   H3        1.0  0.06750  0.66600  0.27600  1.0000
  H   H4        1.0  0.43300  0.83400  0.27600  1.0000
  H   H5        1.0  0.60700  0.59000  0.39200  1.0000
  H   H6        1.0  0.91000  0.60700  0.39200  1.0000
  H   H7        1.0  0.59000  0.89300  0.39200  1.0000
  H   H8        1.0  0.89300  0.91000  0.39200  1.0000
  H   H9        1.0  0.10700  0.09050  0.60800  1.0000
  H   H10       1.0  0.41000  0.10700  0.60800  1.0000
  H   H11       1.0  0.09050  0.39300  0.60800  1.0000
  H   H12       1.0  0.39300  0.41000  0.60800  1.0000
  H   H13       1.0  0.56700  0.16600  0.72400  1.0000
  H   H14       1.0  0.93300  0.33400  0.72400  1.0000
  H   H15       1.0  0.33400  0.56700  0.72400  1.0000
  H   H16       1.0  0.16600  0.93300  0.72400  1.0000
  Li  Li1       1.0  0.75000  0.25000  0.50000  1.0000
  Li  Li2       1.0  0.25000  0.75000  0.50000  1.0000
  O   O1        1.0  0.75000  0.75000  0.08350  1.0000
  O   O2        1.0  0.92600  0.16800  0.11800  1.0000
  O   O3        1.0  0.57400  0.33200  0.11800  1.0000
  O   O4        1.0  0.16800  0.57400  0.11800  1.0000
  O   O5        1.0  0.33200  0.92600  0.11800  1.0000
  O   O6        1.0  0.25000  0.25000  0.31700  1.0000
  O   O7        1.0  0.80200  0.02120  0.37900  1.0000
  O   O8        1.0  0.69800  0.47900  0.37900  1.0000
  O   O9        1.0  0.02120  0.69800  0.37900  1.0000
  O   O10       1.0  0.47900  0.80200  0.37900  1.0000
  O   O11       1.0  0.52100  0.19800  0.62100  1.0000
  O   O12       1.0  0.97900  0.30200  0.62100  1.0000
  O   O13       1.0  0.30200  0.52100  0.62100  1.0000
  O   O14       1.0  0.19800  0.97900  0.62100  1.0000
  O   O15       1.0  0.75000  0.75000  0.68300  1.0000
  O   O16       1.0  0.66800  0.07410  0.88200  1.0000
  O   O17       1.0  0.83200  0.42600  0.88200  1.0000
  O   O18       1.0  0.42600  0.66800  0.88200  1.0000
  O   O19       1.0  0.07410  0.83200  0.88200  1.0000
  O   O20       1.0  0.25000  0.25000  0.91700  1.0000
  U   U1        1.0  0.25000  0.25000  0.11700  1.0000
  U   U2        1.0  0.75000  0.75000  0.88300  1.0000
