data_image0
_chemical_formula_structural       H20Li4O16Sn2
_chemical_formula_sum              "H20 Li4 O16 Sn2"
_cell_length_a       4.86753
_cell_length_b       6.77023
_cell_length_c       10.0395
_cell_angle_alpha    90
_cell_angle_beta     99.8697
_cell_angle_gamma    90

_space_group_name_H-M_alt    "P 1"
_space_group_IT_number       1

loop_
  _space_group_symop_operation_xyz
  'x, y, z'

loop_
  _atom_site_type_symbol
  _atom_site_label
  _atom_site_symmetry_multiplicity
  _atom_site_fract_x
  _atom_site_fract_y
  _atom_site_fract_z
  _atom_site_occupancy
  H   H1        1.0  0.26600  0.59700  0.05370  1.0000
  H   H2        1.0  0.73100  0.70800  0.07980  1.0000
  H   H3        1.0  0.01910  0.33800  0.09870  1.0000
  H   H4        1.0  0.49800  0.94000  0.14200  1.0000
  H   H5        1.0  0.25300  0.52500  0.21000  1.0000
  H   H6        1.0  0.24700  0.02540  0.29000  1.0000
  H   H7        1.0  0.00151  0.44000  0.35800  1.0000
  H   H8        1.0  0.48100  0.83800  0.40100  1.0000
  H   H9        1.0  0.76900  0.20800  0.42000  1.0000
  H   H10       1.0  0.23400  0.09700  0.44600  1.0000
  H   H11       1.0  0.76600  0.90300  0.55400  1.0000
  H   H12       1.0  0.23100  0.79200  0.58000  1.0000
  H   H13       1.0  0.51900  0.16200  0.59900  1.0000
  H   H14       1.0  0.99800  0.56000  0.64200  1.0000
  H   H15       1.0  0.75300  0.97500  0.71000  1.0000
  H   H16       1.0  0.74700  0.47500  0.79000  1.0000
  H   H17       1.0  0.50200  0.05970  0.85800  1.0000
  H   H18       1.0  0.98100  0.66200  0.90100  1.0000
  H   H19       1.0  0.26900  0.29200  0.92000  1.0000
  H   H20       1.0  0.73400  0.40300  0.94600  1.0000
  Li  Li1       1.0  0.56800  0.27600  0.18100  1.0000
  Li  Li2       1.0  0.93200  0.77600  0.31900  1.0000
  Li  Li3       1.0  0.06820  0.22400  0.68100  1.0000
  Li  Li4       1.0  0.43200  0.72400  0.81900  1.0000
  O   O1        1.0  0.84800  0.25700  0.07130  1.0000
  O   O2        1.0  0.31600  0.48800  0.12200  1.0000
  O   O3        1.0  0.79800  0.82700  0.13000  1.0000
  O   O4        1.0  0.34400  0.03550  0.15100  1.0000
  O   O5        1.0  0.15600  0.53600  0.34900  1.0000
  O   O6        1.0  0.70200  0.32700  0.37000  1.0000
  O   O7        1.0  0.18400  0.98800  0.37800  1.0000
  O   O8        1.0  0.65200  0.75700  0.42900  1.0000
  O   O9        1.0  0.34800  0.24300  0.57100  1.0000
  O   O10       1.0  0.81600  0.01240  0.62200  1.0000
  O   O11       1.0  0.29800  0.67300  0.63000  1.0000
  O   O12       1.0  0.84400  0.46400  0.65100  1.0000
  O   O13       1.0  0.65600  0.96400  0.84900  1.0000
  O   O14       1.0  0.20200  0.17300  0.87000  1.0000
  O   O15       1.0  0.68400  0.51200  0.87800  1.0000
  O   O16       1.0  0.15200  0.74300  0.92900  1.0000
  Sn  Sn1       1.0  0.00000  0.00000  0.00000  1.0000
  Sn  Sn2       1.0  0.50000  0.50000  0.50000  1.0000
