data_image0
_chemical_formula_structural       Cd10Cl2O24P6
_chemical_formula_sum              "Cd10 Cl2 O24 P6"
_cell_length_a       9.67372
_cell_length_b       9.67377
_cell_length_c       6.53741
_cell_angle_alpha    90
_cell_angle_beta     90
_cell_angle_gamma    120

_space_group_name_H-M_alt    "P 1"
_space_group_IT_number       1

loop_
  _space_group_symop_operation_xyz
  'x, y, z'

loop_
  _atom_site_type_symbol
  _atom_site_label
  _atom_site_symmetry_multiplicity
  _atom_site_fract_x
  _atom_site_fract_y
  _atom_site_fract_z
  _atom_site_occupancy
  Cd  Cd1       1.0  0.66700  0.33300  0.00376  1.0000
  Cd  Cd2       1.0  0.01330  0.27000  0.25000  1.0000
  Cd  Cd3       1.0  0.72900  0.74300  0.25000  1.0000
  Cd  Cd4       1.0  0.25700  0.98700  0.25000  1.0000
  Cd  Cd5       1.0  0.66700  0.33300  0.49600  1.0000
  Cd  Cd6       1.0  0.33300  0.66700  0.50400  1.0000
  Cd  Cd7       1.0  0.74300  0.01330  0.75000  1.0000
  Cd  Cd8       1.0  0.27100  0.25700  0.75000  1.0000
  Cd  Cd9       1.0  0.98700  0.73000  0.75000  1.0000
  Cd  Cd10      1.0  0.33300  0.66700  0.99600  1.0000
  Cl  Cl1       1.0  0.00000  0.00000  0.25000  1.0000
  Cl  Cl2       1.0  0.00000  0.00000  0.75000  1.0000
  O   O1        1.0  0.08060  0.73700  0.06060  1.0000
  O   O2        1.0  0.26300  0.34400  0.06060  1.0000
  O   O3        1.0  0.65600  0.91900  0.06060  1.0000
  O   O4        1.0  0.65400  0.15200  0.25000  1.0000
  O   O5        1.0  0.49800  0.34600  0.25000  1.0000
  O   O6        1.0  0.84800  0.50200  0.25000  1.0000
  O   O7        1.0  0.13100  0.54100  0.25000  1.0000
  O   O8        1.0  0.45900  0.58900  0.25000  1.0000
  O   O9        1.0  0.41100  0.86900  0.25000  1.0000
  O   O10       1.0  0.26300  0.34400  0.43900  1.0000
  O   O11       1.0  0.65600  0.91900  0.43900  1.0000
  O   O12       1.0  0.08060  0.73700  0.43900  1.0000
  O   O13       1.0  0.91900  0.26300  0.56100  1.0000
  O   O14       1.0  0.34400  0.08060  0.56100  1.0000
  O   O15       1.0  0.73700  0.65600  0.56100  1.0000
  O   O16       1.0  0.58900  0.13100  0.75000  1.0000
  O   O17       1.0  0.54100  0.41100  0.75000  1.0000
  O   O18       1.0  0.86900  0.45900  0.75000  1.0000
  O   O19       1.0  0.15200  0.49800  0.75000  1.0000
  O   O20       1.0  0.50200  0.65400  0.75000  1.0000
  O   O21       1.0  0.34600  0.84800  0.75000  1.0000
  O   O22       1.0  0.34400  0.08060  0.93900  1.0000
  O   O23       1.0  0.73700  0.65600  0.93900  1.0000
  O   O24       1.0  0.91900  0.26300  0.93900  1.0000
  P   P1        1.0  0.37400  0.40100  0.25000  1.0000
  P   P2        1.0  0.02750  0.62600  0.25000  1.0000
  P   P3        1.0  0.59900  0.97200  0.25000  1.0000
  P   P4        1.0  0.40100  0.02750  0.75000  1.0000
  P   P5        1.0  0.97200  0.37400  0.75000  1.0000
  P   P6        1.0  0.62600  0.59900  0.75000  1.0000
