data_image0
_chemical_formula_structural       Co7H4O24P6
_chemical_formula_sum              "Co7 H4 O24 P6"
_cell_length_a       6.43981
_cell_length_b       9.45658
_cell_length_c       7.83473
_cell_angle_alpha    104.612
_cell_angle_beta     101.326
_cell_angle_gamma    109.311

_space_group_name_H-M_alt    "P 1"
_space_group_IT_number       1

loop_
  _space_group_symop_operation_xyz
  'x, y, z'

loop_
  _atom_site_type_symbol
  _atom_site_label
  _atom_site_symmetry_multiplicity
  _atom_site_fract_x
  _atom_site_fract_y
  _atom_site_fract_z
  _atom_site_occupancy
  Co  Co1       1.0  0.00000  0.00000  0.00000  1.0000
  Co  Co2       1.0  0.71100  0.71500  0.18500  1.0000
  Co  Co3       1.0  0.94700  0.48500  0.28400  1.0000
  Co  Co4       1.0  0.38800  0.11100  0.46000  1.0000
  Co  Co5       1.0  0.61200  0.88900  0.54000  1.0000
  Co  Co6       1.0  0.05310  0.51500  0.71600  1.0000
  Co  Co7       1.0  0.28900  0.28500  0.81500  1.0000
  H   H1        1.0  0.81700  0.18400  0.12900  1.0000
  H   H2        1.0  0.37300  0.56500  0.42700  1.0000
  H   H3        1.0  0.62700  0.43500  0.57300  1.0000
  H   H4        1.0  0.18300  0.81600  0.87100  1.0000
  O   O1        1.0  0.25800  0.23400  0.05140  1.0000
  O   O2        1.0  0.78700  0.27000  0.06810  1.0000
  O   O3        1.0  0.01180  0.66200  0.16600  1.0000
  O   O4        1.0  0.22600  0.95000  0.18800  1.0000
  O   O5        1.0  0.62000  0.49000  0.20100  1.0000
  O   O6        1.0  0.88500  0.09330  0.21400  1.0000
  O   O7        1.0  0.45100  0.77300  0.24600  1.0000
  O   O8        1.0  0.27200  0.47800  0.29600  1.0000
  O   O9        1.0  0.48400  0.31500  0.39100  1.0000
  O   O10       1.0  0.87300  0.83600  0.45700  1.0000
  O   O11       1.0  0.94800  0.34800  0.45700  1.0000
  O   O12       1.0  0.69500  0.08810  0.46700  1.0000
  O   O13       1.0  0.30500  0.91200  0.53300  1.0000
  O   O14       1.0  0.05180  0.65200  0.54300  1.0000
  O   O15       1.0  0.12700  0.16400  0.54300  1.0000
  O   O16       1.0  0.51600  0.68500  0.60900  1.0000
  O   O17       1.0  0.72800  0.52200  0.70400  1.0000
  O   O18       1.0  0.54900  0.22700  0.75400  1.0000
  O   O19       1.0  0.11500  0.90700  0.78600  1.0000
  O   O20       1.0  0.38000  0.51000  0.79900  1.0000
  O   O21       1.0  0.77400  0.05000  0.81200  1.0000
  O   O22       1.0  0.98800  0.33800  0.83400  1.0000
  O   O23       1.0  0.21300  0.73000  0.93200  1.0000
  O   O24       1.0  0.74200  0.76600  0.94900  1.0000
  P   P1        1.0  0.22600  0.78000  0.14400  1.0000
  P   P2        1.0  0.41100  0.37300  0.23200  1.0000
  P   P3        1.0  0.91400  0.17300  0.42100  1.0000
  P   P4        1.0  0.08580  0.82700  0.57900  1.0000
  P   P5        1.0  0.58900  0.62700  0.76800  1.0000
  P   P6        1.0  0.77400  0.22000  0.85600  1.0000
