data_image0
_chemical_formula_structural       Cl2O24P6Sr10
_chemical_formula_sum              "Cl2 O24 P6 Sr10"
_cell_length_a       9.8384
_cell_length_b       9.83847
_cell_length_c       7.1798
_cell_angle_alpha    90
_cell_angle_beta     90
_cell_angle_gamma    120

_space_group_name_H-M_alt    "P 1"
_space_group_IT_number       1

loop_
  _space_group_symop_operation_xyz
  'x, y, z'

loop_
  _atom_site_type_symbol
  _atom_site_label
  _atom_site_symmetry_multiplicity
  _atom_site_fract_x
  _atom_site_fract_y
  _atom_site_fract_z
  _atom_site_occupancy
  Cl  Cl1       1.0  0.00000  0.00000  0.00000  1.0000
  Cl  Cl2       1.0  0.00000  0.00000  0.50000  1.0000
  O   O1        1.0  0.73500  0.08900  0.07510  1.0000
  O   O2        1.0  0.35400  0.26500  0.07510  1.0000
  O   O3        1.0  0.91100  0.64600  0.07520  1.0000
  O   O4        1.0  0.53200  0.12000  0.25000  1.0000
  O   O5        1.0  0.88000  0.41100  0.25000  1.0000
  O   O6        1.0  0.58900  0.46800  0.25000  1.0000
  O   O7        1.0  0.33500  0.48200  0.25000  1.0000
  O   O8        1.0  0.14700  0.66500  0.25000  1.0000
  O   O9        1.0  0.51800  0.85300  0.25000  1.0000
  O   O10       1.0  0.73500  0.08900  0.42500  1.0000
  O   O11       1.0  0.35400  0.26500  0.42500  1.0000
  O   O12       1.0  0.91100  0.64600  0.42500  1.0000
  O   O13       1.0  0.64600  0.73500  0.57500  1.0000
  O   O14       1.0  0.26500  0.91100  0.57500  1.0000
  O   O15       1.0  0.08900  0.35400  0.57500  1.0000
  O   O16       1.0  0.48200  0.14700  0.75000  1.0000
  O   O17       1.0  0.85300  0.33500  0.75000  1.0000
  O   O18       1.0  0.66500  0.51800  0.75000  1.0000
  O   O19       1.0  0.41100  0.53200  0.75000  1.0000
  O   O20       1.0  0.12000  0.58900  0.75000  1.0000
  O   O21       1.0  0.46800  0.88000  0.75000  1.0000
  O   O22       1.0  0.08900  0.35400  0.92500  1.0000
  O   O23       1.0  0.64600  0.73500  0.92500  1.0000
  O   O24       1.0  0.26500  0.91100  0.92500  1.0000
  P   P1        1.0  0.62800  0.03390  0.25000  1.0000
  P   P2        1.0  0.40600  0.37200  0.25000  1.0000
  P   P3        1.0  0.96600  0.59400  0.25000  1.0000
  P   P4        1.0  0.03390  0.40600  0.75000  1.0000
  P   P5        1.0  0.59400  0.62800  0.75000  1.0000
  P   P6        1.0  0.37200  0.96600  0.75000  1.0000
  Sr  Sr1       1.0  0.33300  0.66700  0.00081  1.0000
  Sr  Sr2       1.0  0.00969  0.25600  0.25000  1.0000
  Sr  Sr3       1.0  0.74400  0.75400  0.25000  1.0000
  Sr  Sr4       1.0  0.24600  0.99000  0.25000  1.0000
  Sr  Sr5       1.0  0.33300  0.66700  0.49900  1.0000
  Sr  Sr6       1.0  0.66700  0.33300  0.50100  1.0000
  Sr  Sr7       1.0  0.75400  0.00970  0.75000  1.0000
  Sr  Sr8       1.0  0.25600  0.24600  0.75000  1.0000
  Sr  Sr9       1.0  0.99000  0.74400  0.75000  1.0000
  Sr  Sr10      1.0  0.66700  0.33300  0.99900  1.0000
