data_image0
_chemical_formula_structural       Cl6Mn16O20
_chemical_formula_sum              "Cl6 Mn16 O20"
_cell_length_a       9.35977
_cell_length_b       9.35977
_cell_length_c       9.35977
_cell_angle_alpha    88.8895
_cell_angle_beta     120.643
_cell_angle_gamma    120.643

_space_group_name_H-M_alt    "P 1"
_space_group_IT_number       1

loop_
  _space_group_symop_operation_xyz
  'x, y, z'

loop_
  _atom_site_type_symbol
  _atom_site_label
  _atom_site_symmetry_multiplicity
  _atom_site_fract_x
  _atom_site_fract_y
  _atom_site_fract_z
  _atom_site_occupancy
  Cl  Cl1       1.0  1.00000  0.30300  0.30300  1.0000
  Cl  Cl2       1.0  0.60600  0.30300  0.30300  1.0000
  Cl  Cl3       1.0  1.00000  0.69700  0.30300  1.0000
  Cl  Cl4       1.0  0.39400  0.69700  0.69700  1.0000
  Cl  Cl5       1.0  1.00000  0.30300  0.69700  1.0000
  Cl  Cl6       1.0  0.00000  0.69700  0.69700  1.0000
  Mn  Mn1       1.0  0.00000  0.00000  0.00000  1.0000
  Mn  Mn2       1.0  0.35200  0.35200  0.00000  1.0000
  Mn  Mn3       1.0  0.64800  0.64800  0.00000  1.0000
  Mn  Mn4       1.0  0.00000  0.64900  0.00052  1.0000
  Mn  Mn5       1.0  0.35200  0.00052  0.00052  1.0000
  Mn  Mn6       1.0  0.50000  0.75000  0.25000  1.0000
  Mn  Mn7       1.0  0.35200  0.35100  0.35100  1.0000
  Mn  Mn8       1.0  1.00000  0.99900  0.35100  1.0000
  Mn  Mn9       1.0  0.35200  0.00000  0.35200  1.0000
  Mn  Mn10      1.0  0.00000  0.50000  0.50000  1.0000
  Mn  Mn11      1.0  0.64800  0.00000  0.64800  1.0000
  Mn  Mn12      1.0  0.00000  0.00052  0.64900  1.0000
  Mn  Mn13      1.0  0.64800  0.64900  0.64900  1.0000
  Mn  Mn14      1.0  0.50000  0.25000  0.75000  1.0000
  Mn  Mn15      1.0  1.00000  0.35100  0.99900  1.0000
  Mn  Mn16      1.0  0.64800  0.99900  0.99900  1.0000
  O   O1        1.0  0.50000  0.59400  0.09440  1.0000
  O   O2        1.0  0.50000  0.90200  0.09770  1.0000
  O   O3        1.0  0.19500  0.59800  0.09770  1.0000
  O   O4        1.0  0.19900  0.90000  0.09900  1.0000
  O   O5        1.0  0.80100  0.90100  0.10000  1.0000
  O   O6        1.0  0.19900  0.29900  0.10000  1.0000
  O   O7        1.0  0.19900  0.10000  0.29900  1.0000
  O   O8        1.0  0.80500  0.90200  0.40200  1.0000
  O   O9        1.0  0.50000  0.59800  0.40200  1.0000
  O   O10       1.0  0.50000  0.90600  0.40600  1.0000
  O   O11       1.0  0.50000  0.09440  0.59400  1.0000
  O   O12       1.0  0.19500  0.09770  0.59800  1.0000
  O   O13       1.0  0.50000  0.40200  0.59800  1.0000
  O   O14       1.0  0.80100  0.90000  0.70100  1.0000
  O   O15       1.0  0.19900  0.09900  0.90000  1.0000
  O   O16       1.0  0.80100  0.70100  0.90000  1.0000
  O   O17       1.0  0.80100  0.10000  0.90100  1.0000
  O   O18       1.0  0.50000  0.09770  0.90200  1.0000
  O   O19       1.0  0.80500  0.40200  0.90200  1.0000
  O   O20       1.0  0.50000  0.40600  0.90600  1.0000
