data_image0
_chemical_formula_structural       Al4Ca2O8
_chemical_formula_sum              "Al4 Ca2 O8"
_cell_length_a       5.55679
_cell_length_b       3.76121
_cell_length_c       7.03057
_cell_angle_alpha    90
_cell_angle_beta     101.255
_cell_angle_gamma    90

_space_group_name_H-M_alt    "P 1"
_space_group_IT_number       1

loop_
  _space_group_symop_operation_xyz
  'x, y, z'

loop_
  _atom_site_type_symbol
  _atom_site_label
  _atom_site_symmetry_multiplicity
  _atom_site_fract_x
  _atom_site_fract_y
  _atom_site_fract_z
  _atom_site_occupancy
  Al  Al1       1.0  0.65500  0.75000  0.11300  1.0000
  Al  Al2       1.0  0.15300  0.75000  0.13100  1.0000
  Al  Al3       1.0  0.84700  0.25000  0.86900  1.0000
  Al  Al4       1.0  0.34500  0.25000  0.88700  1.0000
  Ca  Ca1       1.0  0.73200  0.25000  0.42900  1.0000
  Ca  Ca2       1.0  0.26800  0.75000  0.57100  1.0000
  O   O1        1.0  0.14200  0.25000  0.07360  1.0000
  O   O2        1.0  0.64400  0.25000  0.07590  1.0000
  O   O3        1.0  0.45700  0.75000  0.30500  1.0000
  O   O4        1.0  0.94200  0.75000  0.30900  1.0000
  O   O5        1.0  0.05790  0.25000  0.69100  1.0000
  O   O6        1.0  0.54300  0.25000  0.69500  1.0000
  O   O7        1.0  0.35600  0.75000  0.92400  1.0000
  O   O8        1.0  0.85800  0.75000  0.92600  1.0000
