data_image0
_chemical_formula_structural       Ba4Ca2Cu2F28Ga4
_chemical_formula_sum              "Ba4 Ca2 Cu2 F28 Ga4"
_cell_length_a       5.26246
_cell_length_b       7.26429
_cell_length_c       14.4958
_cell_angle_alpha    91.613
_cell_angle_beta     90
_cell_angle_gamma    111.236

_space_group_name_H-M_alt    "P 1"
_space_group_IT_number       1

loop_
  _space_group_symop_operation_xyz
  'x, y, z'

loop_
  _atom_site_type_symbol
  _atom_site_label
  _atom_site_symmetry_multiplicity
  _atom_site_fract_x
  _atom_site_fract_y
  _atom_site_fract_z
  _atom_site_occupancy
  Ba  Ba1       1.0  0.13600  0.38600  0.12000  1.0000
  Ba  Ba2       1.0  0.75000  0.61400  0.38000  1.0000
  Ba  Ba3       1.0  0.25000  0.38600  0.62000  1.0000
  Ba  Ba4       1.0  0.86400  0.61400  0.88000  1.0000
  Ca  Ca1       1.0  0.42600  0.00000  0.25000  1.0000
  Ca  Ca2       1.0  0.57400  0.00000  0.75000  1.0000
  Cu  Cu1       1.0  0.50000  0.00000  0.00000  1.0000
  Cu  Cu2       1.0  0.50000  0.00000  0.50000  1.0000
  F   F1        1.0  0.71800  0.83100  0.01590  1.0000
  F   F2        1.0  0.14600  0.73100  0.04750  1.0000
  F   F3        1.0  0.67100  0.49200  0.08940  1.0000
  F   F4        1.0  0.62600  0.11300  0.11800  1.0000
  F   F5        1.0  0.07940  0.01790  0.15600  1.0000
  F   F6        1.0  0.57800  0.74800  0.20700  1.0000
  F   F7        1.0  0.04450  0.67900  0.22500  1.0000
  F   F8        1.0  0.36600  0.32100  0.27500  1.0000
  F   F9        1.0  0.83100  0.25200  0.29300  1.0000
  F   F10       1.0  0.06160  0.98200  0.34400  1.0000
  F   F11       1.0  0.51300  0.88700  0.38200  1.0000
  F   F12       1.0  0.17900  0.50800  0.41100  1.0000
  F   F13       1.0  0.41500  0.26900  0.45200  1.0000
  F   F14       1.0  0.88700  0.16900  0.48400  1.0000
  F   F15       1.0  0.11300  0.83100  0.51600  1.0000
  F   F16       1.0  0.58500  0.73100  0.54800  1.0000
  F   F17       1.0  0.82100  0.49200  0.58900  1.0000
  F   F18       1.0  0.48700  0.11300  0.61800  1.0000
  F   F19       1.0  0.93800  0.01790  0.65600  1.0000
  F   F20       1.0  0.16900  0.74800  0.70700  1.0000
  F   F21       1.0  0.63400  0.67900  0.72500  1.0000
  F   F22       1.0  0.95600  0.32100  0.77500  1.0000
  F   F23       1.0  0.42200  0.25200  0.79300  1.0000
  F   F24       1.0  0.92100  0.98200  0.84400  1.0000
  F   F25       1.0  0.37400  0.88700  0.88200  1.0000
  F   F26       1.0  0.32900  0.50800  0.91100  1.0000
  F   F27       1.0  0.85400  0.26900  0.95200  1.0000
  F   F28       1.0  0.28200  0.16900  0.98400  1.0000
  Ga  Ga1       1.0  0.86100  0.75800  0.12400  1.0000
  Ga  Ga2       1.0  0.10400  0.24200  0.37600  1.0000
  Ga  Ga3       1.0  0.89600  0.75800  0.62400  1.0000
  Ga  Ga4       1.0  0.13900  0.24200  0.87600  1.0000
