data_image0
_chemical_formula_structural       As6H4Mg7O24
_chemical_formula_sum              "As6 H4 Mg7 O24"
_cell_length_a       6.70854
_cell_length_b       8.22586
_cell_length_c       9.69473
_cell_angle_alpha    102.267
_cell_angle_beta     112.064
_cell_angle_gamma    97.4855

_space_group_name_H-M_alt    "P 1"
_space_group_IT_number       1

loop_
  _space_group_symop_operation_xyz
  'x, y, z'

loop_
  _atom_site_type_symbol
  _atom_site_label
  _atom_site_symmetry_multiplicity
  _atom_site_fract_x
  _atom_site_fract_y
  _atom_site_fract_z
  _atom_site_occupancy
  As  As1       1.0  0.93800  0.42300  0.17600  1.0000
  As  As2       1.0  0.75600  0.79900  0.21100  1.0000
  As  As3       1.0  0.34700  0.21300  0.36300  1.0000
  As  As4       1.0  0.65300  0.78700  0.63700  1.0000
  As  As5       1.0  0.24400  0.20100  0.78900  1.0000
  As  As6       1.0  0.06180  0.57700  0.82400  1.0000
  H   H1        1.0  0.50900  0.20800  0.18800  1.0000
  H   H2        1.0  0.91000  0.15800  0.23400  1.0000
  H   H3        1.0  0.09020  0.84300  0.76600  1.0000
  H   H4        1.0  0.49100  0.79200  0.81200  1.0000
  Mg  Mg1       1.0  0.00000  0.00000  0.00000  1.0000
  Mg  Mg2       1.0  0.39900  0.45300  0.11600  1.0000
  Mg  Mg3       1.0  0.28600  0.79800  0.27600  1.0000
  Mg  Mg4       1.0  0.85700  0.31300  0.47900  1.0000
  Mg  Mg5       1.0  0.14300  0.68700  0.52100  1.0000
  Mg  Mg6       1.0  0.71400  0.20200  0.72400  1.0000
  Mg  Mg7       1.0  0.60100  0.54700  0.88400  1.0000
  O   O1        1.0  0.75400  0.79900  0.03310  1.0000
  O   O2        1.0  0.69700  0.48300  0.08900  1.0000
  O   O3        1.0  0.90000  0.20700  0.09730  1.0000
  O   O4        1.0  0.15400  0.53900  0.16000  1.0000
  O   O5        1.0  0.24700  0.01330  0.21600  1.0000
  O   O6        1.0  0.53200  0.70400  0.23200  1.0000
  O   O7        1.0  0.52800  0.31300  0.26900  1.0000
  O   O8        1.0  0.71200  0.00546  0.28300  1.0000
  O   O9        1.0  0.00709  0.78600  0.33400  1.0000
  O   O10       1.0  0.92400  0.12900  0.33800  1.0000
  O   O11       1.0  0.00082  0.45600  0.37000  1.0000
  O   O12       1.0  0.40900  0.80500  0.49500  1.0000
  O   O13       1.0  0.59100  0.19500  0.50500  1.0000
  O   O14       1.0  0.99900  0.54400  0.63000  1.0000
  O   O15       1.0  0.07630  0.87100  0.66200  1.0000
  O   O16       1.0  0.99300  0.21400  0.66600  1.0000
  O   O17       1.0  0.28800  0.99500  0.71700  1.0000
  O   O18       1.0  0.47200  0.68700  0.73100  1.0000
  O   O19       1.0  0.46800  0.29600  0.76800  1.0000
  O   O20       1.0  0.75300  0.98700  0.78400  1.0000
  O   O21       1.0  0.84600  0.46100  0.84000  1.0000
  O   O22       1.0  0.10000  0.79300  0.90300  1.0000
  O   O23       1.0  0.30300  0.51700  0.91100  1.0000
  O   O24       1.0  0.24600  0.20100  0.96700  1.0000
