data_image0
_chemical_formula_structural       H12Li6N18O6
_chemical_formula_sum              "H12 Li6 N18 O6"
_cell_length_a       9.0402
_cell_length_b       9.0402
_cell_length_c       5.29098
_cell_angle_alpha    90
_cell_angle_beta     90
_cell_angle_gamma    119.999

_space_group_name_H-M_alt    "P 1"
_space_group_IT_number       1

loop_
  _space_group_symop_operation_xyz
  'x, y, z'

loop_
  _atom_site_type_symbol
  _atom_site_label
  _atom_site_symmetry_multiplicity
  _atom_site_fract_x
  _atom_site_fract_y
  _atom_site_fract_z
  _atom_site_occupancy
  H   H1        1.0  0.80700  0.70400  0.25000  1.0000
  H   H2        1.0  0.70400  0.80700  0.25000  1.0000
  H   H3        1.0  0.89800  0.19300  0.25000  1.0000
  H   H4        1.0  0.19300  0.89800  0.25000  1.0000
  H   H5        1.0  0.29600  0.10200  0.25000  1.0000
  H   H6        1.0  0.10200  0.29600  0.25000  1.0000
  H   H7        1.0  0.29600  0.19300  0.75000  1.0000
  H   H8        1.0  0.19300  0.29600  0.75000  1.0000
  H   H9        1.0  0.80700  0.10200  0.75000  1.0000
  H   H10       1.0  0.10200  0.80700  0.75000  1.0000
  H   H11       1.0  0.89800  0.70400  0.75000  1.0000
  H   H12       1.0  0.70400  0.89800  0.75000  1.0000
  Li  Li1       1.0  0.00000  0.00000  0.00000  1.0000
  Li  Li2       1.0  0.66700  0.33300  0.00000  1.0000
  Li  Li3       1.0  0.33300  0.66700  0.00000  1.0000
  Li  Li4       1.0  0.00000  0.00000  0.50000  1.0000
  Li  Li5       1.0  0.66700  0.33300  0.50000  1.0000
  Li  Li6       1.0  0.33300  0.66700  0.50000  1.0000
  N   N1        1.0  0.84900  0.52500  0.25000  1.0000
  N   N2        1.0  0.52500  0.84900  0.25000  1.0000
  N   N3        1.0  0.59700  0.00000  0.25000  1.0000
  N   N4        1.0  1.00000  0.59700  0.25000  1.0000
  N   N5        1.0  0.67600  0.15100  0.25000  1.0000
  N   N6        1.0  0.15100  0.67600  0.25000  1.0000
  N   N7        1.0  0.47500  0.32400  0.25000  1.0000
  N   N8        1.0  0.32400  0.47500  0.25000  1.0000
  N   N9        1.0  0.40300  0.40300  0.25000  1.0000
  N   N10       1.0  0.47500  0.15100  0.75000  1.0000
  N   N11       1.0  0.15100  0.47500  0.75000  1.0000
  N   N12       1.0  0.40300  0.00000  0.75000  1.0000
  N   N13       1.0  0.00000  0.40300  0.75000  1.0000
  N   N14       1.0  0.84900  0.32400  0.75000  1.0000
  N   N15       1.0  0.32400  0.84900  0.75000  1.0000
  N   N16       1.0  0.67600  0.52500  0.75000  1.0000
  N   N17       1.0  0.52500  0.67600  0.75000  1.0000
  N   N18       1.0  0.59700  0.59700  0.75000  1.0000
  O   O1        1.0  0.18100  0.00000  0.25000  1.0000
  O   O2        1.0  0.00000  0.18100  0.25000  1.0000
  O   O3        1.0  0.81900  0.81900  0.25000  1.0000
  O   O4        1.0  0.81900  0.00000  0.75000  1.0000
  O   O5        1.0  0.18100  0.18100  0.75000  1.0000
  O   O6        1.0  0.00000  0.81900  0.75000  1.0000
