data_image0
_chemical_formula_structural       Cl2Hg4O24S6Tl6
_chemical_formula_sum              "Cl2 Hg4 O24 S6 Tl6"
_cell_length_a       7.79878
_cell_length_b       9.73455
_cell_length_c       9.84107
_cell_angle_alpha    90
_cell_angle_beta     110.59
_cell_angle_gamma    90

_space_group_name_H-M_alt    "P 1"
_space_group_IT_number       1

loop_
  _space_group_symop_operation_xyz
  'x, y, z'

loop_
  _atom_site_type_symbol
  _atom_site_label
  _atom_site_symmetry_multiplicity
  _atom_site_fract_x
  _atom_site_fract_y
  _atom_site_fract_z
  _atom_site_occupancy
  Cl  Cl1       1.0  0.49100  0.19200  0.49000  1.0000
  Cl  Cl2       1.0  0.50900  0.69200  0.51000  1.0000
  Hg  Hg1       1.0  0.75500  0.08000  0.04100  1.0000
  Hg  Hg2       1.0  0.27500  0.36100  0.49300  1.0000
  Hg  Hg3       1.0  0.72500  0.86100  0.50700  1.0000
  Hg  Hg4       1.0  0.24500  0.58000  0.95900  1.0000
  O   O1        1.0  0.57000  0.86500  0.00753  1.0000
  O   O2        1.0  0.99300  0.95700  0.04030  1.0000
  O   O3        1.0  0.51600  0.64600  0.10400  1.0000
  O   O4        1.0  0.98200  0.26300  0.10600  1.0000
  O   O5        1.0  0.87400  0.49300  0.14500  1.0000
  O   O6        1.0  0.41600  0.85900  0.18600  1.0000
  O   O7        1.0  0.20300  0.44400  0.21600  1.0000
  O   O8        1.0  0.74100  0.79900  0.26000  1.0000
  O   O9        1.0  0.73400  0.12000  0.26900  1.0000
  O   O10       1.0  0.05580  0.04090  0.35800  1.0000
  O   O11       1.0  0.96800  0.25800  0.44400  1.0000
  O   O12       1.0  0.12100  0.54700  0.47900  1.0000
  O   O13       1.0  0.87900  0.04700  0.52100  1.0000
  O   O14       1.0  0.03160  0.75800  0.55600  1.0000
  O   O15       1.0  0.94400  0.54100  0.64200  1.0000
  O   O16       1.0  0.26600  0.62000  0.73100  1.0000
  O   O17       1.0  0.25900  0.29900  0.74000  1.0000
  O   O18       1.0  0.79700  0.94400  0.78400  1.0000
  O   O19       1.0  0.58400  0.35900  0.81400  1.0000
  O   O20       1.0  0.12600  0.99300  0.85500  1.0000
  O   O21       1.0  0.01790  0.76300  0.89400  1.0000
  O   O22       1.0  0.48400  0.14600  0.89600  1.0000
  O   O23       1.0  0.00737  0.45700  0.96000  1.0000
  O   O24       1.0  0.43000  0.36500  0.99200  1.0000
  S   S1        1.0  0.01610  0.41400  0.11200  1.0000
  S   S2        1.0  0.55900  0.79800  0.14100  1.0000
  S   S3        1.0  0.91400  0.11500  0.39300  1.0000
  S   S4        1.0  0.08640  0.61500  0.60700  1.0000
  S   S5        1.0  0.44100  0.29800  0.85900  1.0000
  S   S6        1.0  0.98400  0.91400  0.88800  1.0000
  Tl  Tl1       1.0  0.31600  0.12700  0.14400  1.0000
  Tl  Tl2       1.0  0.09840  0.75900  0.26900  1.0000
  Tl  Tl3       1.0  0.67100  0.44400  0.31100  1.0000
  Tl  Tl4       1.0  0.32900  0.94400  0.68900  1.0000
  Tl  Tl5       1.0  0.90200  0.25900  0.73100  1.0000
  Tl  Tl6       1.0  0.68400  0.62700  0.85600  1.0000
