data_image0
_chemical_formula_structural       As4Cd4Na4
_chemical_formula_sum              "As4 Cd4 Na4"
_cell_length_a       7.59351
_cell_length_b       4.48756
_cell_length_c       8.08513
_cell_angle_alpha    90
_cell_angle_beta     90
_cell_angle_gamma    90

_space_group_name_H-M_alt    "P 1"
_space_group_IT_number       1

loop_
  _space_group_symop_operation_xyz
  'x, y, z'

loop_
  _atom_site_type_symbol
  _atom_site_label
  _atom_site_symmetry_multiplicity
  _atom_site_fract_x
  _atom_site_fract_y
  _atom_site_fract_z
  _atom_site_occupancy
  As  As1       1.0  0.72100  0.75000  0.10900  1.0000
  As  As2       1.0  0.22100  0.75000  0.39100  1.0000
  As  As3       1.0  0.77900  0.25000  0.60900  1.0000
  As  As4       1.0  0.27900  0.25000  0.89100  1.0000
  Cd  Cd1       1.0  0.35000  0.75000  0.07450  1.0000
  Cd  Cd2       1.0  0.85000  0.75000  0.42500  1.0000
  Cd  Cd3       1.0  0.15000  0.25000  0.57500  1.0000
  Cd  Cd4       1.0  0.65000  0.25000  0.92500  1.0000
  Na  Na1       1.0  0.01610  0.25000  0.17300  1.0000
  Na  Na2       1.0  0.51600  0.25000  0.32700  1.0000
  Na  Na3       1.0  0.48400  0.75000  0.67300  1.0000
  Na  Na4       1.0  0.98400  0.75000  0.82700  1.0000
