data_image0
_chemical_formula_structural       Au4Sr2
_chemical_formula_sum              "Au4 Sr2"
_cell_length_a       4.77858
_cell_length_b       6.06708
_cell_length_c       6.06708
_cell_angle_alpha    94.42
_cell_angle_beta     113.192
_cell_angle_gamma    66.8081

_space_group_name_H-M_alt    "P 1"
_space_group_IT_number       1

loop_
  _space_group_symop_operation_xyz
  'x, y, z'

loop_
  _atom_site_type_symbol
  _atom_site_label
  _atom_site_symmetry_multiplicity
  _atom_site_fract_x
  _atom_site_fract_y
  _atom_site_fract_z
  _atom_site_occupancy
  Au  Au1       1.0  0.04570  0.11800  0.20900  1.0000
  Au  Au2       1.0  0.54600  0.29100  0.38200  1.0000
  Au  Au3       1.0  0.45400  0.70900  0.61800  1.0000
  Au  Au4       1.0  0.95400  0.88200  0.79100  1.0000
  Sr  Sr1       1.0  0.75000  0.71000  0.21000  1.0000
  Sr  Sr2       1.0  0.25000  0.29000  0.79000  1.0000
