data_image0
_chemical_formula_structural       Hg4Rb2
_chemical_formula_sum              "Hg4 Rb2"
_cell_length_a       5.34708
_cell_length_b       6.754
_cell_length_c       6.754
_cell_angle_alpha    102.242
_cell_angle_beta     66.6813
_cell_angle_gamma    113.319

_space_group_name_H-M_alt    "P 1"
_space_group_IT_number       1

loop_
  _space_group_symop_operation_xyz
  'x, y, z'

loop_
  _atom_site_type_symbol
  _atom_site_label
  _atom_site_symmetry_multiplicity
  _atom_site_fract_x
  _atom_site_fract_y
  _atom_site_fract_z
  _atom_site_occupancy
  Hg  Hg1       1.0  0.33600  0.27100  0.09840  1.0000
  Hg  Hg2       1.0  0.66400  0.09840  0.27100  1.0000
  Hg  Hg3       1.0  0.33600  0.90200  0.72900  1.0000
  Hg  Hg4       1.0  0.66400  0.72900  0.90200  1.0000
  Rb  Rb1       1.0  0.94200  0.69200  0.30800  1.0000
  Rb  Rb2       1.0  0.05780  0.30800  0.69200  1.0000
