data_image0
_chemical_formula_structural       Se2Ta4
_chemical_formula_sum              "Se2 Ta4"
_cell_length_a       3.38662
_cell_length_b       3.38662
_cell_length_c       10.1389
_cell_angle_alpha    90
_cell_angle_beta     90
_cell_angle_gamma    90

_space_group_name_H-M_alt    "P 1"
_space_group_IT_number       1

loop_
  _space_group_symop_operation_xyz
  'x, y, z'

loop_
  _atom_site_type_symbol
  _atom_site_label
  _atom_site_symmetry_multiplicity
  _atom_site_fract_x
  _atom_site_fract_y
  _atom_site_fract_z
  _atom_site_occupancy
  Se  Se1       1.0  0.25000  0.25000  0.35800  1.0000
  Se  Se2       1.0  0.75000  0.75000  0.64200  1.0000
  Ta  Ta1       1.0  0.25000  0.25000  0.07530  1.0000
  Ta  Ta2       1.0  0.75000  0.75000  0.23700  1.0000
  Ta  Ta3       1.0  0.25000  0.25000  0.76300  1.0000
  Ta  Ta4       1.0  0.75000  0.75000  0.92500  1.0000
