data_image0
_chemical_formula_structural       Co7Na4O24P6
_chemical_formula_sum              "Co7 Na4 O24 P6"
_cell_length_a       6.45542
_cell_length_b       8.84159
_cell_length_c       8.84159
_cell_angle_alpha    107.672
_cell_angle_beta     99.3536
_cell_angle_gamma    99.3536

_space_group_name_H-M_alt    "P 1"
_space_group_IT_number       1

loop_
  _space_group_symop_operation_xyz
  'x, y, z'

loop_
  _atom_site_type_symbol
  _atom_site_label
  _atom_site_symmetry_multiplicity
  _atom_site_fract_x
  _atom_site_fract_y
  _atom_site_fract_z
  _atom_site_occupancy
  Co  Co1       1.0  0.99900  0.65500  0.33500  1.0000
  Co  Co2       1.0  0.81400  0.98600  0.35800  1.0000
  Co  Co3       1.0  0.18500  0.99600  0.63900  1.0000
  Co  Co4       1.0  0.99900  0.33500  0.65500  1.0000
  Co  Co5       1.0  0.81400  0.35800  0.98600  1.0000
  Co  Co6       1.0  0.18500  0.63900  0.99600  1.0000
  Co  Co7       1.0  0.00370  0.99800  0.99800  1.0000
  Na  Na1       1.0  0.51600  0.03670  0.03670  1.0000
  Na  Na2       1.0  0.48800  0.51300  0.29100  1.0000
  Na  Na3       1.0  0.48800  0.29100  0.51300  1.0000
  Na  Na4       1.0  0.44000  0.67600  0.67600  1.0000
  O   O1        1.0  0.86700  0.60900  0.01750  1.0000
  O   O2        1.0  0.51200  0.35100  0.02120  1.0000
  O   O3        1.0  0.22300  0.88900  0.09720  1.0000
  O   O4        1.0  0.78400  0.90200  0.10600  1.0000
  O   O5        1.0  0.14200  0.20100  0.20100  1.0000
  O   O6        1.0  0.91200  0.41400  0.23700  1.0000
  O   O7        1.0  0.71900  0.71900  0.25800  1.0000
  O   O8        1.0  0.28000  0.72100  0.26800  1.0000
  O   O9        1.0  0.51200  0.02120  0.35100  1.0000
  O   O10       1.0  0.13200  0.96200  0.38700  1.0000
  O   O11       1.0  0.91200  0.23700  0.41400  1.0000
  O   O12       1.0  0.24800  0.45000  0.45000  1.0000
  O   O13       1.0  0.72100  0.54500  0.54500  1.0000
  O   O14       1.0  0.06970  0.74900  0.57600  1.0000
  O   O15       1.0  0.86700  0.01750  0.60900  1.0000
  O   O16       1.0  0.48700  0.96100  0.65300  1.0000
  O   O17       1.0  0.71900  0.25800  0.71900  1.0000
  O   O18       1.0  0.28000  0.26800  0.72100  1.0000
  O   O19       1.0  0.06970  0.57600  0.74900  1.0000
  O   O20       1.0  0.85400  0.79600  0.79600  1.0000
  O   O21       1.0  0.22300  0.09720  0.88900  1.0000
  O   O22       1.0  0.78400  0.10600  0.90200  1.0000
  O   O23       1.0  0.48700  0.65300  0.96100  1.0000
  O   O24       1.0  0.13200  0.38700  0.96200  1.0000
  P   P1        1.0  0.70900  0.71600  0.07760  1.0000
  P   P2        1.0  0.29200  0.90300  0.28000  1.0000
  P   P3        1.0  0.05820  0.32400  0.32400  1.0000
  P   P4        1.0  0.91800  0.66700  0.66700  1.0000
  P   P5        1.0  0.70900  0.07760  0.71600  1.0000
  P   P6        1.0  0.29200  0.28000  0.90300  1.0000
