data_image0
_chemical_formula_structural       Cl2Hg4O24Rb6S6
_chemical_formula_sum              "Cl2 Hg4 O24 Rb6 S6"
_cell_length_a       7.79552
_cell_length_b       9.76668
_cell_length_c       9.91065
_cell_angle_alpha    90
_cell_angle_beta     111.061
_cell_angle_gamma    90

_space_group_name_H-M_alt    "P 1"
_space_group_IT_number       1

loop_
  _space_group_symop_operation_xyz
  'x, y, z'

loop_
  _atom_site_type_symbol
  _atom_site_label
  _atom_site_symmetry_multiplicity
  _atom_site_fract_x
  _atom_site_fract_y
  _atom_site_fract_z
  _atom_site_occupancy
  Cl  Cl1       1.0  0.48500  0.81500  0.48300  1.0000
  Cl  Cl2       1.0  0.51500  0.31500  0.51700  1.0000
  Hg  Hg1       1.0  0.75800  0.92800  0.04580  1.0000
  Hg  Hg2       1.0  0.27000  0.64900  0.49300  1.0000
  Hg  Hg3       1.0  0.73000  0.14900  0.50700  1.0000
  Hg  Hg4       1.0  0.24200  0.42800  0.95400  1.0000
  O   O1        1.0  0.56100  0.13500  0.01330  1.0000
  O   O2        1.0  0.98800  0.05340  0.04140  1.0000
  O   O3        1.0  0.51400  0.35900  0.09760  1.0000
  O   O4        1.0  0.98700  0.74600  0.10400  1.0000
  O   O5        1.0  0.89100  0.51500  0.14900  1.0000
  O   O6        1.0  0.41000  0.15500  0.19100  1.0000
  O   O7        1.0  0.21800  0.57100  0.21200  1.0000
  O   O8        1.0  0.73600  0.21100  0.26000  1.0000
  O   O9        1.0  0.72900  0.88500  0.27000  1.0000
  O   O10       1.0  0.05000  0.96600  0.36000  1.0000
  O   O11       1.0  0.96400  0.75000  0.44700  1.0000
  O   O12       1.0  0.12600  0.45900  0.47800  1.0000
  O   O13       1.0  0.87400  0.95900  0.52200  1.0000
  O   O14       1.0  0.03560  0.25000  0.55300  1.0000
  O   O15       1.0  0.95000  0.46600  0.64000  1.0000
  O   O16       1.0  0.27100  0.38500  0.73000  1.0000
  O   O17       1.0  0.26400  0.71100  0.74000  1.0000
  O   O18       1.0  0.78200  0.07100  0.78800  1.0000
  O   O19       1.0  0.59000  0.65500  0.80900  1.0000
  O   O20       1.0  0.10900  0.01520  0.85100  1.0000
  O   O21       1.0  0.01310  0.24600  0.89600  1.0000
  O   O22       1.0  0.48600  0.85900  0.90200  1.0000
  O   O23       1.0  0.01220  0.55300  0.95900  1.0000
  O   O24       1.0  0.43900  0.63500  0.98700  1.0000
  Rb  Rb1       1.0  0.32100  0.88000  0.13300  1.0000
  Rb  Rb2       1.0  0.10300  0.25000  0.26700  1.0000
  Rb  Rb3       1.0  0.67000  0.55600  0.31600  1.0000
  Rb  Rb4       1.0  0.33000  0.05610  0.68400  1.0000
  Rb  Rb5       1.0  0.89700  0.75000  0.73300  1.0000
  Rb  Rb6       1.0  0.67900  0.38000  0.86700  1.0000
  S   S1        1.0  0.02530  0.59600  0.11200  1.0000
  S   S2        1.0  0.55300  0.20900  0.14300  1.0000
  S   S3        1.0  0.90900  0.89100  0.39500  1.0000
  S   S4        1.0  0.09120  0.39100  0.60500  1.0000
  S   S5        1.0  0.44700  0.70900  0.85700  1.0000
  S   S6        1.0  0.97500  0.09620  0.88800  1.0000
