data_image0
_chemical_formula_structural       Bi20Ca22
_chemical_formula_sum              "Bi20 Ca22"
_cell_length_a       12.2983
_cell_length_b       12.2983
_cell_length_c       12.4425
_cell_angle_alpha    119.617
_cell_angle_beta     119.617
_cell_angle_gamma    90

_space_group_name_H-M_alt    "P 1"
_space_group_IT_number       1

loop_
  _space_group_symop_operation_xyz
  'x, y, z'

loop_
  _atom_site_type_symbol
  _atom_site_label
  _atom_site_symmetry_multiplicity
  _atom_site_fract_x
  _atom_site_fract_y
  _atom_site_fract_z
  _atom_site_occupancy
  Bi  Bi1       1.0  0.34800  0.00000  0.00000  1.0000
  Bi  Bi2       1.0  0.65200  0.00000  0.00000  1.0000
  Bi  Bi3       1.0  0.00000  0.34800  0.00000  1.0000
  Bi  Bi4       1.0  0.36900  0.36900  0.00000  1.0000
  Bi  Bi5       1.0  0.63100  0.36900  0.00000  1.0000
  Bi  Bi6       1.0  0.36900  0.63100  0.00000  1.0000
  Bi  Bi7       1.0  0.63100  0.63100  0.00000  1.0000
  Bi  Bi8       1.0  0.00000  0.65200  0.00000  1.0000
  Bi  Bi9       1.0  0.12800  0.12800  0.25600  1.0000
  Bi  Bi10      1.0  0.46800  0.46800  0.34500  1.0000
  Bi  Bi11      1.0  0.87700  0.46800  0.34500  1.0000
  Bi  Bi12      1.0  0.46800  0.87700  0.34500  1.0000
  Bi  Bi13      1.0  0.87700  0.87700  0.34500  1.0000
  Bi  Bi14      1.0  0.75000  0.25000  0.50000  1.0000
  Bi  Bi15      1.0  0.25000  0.75000  0.50000  1.0000
  Bi  Bi16      1.0  0.12300  0.12300  0.65500  1.0000
  Bi  Bi17      1.0  0.53200  0.12300  0.65500  1.0000
  Bi  Bi18      1.0  0.12300  0.53200  0.65500  1.0000
  Bi  Bi19      1.0  0.53200  0.53200  0.65500  1.0000
  Bi  Bi20      1.0  0.87200  0.87200  0.74400  1.0000
  Ca  Ca1       1.0  0.15900  0.15900  0.00000  1.0000
  Ca  Ca2       1.0  0.84100  0.15900  0.00000  1.0000
  Ca  Ca3       1.0  0.15900  0.84100  0.00000  1.0000
  Ca  Ca4       1.0  0.84100  0.84100  0.00000  1.0000
  Ca  Ca5       1.0  0.60400  0.26200  0.20700  1.0000
  Ca  Ca6       1.0  0.26200  0.60400  0.20700  1.0000
  Ca  Ca7       1.0  0.94500  0.60400  0.20700  1.0000
  Ca  Ca8       1.0  0.60400  0.94500  0.20700  1.0000
  Ca  Ca9       1.0  0.66300  0.66300  0.32700  1.0000
  Ca  Ca10      1.0  0.44100  0.19000  0.38100  1.0000
  Ca  Ca11      1.0  0.94000  0.19000  0.38100  1.0000
  Ca  Ca12      1.0  0.19000  0.44100  0.38100  1.0000
  Ca  Ca13      1.0  0.19000  0.94000  0.38100  1.0000
  Ca  Ca14      1.0  0.81000  0.06040  0.61900  1.0000
  Ca  Ca15      1.0  0.81000  0.55900  0.61900  1.0000
  Ca  Ca16      1.0  0.06040  0.81000  0.61900  1.0000
  Ca  Ca17      1.0  0.55900  0.81000  0.61900  1.0000
  Ca  Ca18      1.0  0.33700  0.33700  0.67300  1.0000
  Ca  Ca19      1.0  0.39600  0.05520  0.79300  1.0000
  Ca  Ca20      1.0  0.05520  0.39600  0.79300  1.0000
  Ca  Ca21      1.0  0.73800  0.39600  0.79300  1.0000
  Ca  Ca22      1.0  0.39600  0.73800  0.79300  1.0000
