data_image0
_chemical_formula_structural       Co6Li4O24Se8
_chemical_formula_sum              "Co6 Li4 O24 Se8"
_cell_length_a       8.02159
_cell_length_b       9.2389
_cell_length_c       7.73276
_cell_angle_alpha    90
_cell_angle_beta     115.87
_cell_angle_gamma    90

_space_group_name_H-M_alt    "P 1"
_space_group_IT_number       1

loop_
  _space_group_symop_operation_xyz
  'x, y, z'

loop_
  _atom_site_type_symbol
  _atom_site_label
  _atom_site_symmetry_multiplicity
  _atom_site_fract_x
  _atom_site_fract_y
  _atom_site_fract_z
  _atom_site_occupancy
  Co  Co1       1.0  0.00000  0.00000  0.00000  1.0000
  Co  Co2       1.0  0.71100  0.98900  0.17300  1.0000
  Co  Co3       1.0  0.28900  0.48900  0.32700  1.0000
  Co  Co4       1.0  0.00000  0.50000  0.50000  1.0000
  Co  Co5       1.0  0.71100  0.51100  0.67300  1.0000
  Co  Co6       1.0  0.28900  0.01080  0.82700  1.0000
  Li  Li1       1.0  0.89800  0.64200  0.07710  1.0000
  Li  Li2       1.0  0.10200  0.14200  0.42300  1.0000
  Li  Li3       1.0  0.89800  0.85800  0.57700  1.0000
  Li  Li4       1.0  0.10200  0.35800  0.92300  1.0000
  O   O1        1.0  0.14000  0.60200  0.05780  1.0000
  O   O2        1.0  0.83300  0.13400  0.07040  1.0000
  O   O3        1.0  0.46200  0.09990  0.09280  1.0000
  O   O4        1.0  0.32800  0.33800  0.16300  1.0000
  O   O5        1.0  0.95900  0.85000  0.18400  1.0000
  O   O6        1.0  0.21500  0.07960  0.24400  1.0000
  O   O7        1.0  0.78500  0.58000  0.25600  1.0000
  O   O8        1.0  0.04140  0.35000  0.31600  1.0000
  O   O9        1.0  0.67200  0.83800  0.33700  1.0000
  O   O10       1.0  0.53800  0.60000  0.40700  1.0000
  O   O11       1.0  0.16700  0.63400  0.43000  1.0000
  O   O12       1.0  0.86000  0.10200  0.44200  1.0000
  O   O13       1.0  0.14000  0.89800  0.55800  1.0000
  O   O14       1.0  0.83300  0.36600  0.57000  1.0000
  O   O15       1.0  0.46200  0.40000  0.59300  1.0000
  O   O16       1.0  0.32800  0.16200  0.66300  1.0000
  O   O17       1.0  0.95900  0.65000  0.68400  1.0000
  O   O18       1.0  0.21500  0.42000  0.74400  1.0000
  O   O19       1.0  0.78500  0.92000  0.75600  1.0000
  O   O20       1.0  0.04140  0.15000  0.81600  1.0000
  O   O21       1.0  0.67200  0.66200  0.83700  1.0000
  O   O22       1.0  0.53800  0.90000  0.90700  1.0000
  O   O23       1.0  0.16700  0.86600  0.93000  1.0000
  O   O24       1.0  0.86000  0.39800  0.94200  1.0000
  Se  Se1       1.0  0.82300  0.31800  0.12300  1.0000
  Se  Se2       1.0  0.59000  0.67300  0.23000  1.0000
  Se  Se3       1.0  0.41000  0.17300  0.27000  1.0000
  Se  Se4       1.0  0.17700  0.81800  0.37700  1.0000
  Se  Se5       1.0  0.82300  0.18200  0.62300  1.0000
  Se  Se6       1.0  0.59000  0.82700  0.73000  1.0000
  Se  Se7       1.0  0.41000  0.32700  0.77000  1.0000
  Se  Se8       1.0  0.17700  0.68200  0.87700  1.0000
