data_image0
_chemical_formula_structural       Ce2O2S
_chemical_formula_sum              "Ce2 O2 S1"
_cell_length_a       4.03812
_cell_length_b       4.03804
_cell_length_c       6.90302
_cell_angle_alpha    90
_cell_angle_beta     90.0011
_cell_angle_gamma    119.999

_space_group_name_H-M_alt    "P 1"
_space_group_IT_number       1

loop_
  _space_group_symop_operation_xyz
  'x, y, z'

loop_
  _atom_site_type_symbol
  _atom_site_label
  _atom_site_symmetry_multiplicity
  _atom_site_fract_x
  _atom_site_fract_y
  _atom_site_fract_z
  _atom_site_occupancy
  Ce  Ce1       1.0  0.33300  0.66700  0.27900  1.0000
  Ce  Ce2       1.0  0.66700  0.33300  0.72100  1.0000
  O   O1        1.0  0.66700  0.33300  0.37000  1.0000
  O   O2        1.0  0.33300  0.66700  0.63000  1.0000
  S   S1        1.0  0.00000  0.00000  0.00000  1.0000
