data_image0
_chemical_formula_structural       B12Ba6O24
_chemical_formula_sum              "B12 Ba6 O24"
_cell_length_a       7.24172
_cell_length_b       7.24172
_cell_length_c       13.4675
_cell_angle_alpha    105.596
_cell_angle_beta     74.4036
_cell_angle_gamma    120

_space_group_name_H-M_alt    "P 1"
_space_group_IT_number       1

loop_
  _space_group_symop_operation_xyz
  'x, y, z'

loop_
  _atom_site_type_symbol
  _atom_site_label
  _atom_site_symmetry_multiplicity
  _atom_site_fract_x
  _atom_site_fract_y
  _atom_site_fract_z
  _atom_site_occupancy
  B   B1        1.0  0.99400  0.86000  0.11700  1.0000
  B   B2        1.0  0.14000  0.25000  0.11700  1.0000
  B   B3        1.0  0.75000  0.00598  0.11700  1.0000
  B   B4        1.0  0.75000  0.64000  0.38300  1.0000
  B   B5        1.0  0.36000  0.49400  0.38300  1.0000
  B   B6        1.0  0.50600  0.25000  0.38300  1.0000
  B   B7        1.0  0.49400  0.75000  0.61700  1.0000
  B   B8        1.0  0.64000  0.50600  0.61700  1.0000
  B   B9        1.0  0.25000  0.36000  0.61700  1.0000
  B   B10       1.0  0.25000  0.99400  0.88300  1.0000
  B   B11       1.0  0.86000  0.75000  0.88300  1.0000
  B   B12       1.0  0.00598  0.14000  0.88300  1.0000
  Ba  Ba1       1.0  0.64900  0.35100  0.05220  1.0000
  Ba  Ba2       1.0  0.25000  0.75000  0.25000  1.0000
  Ba  Ba3       1.0  0.85100  0.14900  0.44800  1.0000
  Ba  Ba4       1.0  0.14900  0.85100  0.55200  1.0000
  Ba  Ba5       1.0  0.75000  0.25000  0.75000  1.0000
  Ba  Ba6       1.0  0.35100  0.64900  0.94800  1.0000
  O   O1        1.0  0.55800  0.97700  0.10800  1.0000
  O   O2        1.0  0.02350  0.68900  0.10800  1.0000
  O   O3        1.0  0.31100  0.44200  0.10800  1.0000
  O   O4        1.0  0.78500  0.83500  0.12100  1.0000
  O   O5        1.0  0.92800  0.21500  0.12100  1.0000
  O   O6        1.0  0.16500  0.07210  0.12100  1.0000
  O   O7        1.0  0.57200  0.66500  0.37900  1.0000
  O   O8        1.0  0.71500  0.42800  0.37900  1.0000
  O   O9        1.0  0.33500  0.28500  0.37900  1.0000
  O   O10       1.0  0.94200  0.81100  0.39200  1.0000
  O   O11       1.0  0.18900  0.52300  0.39200  1.0000
  O   O12       1.0  0.47700  0.05780  0.39200  1.0000
  O   O13       1.0  0.52300  0.94200  0.60800  1.0000
  O   O14       1.0  0.81100  0.47700  0.60800  1.0000
  O   O15       1.0  0.05780  0.18900  0.60800  1.0000
  O   O16       1.0  0.66500  0.71500  0.62100  1.0000
  O   O17       1.0  0.28500  0.57200  0.62100  1.0000
  O   O18       1.0  0.42800  0.33500  0.62100  1.0000
  O   O19       1.0  0.83500  0.92800  0.87900  1.0000
  O   O20       1.0  0.07210  0.78500  0.87900  1.0000
  O   O21       1.0  0.21500  0.16500  0.87900  1.0000
  O   O22       1.0  0.68900  0.55800  0.89200  1.0000
  O   O23       1.0  0.97700  0.31100  0.89200  1.0000
  O   O24       1.0  0.44200  0.02350  0.89200  1.0000
