data_image0
_chemical_formula_structural       Ba10Cl2O24P6
_chemical_formula_sum              "Ba10 Cl2 O24 P6"
_cell_length_a       10.2616
_cell_length_b       10.2616
_cell_length_c       7.64873
_cell_angle_alpha    90
_cell_angle_beta     90
_cell_angle_gamma    120

_space_group_name_H-M_alt    "P 1"
_space_group_IT_number       1

loop_
  _space_group_symop_operation_xyz
  'x, y, z'

loop_
  _atom_site_type_symbol
  _atom_site_label
  _atom_site_symmetry_multiplicity
  _atom_site_fract_x
  _atom_site_fract_y
  _atom_site_fract_z
  _atom_site_occupancy
  Ba  Ba1       1.0  0.33300  0.66700  0.00083  1.0000
  Ba  Ba2       1.0  0.24300  0.25900  0.25000  1.0000
  Ba  Ba3       1.0  0.01600  0.75700  0.25000  1.0000
  Ba  Ba4       1.0  0.74100  0.98400  0.25000  1.0000
  Ba  Ba5       1.0  0.33300  0.66700  0.49900  1.0000
  Ba  Ba6       1.0  0.66700  0.33300  0.50100  1.0000
  Ba  Ba7       1.0  0.25900  0.01600  0.75000  1.0000
  Ba  Ba8       1.0  0.98400  0.24300  0.75000  1.0000
  Ba  Ba9       1.0  0.75700  0.74100  0.75000  1.0000
  Ba  Ba10      1.0  0.66700  0.33300  0.99900  1.0000
  Cl  Cl1       1.0  0.00000  0.00000  0.00000  1.0000
  Cl  Cl2       1.0  0.00000  0.00000  0.50000  1.0000
  O   O1        1.0  0.35500  0.08590  0.08490  1.0000
  O   O2        1.0  0.73100  0.64500  0.08490  1.0000
  O   O3        1.0  0.91400  0.26900  0.08500  1.0000
  O   O4        1.0  0.58200  0.11700  0.25000  1.0000
  O   O5        1.0  0.53500  0.41800  0.25000  1.0000
  O   O6        1.0  0.88300  0.46500  0.25000  1.0000
  O   O7        1.0  0.13800  0.47900  0.25000  1.0000
  O   O8        1.0  0.52100  0.66000  0.25000  1.0000
  O   O9        1.0  0.34000  0.86200  0.25000  1.0000
  O   O10       1.0  0.91400  0.26900  0.41500  1.0000
  O   O11       1.0  0.35500  0.08590  0.41500  1.0000
  O   O12       1.0  0.73100  0.64500  0.41500  1.0000
  O   O13       1.0  0.64500  0.91400  0.58500  1.0000
  O   O14       1.0  0.26900  0.35500  0.58500  1.0000
  O   O15       1.0  0.08590  0.73100  0.58500  1.0000
  O   O16       1.0  0.66000  0.13800  0.75000  1.0000
  O   O17       1.0  0.47900  0.34000  0.75000  1.0000
  O   O18       1.0  0.86200  0.52100  0.75000  1.0000
  O   O19       1.0  0.11700  0.53500  0.75000  1.0000
  O   O20       1.0  0.46500  0.58200  0.75000  1.0000
  O   O21       1.0  0.41800  0.88300  0.75000  1.0000
  O   O22       1.0  0.08590  0.73100  0.91500  1.0000
  O   O23       1.0  0.26900  0.35500  0.91500  1.0000
  O   O24       1.0  0.64500  0.91400  0.91500  1.0000
  P   P1        1.0  0.40600  0.03500  0.25000  1.0000
  P   P2        1.0  0.96500  0.37100  0.25000  1.0000
  P   P3        1.0  0.62900  0.59400  0.25000  1.0000
  P   P4        1.0  0.37100  0.40600  0.75000  1.0000
  P   P5        1.0  0.03500  0.62900  0.75000  1.0000
  P   P6        1.0  0.59400  0.96500  0.75000  1.0000
