data_image0
_chemical_formula_structural       Cl20Mg2O12P8
_chemical_formula_sum              "Cl20 Mg2 O12 P8"
_cell_length_a       11.1505
_cell_length_b       10.9964
_cell_length_c       9.88612
_cell_angle_alpha    117.602
_cell_angle_beta     83.6815
_cell_angle_gamma    114.313

_space_group_name_H-M_alt    "P 1"
_space_group_IT_number       1

loop_
  _space_group_symop_operation_xyz
  'x, y, z'

loop_
  _atom_site_type_symbol
  _atom_site_label
  _atom_site_symmetry_multiplicity
  _atom_site_fract_x
  _atom_site_fract_y
  _atom_site_fract_z
  _atom_site_occupancy
  Cl  Cl1       1.0  0.33600  0.33000  0.01630  1.0000
  Cl  Cl2       1.0  0.17700  0.61800  0.09400  1.0000
  Cl  Cl3       1.0  0.71900  0.12900  0.14700  1.0000
  Cl  Cl4       1.0  0.49700  0.26100  0.19500  1.0000
  Cl  Cl5       1.0  0.44800  0.89000  0.27000  1.0000
  Cl  Cl6       1.0  0.81400  0.55600  0.29800  1.0000
  Cl  Cl7       1.0  0.00380  0.37900  0.31000  1.0000
  Cl  Cl8       1.0  0.65600  0.75900  0.36900  1.0000
  Cl  Cl9       1.0  0.35600  0.47900  0.37900  1.0000
  Cl  Cl10      1.0  0.20700  0.79900  0.45600  1.0000
  Cl  Cl11      1.0  0.79300  0.20100  0.54400  1.0000
  Cl  Cl12      1.0  0.64400  0.52100  0.62100  1.0000
  Cl  Cl13      1.0  0.34400  0.24100  0.63100  1.0000
  Cl  Cl14      1.0  0.99600  0.62100  0.69000  1.0000
  Cl  Cl15      1.0  0.18600  0.44400  0.70200  1.0000
  Cl  Cl16      1.0  0.55200  0.11000  0.73000  1.0000
  Cl  Cl17      1.0  0.50300  0.73900  0.80500  1.0000
  Cl  Cl18      1.0  0.28100  0.87100  0.85300  1.0000
  Cl  Cl19      1.0  0.82300  0.38200  0.90600  1.0000
  Cl  Cl20      1.0  0.66400  0.67000  0.98400  1.0000
  Mg  Mg1       1.0  0.05760  0.99100  0.23100  1.0000
  Mg  Mg2       1.0  0.94200  0.00852  0.76900  1.0000
  O   O1        1.0  0.04010  0.84400  0.00376  1.0000
  O   O2        1.0  0.21000  0.15800  0.18100  1.0000
  O   O3        1.0  0.92500  0.06240  0.20300  1.0000
  O   O4        1.0  0.21100  0.93200  0.25900  1.0000
  O   O5        1.0  0.91800  0.82500  0.26700  1.0000
  O   O6        1.0  0.10200  0.14300  0.45500  1.0000
  O   O7        1.0  0.89800  0.85700  0.54500  1.0000
  O   O8        1.0  0.08250  0.17500  0.73300  1.0000
  O   O9        1.0  0.78900  0.06760  0.74100  1.0000
  O   O10       1.0  0.07500  0.93800  0.79700  1.0000
  O   O11       1.0  0.79000  0.84200  0.81900  1.0000
  O   O12       1.0  0.96000  0.15600  0.99600  1.0000
  P   P1        1.0  0.91500  0.16200  0.14600  1.0000
  P   P2        1.0  0.33100  0.28700  0.19100  1.0000
  P   P3        1.0  0.25200  0.82500  0.26800  1.0000
  P   P4        1.0  0.84500  0.77600  0.38100  1.0000
  P   P5        1.0  0.15500  0.22400  0.61900  1.0000
  P   P6        1.0  0.74800  0.17500  0.73200  1.0000
  P   P7        1.0  0.66900  0.71300  0.80900  1.0000
  P   P8        1.0  0.08540  0.83800  0.85400  1.0000
