data_image0
_chemical_formula_structural       Ga12Mg6S24
_chemical_formula_sum              "Ga12 Mg6 S24"
_cell_length_a       6.44192
_cell_length_b       12.4204
_cell_length_c       13.0663
_cell_angle_alpha    115.452
_cell_angle_beta     99.133
_cell_angle_gamma    100.643

_space_group_name_H-M_alt    "P 1"
_space_group_IT_number       1

loop_
  _space_group_symop_operation_xyz
  'x, y, z'

loop_
  _atom_site_type_symbol
  _atom_site_label
  _atom_site_symmetry_multiplicity
  _atom_site_fract_x
  _atom_site_fract_y
  _atom_site_fract_z
  _atom_site_occupancy
  Ga  Ga1       1.0  0.70800  0.32500  0.08060  1.0000
  Ga  Ga2       1.0  0.87300  0.75500  0.08060  1.0000
  Ga  Ga3       1.0  0.29600  0.41500  0.25100  1.0000
  Ga  Ga4       1.0  0.45500  0.83600  0.25100  1.0000
  Ga  Ga5       1.0  0.86800  0.51500  0.40100  1.0000
  Ga  Ga6       1.0  0.03320  0.88600  0.40100  1.0000
  Ga  Ga7       1.0  0.96700  0.11400  0.59900  1.0000
  Ga  Ga8       1.0  0.13200  0.48500  0.59900  1.0000
  Ga  Ga9       1.0  0.54500  0.16400  0.74900  1.0000
  Ga  Ga10      1.0  0.70400  0.58500  0.74900  1.0000
  Ga  Ga11      1.0  0.12700  0.24500  0.91900  1.0000
  Ga  Ga12      1.0  0.29200  0.67500  0.91900  1.0000
  Mg  Mg1       1.0  0.29400  0.04400  0.08810  1.0000
  Mg  Mg2       1.0  0.88000  0.13000  0.26100  1.0000
  Mg  Mg3       1.0  0.46900  0.21900  0.43700  1.0000
  Mg  Mg4       1.0  0.53100  0.78100  0.56300  1.0000
  Mg  Mg5       1.0  0.12000  0.87000  0.73900  1.0000
  Mg  Mg6       1.0  0.70600  0.95600  0.91200  1.0000
  S   S1        1.0  0.40200  0.40400  0.08150  1.0000
  S   S2        1.0  0.17900  0.67700  0.08150  1.0000
  S   S3        1.0  0.67000  0.14900  0.08810  1.0000
  S   S4        1.0  0.91800  0.93900  0.08810  1.0000
  S   S5        1.0  0.98900  0.49000  0.23500  1.0000
  S   S6        1.0  0.74700  0.74600  0.23500  1.0000
  S   S7        1.0  0.50600  0.02580  0.26500  1.0000
  S   S8        1.0  0.25900  0.23900  0.26500  1.0000
  S   S9        1.0  0.56900  0.58300  0.39400  1.0000
  S   S10       1.0  0.32500  0.81100  0.39400  1.0000
  S   S11       1.0  0.08540  0.08960  0.43400  1.0000
  S   S12       1.0  0.84800  0.34400  0.43400  1.0000
  S   S13       1.0  0.15200  0.65600  0.56600  1.0000
  S   S14       1.0  0.91500  0.91000  0.56600  1.0000
  S   S15       1.0  0.67500  0.18900  0.60600  1.0000
  S   S16       1.0  0.43100  0.41700  0.60600  1.0000
  S   S17       1.0  0.74100  0.76100  0.73500  1.0000
  S   S18       1.0  0.49400  0.97400  0.73500  1.0000
  S   S19       1.0  0.25300  0.25400  0.76500  1.0000
  S   S20       1.0  0.01110  0.51000  0.76500  1.0000
  S   S21       1.0  0.08180  0.06080  0.91200  1.0000
  S   S22       1.0  0.33000  0.85100  0.91200  1.0000
  S   S23       1.0  0.82100  0.32300  0.91800  1.0000
  S   S24       1.0  0.59800  0.59600  0.91800  1.0000
