data_image0
_chemical_formula_structural       Sb4Yb2
_chemical_formula_sum              "Sb4 Yb2"
_cell_length_a       4.3284
_cell_length_b       4.60469
_cell_length_c       8.7085
_cell_angle_alpha    74.6699
_cell_angle_beta     90
_cell_angle_gamma    90

_space_group_name_H-M_alt    "P 1"
_space_group_IT_number       1

loop_
  _space_group_symop_operation_xyz
  'x, y, z'

loop_
  _atom_site_type_symbol
  _atom_site_label
  _atom_site_symmetry_multiplicity
  _atom_site_fract_x
  _atom_site_fract_y
  _atom_site_fract_z
  _atom_site_occupancy
  Sb  Sb1       1.0  0.75000  0.43800  0.12400  1.0000
  Sb  Sb2       1.0  0.25000  0.25500  0.49000  1.0000
  Sb  Sb3       1.0  0.75000  0.74500  0.51000  1.0000
  Sb  Sb4       1.0  0.25000  0.56200  0.87600  1.0000
  Yb  Yb1       1.0  0.25000  0.89600  0.20700  1.0000
  Yb  Yb2       1.0  0.75000  0.10400  0.79300  1.0000
