data_image0
_chemical_formula_structural       Cl2O24Pb10V6
_chemical_formula_sum              "Cl2 O24 Pb10 V6"
_cell_length_a       10.3353
_cell_length_b       10.335
_cell_length_c       7.29197
_cell_angle_alpha    90
_cell_angle_beta     90
_cell_angle_gamma    119.999

_space_group_name_H-M_alt    "P 1"
_space_group_IT_number       1

loop_
  _space_group_symop_operation_xyz
  'x, y, z'

loop_
  _atom_site_type_symbol
  _atom_site_label
  _atom_site_symmetry_multiplicity
  _atom_site_fract_x
  _atom_site_fract_y
  _atom_site_fract_z
  _atom_site_occupancy
  Cl  Cl1       1.0  0.00000  0.00000  0.00000  1.0000
  Cl  Cl2       1.0  0.00000  0.00000  0.50000  1.0000
  O   O1        1.0  0.73600  0.09210  0.06110  1.0000
  O   O2        1.0  0.90800  0.64300  0.06110  1.0000
  O   O3        1.0  0.35700  0.26400  0.06110  1.0000
  O   O4        1.0  0.51700  0.12200  0.25000  1.0000
  O   O5        1.0  0.87800  0.39500  0.25000  1.0000
  O   O6        1.0  0.60500  0.48300  0.25000  1.0000
  O   O7        1.0  0.33300  0.49700  0.25000  1.0000
  O   O8        1.0  0.16500  0.66700  0.25000  1.0000
  O   O9        1.0  0.50200  0.83500  0.25000  1.0000
  O   O10       1.0  0.35700  0.26400  0.43900  1.0000
  O   O11       1.0  0.90800  0.64300  0.43900  1.0000
  O   O12       1.0  0.73600  0.09210  0.43900  1.0000
  O   O13       1.0  0.26400  0.90800  0.56100  1.0000
  O   O14       1.0  0.09210  0.35700  0.56100  1.0000
  O   O15       1.0  0.64300  0.73600  0.56100  1.0000
  O   O16       1.0  0.49800  0.16500  0.75000  1.0000
  O   O17       1.0  0.83500  0.33300  0.75000  1.0000
  O   O18       1.0  0.66700  0.50300  0.75000  1.0000
  O   O19       1.0  0.39500  0.51700  0.75000  1.0000
  O   O20       1.0  0.12200  0.60500  0.75000  1.0000
  O   O21       1.0  0.48300  0.87800  0.75000  1.0000
  O   O22       1.0  0.64300  0.73600  0.93900  1.0000
  O   O23       1.0  0.09210  0.35700  0.93900  1.0000
  O   O24       1.0  0.26400  0.90800  0.93900  1.0000
  Pb  Pb1       1.0  0.33300  0.66700  0.00638  1.0000
  Pb  Pb2       1.0  0.25400  0.01540  0.25000  1.0000
  Pb  Pb3       1.0  0.98500  0.23900  0.25000  1.0000
  Pb  Pb4       1.0  0.76100  0.74600  0.25000  1.0000
  Pb  Pb5       1.0  0.33300  0.66700  0.49400  1.0000
  Pb  Pb6       1.0  0.66700  0.33300  0.50600  1.0000
  Pb  Pb7       1.0  0.23900  0.25400  0.75000  1.0000
  Pb  Pb8       1.0  0.01550  0.76100  0.75000  1.0000
  Pb  Pb9       1.0  0.74600  0.98500  0.75000  1.0000
  Pb  Pb10      1.0  0.66700  0.33300  0.99400  1.0000
  V   V1        1.0  0.61900  0.02790  0.25000  1.0000
  V   V2        1.0  0.40900  0.38100  0.25000  1.0000
  V   V3        1.0  0.97200  0.59100  0.25000  1.0000
  V   V4        1.0  0.02790  0.40900  0.75000  1.0000
  V   V5        1.0  0.59100  0.61900  0.75000  1.0000
  V   V6        1.0  0.38100  0.97200  0.75000  1.0000
