data_image0
_chemical_formula_structural       H16I4Ni2O20
_chemical_formula_sum              "H16 I4 Ni2 O20"
_cell_length_a       8.08285
_cell_length_b       6.21061
_cell_length_c       8.25087
_cell_angle_alpha    90
_cell_angle_beta     99.4423
_cell_angle_gamma    90

_space_group_name_H-M_alt    "P 1"
_space_group_IT_number       1

loop_
  _space_group_symop_operation_xyz
  'x, y, z'

loop_
  _atom_site_type_symbol
  _atom_site_label
  _atom_site_symmetry_multiplicity
  _atom_site_fract_x
  _atom_site_fract_y
  _atom_site_fract_z
  _atom_site_occupancy
  H   H1        1.0  0.27800  0.77700  0.05130  1.0000
  H   H2        1.0  0.99000  0.62000  0.18800  1.0000
  H   H3        1.0  0.26700  0.88600  0.22900  1.0000
  H   H4        1.0  0.83700  0.00282  0.23900  1.0000
  H   H5        1.0  0.16300  0.50300  0.26100  1.0000
  H   H6        1.0  0.73300  0.38600  0.27100  1.0000
  H   H7        1.0  0.01000  0.12000  0.31200  1.0000
  H   H8        1.0  0.72200  0.27700  0.44900  1.0000
  H   H9        1.0  0.27800  0.72300  0.55100  1.0000
  H   H10       1.0  0.99000  0.88000  0.68800  1.0000
  H   H11       1.0  0.26700  0.61400  0.72900  1.0000
  H   H12       1.0  0.83700  0.49700  0.73900  1.0000
  H   H13       1.0  0.16300  0.99700  0.76100  1.0000
  H   H14       1.0  0.73300  0.11400  0.77100  1.0000
  H   H15       1.0  0.01000  0.38000  0.81200  1.0000
  H   H16       1.0  0.72200  0.22300  0.94900  1.0000
  I   I1        1.0  0.34500  0.30900  0.03200  1.0000
  I   I2        1.0  0.65500  0.80900  0.46800  1.0000
  I   I3        1.0  0.34500  0.19100  0.53200  1.0000
  I   I4        1.0  0.65500  0.69100  0.96800  1.0000
  Ni  Ni1       1.0  0.00000  0.00000  0.00000  1.0000
  Ni  Ni2       1.0  0.00000  0.50000  0.50000  1.0000
  O   O1        1.0  0.88600  0.70700  0.01830  1.0000
  O   O2        1.0  0.65300  0.41600  0.05920  1.0000
  O   O3        1.0  0.24100  0.90800  0.10800  1.0000
  O   O4        1.0  0.92800  0.09360  0.20900  1.0000
  O   O5        1.0  0.35700  0.38400  0.24900  1.0000
  O   O6        1.0  0.64300  0.88400  0.25100  1.0000
  O   O7        1.0  0.07200  0.59400  0.29100  1.0000
  O   O8        1.0  0.75900  0.40800  0.39200  1.0000
  O   O9        1.0  0.34700  0.91600  0.44100  1.0000
  O   O10       1.0  0.11400  0.20700  0.48200  1.0000
  O   O11       1.0  0.88600  0.79300  0.51800  1.0000
  O   O12       1.0  0.65300  0.08400  0.55900  1.0000
  O   O13       1.0  0.24100  0.59200  0.60800  1.0000
  O   O14       1.0  0.92800  0.40600  0.70900  1.0000
  O   O15       1.0  0.35700  0.11600  0.74900  1.0000
  O   O16       1.0  0.64300  0.61600  0.75100  1.0000
  O   O17       1.0  0.07200  0.90600  0.79100  1.0000
  O   O18       1.0  0.75900  0.09240  0.89200  1.0000
  O   O19       1.0  0.34700  0.58400  0.94100  1.0000
  O   O20       1.0  0.11400  0.29300  0.98200  1.0000
