data_image0
_chemical_formula_structural       H20Mg2O18S2
_chemical_formula_sum              "H20 Mg2 O18 S2"
_cell_length_a       6.09817
_cell_length_b       10.1416
_cell_length_c       6.09759
_cell_angle_alpha    85.1618
_cell_angle_beta     105.199
_cell_angle_gamma    106.584

_space_group_name_H-M_alt    "P 1"
_space_group_IT_number       1

loop_
  _space_group_symop_operation_xyz
  'x, y, z'

loop_
  _atom_site_type_symbol
  _atom_site_label
  _atom_site_symmetry_multiplicity
  _atom_site_fract_x
  _atom_site_fract_y
  _atom_site_fract_z
  _atom_site_occupancy
  H   H1        1.0  0.26800  0.66600  0.01880  1.0000
  H   H2        1.0  0.10600  0.40300  0.04460  1.0000
  H   H3        1.0  0.41800  0.20100  0.14100  1.0000
  H   H4        1.0  0.68500  0.99900  0.21700  1.0000
  H   H5        1.0  0.77600  0.33800  0.24800  1.0000
  H   H6        1.0  0.87600  0.14300  0.26900  1.0000
  H   H7        1.0  0.36400  0.86500  0.29100  1.0000
  H   H8        1.0  0.20300  0.38600  0.30700  1.0000
  H   H9        1.0  0.55400  0.78000  0.30900  1.0000
  H   H10       1.0  0.36100  0.12100  0.36200  1.0000
  H   H11       1.0  0.63900  0.87900  0.63800  1.0000
  H   H12       1.0  0.44600  0.22000  0.69100  1.0000
  H   H13       1.0  0.79700  0.61400  0.69300  1.0000
  H   H14       1.0  0.63600  0.13500  0.70900  1.0000
  H   H15       1.0  0.12300  0.85700  0.73100  1.0000
  H   H16       1.0  0.22400  0.66200  0.75200  1.0000
  H   H17       1.0  0.31500  0.00071  0.78300  1.0000
  H   H18       1.0  0.58200  0.79900  0.85900  1.0000
  H   H19       1.0  0.89400  0.59700  0.95500  1.0000
  H   H20       1.0  0.73200  0.33400  0.98100  1.0000
  Mg  Mg1       1.0  0.00000  0.00000  0.00000  1.0000
  Mg  Mg2       1.0  0.50000  0.50000  0.00000  1.0000
  O   O1        1.0  0.65800  0.34600  0.10200  1.0000
  O   O2        1.0  0.79600  0.07320  0.15000  1.0000
  O   O3        1.0  0.25400  0.41800  0.16700  1.0000
  O   O4        1.0  0.30500  0.12300  0.19400  1.0000
  O   O5        1.0  0.07890  0.63100  0.22700  1.0000
  O   O6        1.0  0.69600  0.64900  0.25300  1.0000
  O   O7        1.0  0.02800  0.85700  0.25600  1.0000
  O   O8        1.0  0.53200  0.86700  0.35100  1.0000
  O   O9        1.0  0.97600  0.29500  0.42400  1.0000
  O   O10       1.0  0.02450  0.70500  0.57600  1.0000
  O   O11       1.0  0.46800  0.13300  0.64900  1.0000
  O   O12       1.0  0.97200  0.14300  0.74400  1.0000
  O   O13       1.0  0.30400  0.35100  0.74700  1.0000
  O   O14       1.0  0.92100  0.36900  0.77300  1.0000
  O   O15       1.0  0.69500  0.87700  0.80600  1.0000
  O   O16       1.0  0.74600  0.58200  0.83300  1.0000
  O   O17       1.0  0.20400  0.92700  0.85000  1.0000
  O   O18       1.0  0.34200  0.65400  0.89800  1.0000
  S   S1        1.0  0.95700  0.71000  0.32300  1.0000
  S   S2        1.0  0.04340  0.29000  0.67700  1.0000
