data_image0
_chemical_formula_structural       H4Mn7O24P6
_chemical_formula_sum              "H4 Mn7 O24 P6"
_cell_length_a       6.608
_cell_length_b       8.078
_cell_length_c       9.792
_cell_angle_alpha    67.76
_cell_angle_beta     69.8
_cell_angle_gamma    78.59

_space_group_name_H-M_alt    "P 1"
_space_group_IT_number       1

loop_
  _space_group_symop_operation_xyz
  'x, y, z'

loop_
  _atom_site_type_symbol
  _atom_site_label
  _atom_site_symmetry_multiplicity
  _atom_site_fract_x
  _atom_site_fract_y
  _atom_site_fract_z
  _atom_site_occupancy
  H   H1        1.0  0.63300  0.88600  0.21300  1.0000
  H   H2        1.0  0.11200  0.45000  0.46300  1.0000
  H   H3        1.0  0.88800  0.55000  0.53700  1.0000
  H   H4        1.0  0.36700  0.11400  0.78700  1.0000
  Mn  Mn1       1.0  0.00000  0.00000  0.00000  1.0000
  Mn  Mn2       1.0  0.27500  0.54700  0.11300  1.0000
  Mn  Mn3       1.0  0.00145  0.18300  0.28300  1.0000
  Mn  Mn4       1.0  0.46300  0.71700  0.48600  1.0000
  Mn  Mn5       1.0  0.53700  0.28300  0.51400  1.0000
  Mn  Mn6       1.0  0.99900  0.81700  0.71700  1.0000
  Mn  Mn7       1.0  0.72500  0.45300  0.88700  1.0000
  O   O1        1.0  0.71900  0.18500  0.05820  1.0000
  O   O2        1.0  0.61300  0.53500  0.08970  1.0000
  O   O3        1.0  0.79200  0.77800  0.09990  1.0000
  O   O4        1.0  0.95600  0.46000  0.16800  1.0000
  O   O5        1.0  0.33000  0.24100  0.22500  1.0000
  O   O6        1.0  0.02150  0.93900  0.24100  1.0000
  O   O7        1.0  0.51900  0.93700  0.26900  1.0000
  O   O8        1.0  0.17000  0.61600  0.32000  1.0000
  O   O9        1.0  0.64300  0.16400  0.33500  1.0000
  O   O10       1.0  0.60600  0.54300  0.34500  1.0000
  O   O11       1.0  0.75700  0.79200  0.43800  1.0000
  O   O12       1.0  0.12500  0.80400  0.48600  1.0000
  O   O13       1.0  0.87500  0.19600  0.51400  1.0000
  O   O14       1.0  0.24300  0.20800  0.56200  1.0000
  O   O15       1.0  0.39400  0.45700  0.65500  1.0000
  O   O16       1.0  0.35700  0.83600  0.66500  1.0000
  O   O17       1.0  0.83000  0.38400  0.68000  1.0000
  O   O18       1.0  0.48100  0.06310  0.73100  1.0000
  O   O19       1.0  0.97900  0.06060  0.75900  1.0000
  O   O20       1.0  0.67000  0.75900  0.77500  1.0000
  O   O21       1.0  0.04380  0.54000  0.83200  1.0000
  O   O22       1.0  0.20800  0.22200  0.90000  1.0000
  O   O23       1.0  0.38700  0.46500  0.91000  1.0000
  O   O24       1.0  0.28100  0.81500  0.94200  1.0000
  P   P1        1.0  0.74200  0.57800  0.17500  1.0000
  P   P2        1.0  0.55100  0.14100  0.22000  1.0000
  P   P3        1.0  0.03830  0.76900  0.37500  1.0000
  P   P4        1.0  0.96200  0.23100  0.62500  1.0000
  P   P5        1.0  0.44900  0.85900  0.78000  1.0000
  P   P6        1.0  0.25800  0.42200  0.82500  1.0000
