data_image0
_chemical_formula_structural       Be2H16N4O20
_chemical_formula_sum              "Be2 H16 N4 O20"
_cell_length_a       5.87827
_cell_length_b       8.501
_cell_length_c       8.501
_cell_angle_alpha    96.8653
_cell_angle_beta     69.773
_cell_angle_gamma    110.227

_space_group_name_H-M_alt    "P 1"
_space_group_IT_number       1

loop_
  _space_group_symop_operation_xyz
  'x, y, z'

loop_
  _atom_site_type_symbol
  _atom_site_label
  _atom_site_symmetry_multiplicity
  _atom_site_fract_x
  _atom_site_fract_y
  _atom_site_fract_z
  _atom_site_occupancy
  Be  Be1       1.0  0.50000  0.00000  0.00000  1.0000
  Be  Be2       1.0  0.25000  0.50000  0.50000  1.0000
  H   H1        1.0  0.77500  0.25900  0.03180  1.0000
  H   H2        1.0  0.08470  0.83800  0.12000  1.0000
  H   H3        1.0  0.75300  0.12000  0.16200  1.0000
  H   H4        1.0  0.20200  0.46800  0.24100  1.0000
  H   H5        1.0  0.19300  0.96800  0.25900  1.0000
  H   H6        1.0  0.66500  0.62000  0.33800  1.0000
  H   H7        1.0  0.95500  0.33800  0.38000  1.0000
  H   H8        1.0  0.55700  0.75900  0.46800  1.0000
  H   H9        1.0  0.26600  0.24100  0.53200  1.0000
  H   H10       1.0  0.99700  0.66200  0.62000  1.0000
  H   H11       1.0  0.38300  0.38000  0.66200  1.0000
  H   H12       1.0  0.48400  0.03180  0.74100  1.0000
  H   H13       1.0  0.97500  0.53200  0.75900  1.0000
  H   H14       1.0  0.79500  0.88000  0.83800  1.0000
  H   H15       1.0  0.36700  0.16200  0.88000  1.0000
  H   H16       1.0  0.54800  0.74100  0.96800  1.0000
  N   N1        1.0  0.87500  0.55500  0.05510  1.0000
  N   N2        1.0  0.68000  0.05510  0.44500  1.0000
  N   N3        1.0  0.06990  0.94500  0.55500  1.0000
  N   N4        1.0  0.37500  0.44500  0.94500  1.0000
  O   O1        1.0  0.92100  0.70300  0.01430  1.0000
  O   O2        1.0  0.37500  0.55900  0.05860  1.0000
  O   O3        1.0  0.67600  0.14700  0.08580  1.0000
  O   O4        1.0  0.23800  0.91400  0.14700  1.0000
  O   O5        1.0  0.82900  0.51400  0.20300  1.0000
  O   O6        1.0  0.78200  0.01430  0.29700  1.0000
  O   O7        1.0  0.13600  0.41400  0.35300  1.0000
  O   O8        1.0  0.51200  0.64700  0.41400  1.0000
  O   O9        1.0  0.18400  0.05860  0.44100  1.0000
  O   O10       1.0  0.68500  0.20300  0.48600  1.0000
  O   O11       1.0  0.96800  0.79700  0.51400  1.0000
  O   O12       1.0  0.56600  0.94100  0.55900  1.0000
  O   O13       1.0  0.27900  0.35300  0.58600  1.0000
  O   O14       1.0  0.07430  0.58600  0.64700  1.0000
  O   O15       1.0  0.06470  0.98600  0.70300  1.0000
  O   O16       1.0  0.51800  0.48600  0.79700  1.0000
  O   O17       1.0  0.47100  0.08580  0.85300  1.0000
  O   O18       1.0  0.61400  0.85300  0.91400  1.0000
  O   O19       1.0  0.87500  0.44100  0.94100  1.0000
  O   O20       1.0  0.23200  0.29700  0.98600  1.0000
