data_image0
_chemical_formula_structural       Br4F32Sb6
_chemical_formula_sum              "Br4 F32 Sb6"
_cell_length_a       7.16982
_cell_length_b       7.11052
_cell_length_c       13.3734
_cell_angle_alpha    91.9884
_cell_angle_beta     90
_cell_angle_gamma    120.276

_space_group_name_H-M_alt    "P 1"
_space_group_IT_number       1

loop_
  _space_group_symop_operation_xyz
  'x, y, z'

loop_
  _atom_site_type_symbol
  _atom_site_label
  _atom_site_symmetry_multiplicity
  _atom_site_fract_x
  _atom_site_fract_y
  _atom_site_fract_z
  _atom_site_occupancy
  Br  Br1       1.0  0.62300  0.87500  0.18900  1.0000
  Br  Br2       1.0  0.74800  0.12500  0.31100  1.0000
  Br  Br3       1.0  0.25200  0.87500  0.68900  1.0000
  Br  Br4       1.0  0.37700  0.12500  0.81100  1.0000
  F   F1        1.0  0.11100  0.29300  0.01770  1.0000
  F   F2        1.0  0.36900  0.12000  0.02030  1.0000
  F   F3        1.0  0.23000  0.71200  0.07980  1.0000
  F   F4        1.0  0.52500  0.52300  0.09560  1.0000
  F   F5        1.0  0.83000  0.39000  0.11400  1.0000
  F   F6        1.0  0.03850  0.97100  0.14200  1.0000
  F   F7        1.0  0.18100  0.38200  0.21300  1.0000
  F   F8        1.0  0.45100  0.21000  0.22800  1.0000
  F   F9        1.0  0.24100  0.79000  0.27200  1.0000
  F   F10       1.0  0.79900  0.61800  0.28700  1.0000
  F   F11       1.0  0.06770  0.02910  0.35800  1.0000
  F   F12       1.0  0.44000  0.61000  0.38600  1.0000
  F   F13       1.0  0.00152  0.47700  0.40400  1.0000
  F   F14       1.0  0.51900  0.28800  0.42000  1.0000
  F   F15       1.0  0.24900  0.88000  0.48000  1.0000
  F   F16       1.0  0.81800  0.70700  0.48200  1.0000
  F   F17       1.0  0.18200  0.29300  0.51800  1.0000
  F   F18       1.0  0.75100  0.12000  0.52000  1.0000
  F   F19       1.0  0.48100  0.71200  0.58000  1.0000
  F   F20       1.0  0.99800  0.52300  0.59600  1.0000
  F   F21       1.0  0.56000  0.39000  0.61400  1.0000
  F   F22       1.0  0.93200  0.97100  0.64200  1.0000
  F   F23       1.0  0.20100  0.38200  0.71300  1.0000
  F   F24       1.0  0.75900  0.21000  0.72800  1.0000
  F   F25       1.0  0.54900  0.79000  0.77200  1.0000
  F   F26       1.0  0.81900  0.61800  0.78700  1.0000
  F   F27       1.0  0.96100  0.02910  0.85800  1.0000
  F   F28       1.0  0.17000  0.61000  0.88600  1.0000
  F   F29       1.0  0.47500  0.47700  0.90400  1.0000
  F   F30       1.0  0.77000  0.28800  0.92000  1.0000
  F   F31       1.0  0.63100  0.88000  0.98000  1.0000
  F   F32       1.0  0.88900  0.70700  0.98200  1.0000
  Sb  Sb1       1.0  0.00000  0.50000  0.00000  1.0000
  Sb  Sb2       1.0  0.29100  0.24500  0.12800  1.0000
  Sb  Sb3       1.0  0.04650  0.75500  0.37200  1.0000
  Sb  Sb4       1.0  0.50000  0.50000  0.50000  1.0000
  Sb  Sb5       1.0  0.95400  0.24500  0.62800  1.0000
  Sb  Sb6       1.0  0.70900  0.75500  0.87200  1.0000
