data_image0
_chemical_formula_structural       P4W2
_chemical_formula_sum              "P4 W2"
_cell_length_a       3.17955
_cell_length_b       4.99693
_cell_length_c       5.82867
_cell_angle_alpha    90
_cell_angle_beta     74.172
_cell_angle_gamma    90

_space_group_name_H-M_alt    "P 1"
_space_group_IT_number       1

loop_
  _space_group_symop_operation_xyz
  'x, y, z'

loop_
  _atom_site_type_symbol
  _atom_site_label
  _atom_site_symmetry_multiplicity
  _atom_site_fract_x
  _atom_site_fract_y
  _atom_site_fract_z
  _atom_site_occupancy
  P   P1        1.0  0.43000  0.11700  0.14000  1.0000
  P   P2        1.0  0.29800  0.80000  0.40400  1.0000
  P   P3        1.0  0.70200  0.30000  0.59600  1.0000
  P   P4        1.0  0.57000  0.61700  0.86000  1.0000
  W   W1        1.0  0.90700  0.50000  0.18600  1.0000
  W   W2        1.0  0.09320  0.00001  0.81400  1.0000
