data_image0
_chemical_formula_structural       Sb20Yb22
_chemical_formula_sum              "Sb20 Yb22"
_cell_length_a       11.9595
_cell_length_b       11.9595
_cell_length_c       12.0902
_cell_angle_alpha    119.643
_cell_angle_beta     119.643
_cell_angle_gamma    90

_space_group_name_H-M_alt    "P 1"
_space_group_IT_number       1

loop_
  _space_group_symop_operation_xyz
  'x, y, z'

loop_
  _atom_site_type_symbol
  _atom_site_label
  _atom_site_symmetry_multiplicity
  _atom_site_fract_x
  _atom_site_fract_y
  _atom_site_fract_z
  _atom_site_occupancy
  Sb  Sb1       1.0  0.35000  0.00000  0.00000  1.0000
  Sb  Sb2       1.0  0.65000  0.00000  0.00000  1.0000
  Sb  Sb3       1.0  0.00000  0.35000  0.00000  1.0000
  Sb  Sb4       1.0  0.37300  0.37300  0.00000  1.0000
  Sb  Sb5       1.0  0.62700  0.37300  0.00000  1.0000
  Sb  Sb6       1.0  0.37300  0.62700  0.00000  1.0000
  Sb  Sb7       1.0  0.62700  0.62700  0.00000  1.0000
  Sb  Sb8       1.0  0.00000  0.65000  0.00000  1.0000
  Sb  Sb9       1.0  0.12600  0.12600  0.25200  1.0000
  Sb  Sb10      1.0  0.46900  0.46900  0.35100  1.0000
  Sb  Sb11      1.0  0.88200  0.46900  0.35100  1.0000
  Sb  Sb12      1.0  0.46900  0.88200  0.35100  1.0000
  Sb  Sb13      1.0  0.88200  0.88200  0.35100  1.0000
  Sb  Sb14      1.0  0.75000  0.25000  0.50000  1.0000
  Sb  Sb15      1.0  0.25000  0.75000  0.50000  1.0000
  Sb  Sb16      1.0  0.11800  0.11800  0.64900  1.0000
  Sb  Sb17      1.0  0.53100  0.11800  0.64900  1.0000
  Sb  Sb18      1.0  0.11800  0.53100  0.64900  1.0000
  Sb  Sb19      1.0  0.53100  0.53100  0.64900  1.0000
  Sb  Sb20      1.0  0.87400  0.87400  0.74800  1.0000
  Yb  Yb1       1.0  0.16600  0.16600  0.00000  1.0000
  Yb  Yb2       1.0  0.83400  0.16600  0.00000  1.0000
  Yb  Yb3       1.0  0.16600  0.83400  0.00000  1.0000
  Yb  Yb4       1.0  0.83400  0.83400  0.00000  1.0000
  Yb  Yb5       1.0  0.60300  0.26600  0.20700  1.0000
  Yb  Yb6       1.0  0.26600  0.60300  0.20700  1.0000
  Yb  Yb7       1.0  0.94100  0.60300  0.20700  1.0000
  Yb  Yb8       1.0  0.60300  0.94100  0.20700  1.0000
  Yb  Yb9       1.0  0.66400  0.66400  0.32800  1.0000
  Yb  Yb10      1.0  0.44000  0.18900  0.37800  1.0000
  Yb  Yb11      1.0  0.93800  0.18900  0.37800  1.0000
  Yb  Yb12      1.0  0.18900  0.44000  0.37800  1.0000
  Yb  Yb13      1.0  0.18900  0.93800  0.37800  1.0000
  Yb  Yb14      1.0  0.81100  0.06240  0.62200  1.0000
  Yb  Yb15      1.0  0.81100  0.56000  0.62200  1.0000
  Yb  Yb16      1.0  0.06240  0.81100  0.62200  1.0000
  Yb  Yb17      1.0  0.56000  0.81100  0.62200  1.0000
  Yb  Yb18      1.0  0.33600  0.33600  0.67200  1.0000
  Yb  Yb19      1.0  0.39700  0.05910  0.79300  1.0000
  Yb  Yb20      1.0  0.05910  0.39700  0.79300  1.0000
  Yb  Yb21      1.0  0.73400  0.39700  0.79300  1.0000
  Yb  Yb22      1.0  0.39700  0.73400  0.79300  1.0000
