data_image0
_chemical_formula_structural       B12Cu6O24
_chemical_formula_sum              "B12 Cu6 O24"
_cell_length_a       5.58086
_cell_length_b       8.58273
_cell_length_c       8.58273
_cell_angle_alpha    96.0677
_cell_angle_beta     108.973
_cell_angle_gamma    71.0271

_space_group_name_H-M_alt    "P 1"
_space_group_IT_number       1

loop_
  _space_group_symop_operation_xyz
  'x, y, z'

loop_
  _atom_site_type_symbol
  _atom_site_label
  _atom_site_symmetry_multiplicity
  _atom_site_fract_x
  _atom_site_fract_y
  _atom_site_fract_z
  _atom_site_occupancy
  B   B1        1.0  0.15700  0.33100  0.03770  1.0000
  B   B2        1.0  0.79900  0.46200  0.16900  1.0000
  B   B3        1.0  0.62300  0.25200  0.24800  1.0000
  B   B4        1.0  0.62500  0.75200  0.25200  1.0000
  B   B5        1.0  0.88100  0.96200  0.33100  1.0000
  B   B6        1.0  0.36900  0.83100  0.46200  1.0000
  B   B7        1.0  0.73800  0.16900  0.53800  1.0000
  B   B8        1.0  0.51200  0.03770  0.66900  1.0000
  B   B9        1.0  0.12500  0.24800  0.74800  1.0000
  B   B10       1.0  0.62700  0.74800  0.75200  1.0000
  B   B11       1.0  0.09300  0.53800  0.83100  1.0000
  B   B12       1.0  0.45100  0.66900  0.96200  1.0000
  Cu  Cu1       1.0  0.50000  0.00000  0.00000  1.0000
  Cu  Cu2       1.0  0.12500  0.66800  0.16800  1.0000
  Cu  Cu3       1.0  0.20700  0.16800  0.33200  1.0000
  Cu  Cu4       1.0  0.75000  0.50000  0.50000  1.0000
  Cu  Cu5       1.0  0.04290  0.83200  0.66800  1.0000
  Cu  Cu6       1.0  0.62500  0.33200  0.83200  1.0000
  O   O1        1.0  0.12500  0.50200  0.00244  1.0000
  O   O2        1.0  0.43900  0.23000  0.08760  1.0000
  O   O3        1.0  0.38700  0.74000  0.11400  1.0000
  O   O4        1.0  0.04220  0.33300  0.16700  1.0000
  O   O5        1.0  0.64900  0.91200  0.23000  1.0000
  O   O6        1.0  0.86300  0.61400  0.24000  1.0000
  O   O7        1.0  0.87300  0.11400  0.26000  1.0000
  O   O8        1.0  0.66900  0.41200  0.27000  1.0000
  O   O9        1.0  0.12500  0.83300  0.33300  1.0000
  O   O10       1.0  0.52300  0.24000  0.38600  1.0000
  O   O11       1.0  0.60100  0.73000  0.41200  1.0000
  O   O12       1.0  0.37300  0.00244  0.49800  1.0000
  O   O13       1.0  0.87700  0.99800  0.50200  1.0000
  O   O14       1.0  0.91900  0.27000  0.58800  1.0000
  O   O15       1.0  0.37700  0.76000  0.61400  1.0000
  O   O16       1.0  0.62500  0.16700  0.66700  1.0000
  O   O17       1.0  0.81100  0.58800  0.73000  1.0000
  O   O18       1.0  0.72700  0.88600  0.74000  1.0000
  O   O19       1.0  0.23700  0.38600  0.76000  1.0000
  O   O20       1.0  0.33100  0.08760  0.77000  1.0000
  O   O21       1.0  0.20800  0.66700  0.83300  1.0000
  O   O22       1.0  0.01340  0.26000  0.88600  1.0000
  O   O23       1.0  0.58100  0.77000  0.91200  1.0000
  O   O24       1.0  0.62500  0.49800  0.99800  1.0000
