data_image0
_chemical_formula_structural       As4Ni2
_chemical_formula_sum              "As4 Ni2"
_cell_length_a       4.79967
_cell_length_b       5.82735
_cell_length_c       3.55647
_cell_angle_alpha    90
_cell_angle_beta     90
_cell_angle_gamma    90

_space_group_name_H-M_alt    "P 1"
_space_group_IT_number       1

loop_
  _space_group_symop_operation_xyz
  'x, y, z'

loop_
  _atom_site_type_symbol
  _atom_site_label
  _atom_site_symmetry_multiplicity
  _atom_site_fract_x
  _atom_site_fract_y
  _atom_site_fract_z
  _atom_site_occupancy
  As  As1       1.0  0.20500  0.36800  0.00000  1.0000
  As  As2       1.0  0.79500  0.63200  0.00000  1.0000
  As  As3       1.0  0.70500  0.13200  0.50000  1.0000
  As  As4       1.0  0.29500  0.86800  0.50000  1.0000
  Ni  Ni1       1.0  0.00000  0.00000  0.00000  1.0000
  Ni  Ni2       1.0  0.50000  0.50000  0.50000  1.0000
