data_image0
_chemical_formula_structural       Co3Li8Mn8Ni5O32
_chemical_formula_sum              "Co3 Li8 Mn8 Ni5 O32"
_cell_length_a       8.09848
_cell_length_b       8.20602
_cell_length_c       8.09857
_cell_angle_alpha    90.5949
_cell_angle_beta     90.0048
_cell_angle_gamma    90.5923

_space_group_name_H-M_alt    "P 1"
_space_group_IT_number       1

loop_
  _space_group_symop_operation_xyz
  'x, y, z'

loop_
  _atom_site_type_symbol
  _atom_site_label
  _atom_site_symmetry_multiplicity
  _atom_site_fract_x
  _atom_site_fract_y
  _atom_site_fract_z
  _atom_site_occupancy
  Co  Co1       1.0  0.00000  0.00000  0.00000  1.0000
  Co  Co2       1.0  0.50000  0.50000  0.00000  1.0000
  Co  Co3       1.0  0.50000  0.00000  0.50000  1.0000
  Li  Li1       1.0  0.62400  0.12100  0.12400  1.0000
  Li  Li2       1.0  0.12500  0.62000  0.12700  1.0000
  Li  Li3       1.0  0.37300  0.38000  0.37500  1.0000
  Li  Li4       1.0  0.87500  0.88000  0.37500  1.0000
  Li  Li5       1.0  0.12500  0.12000  0.62500  1.0000
  Li  Li6       1.0  0.62700  0.62000  0.62500  1.0000
  Li  Li7       1.0  0.87500  0.38000  0.87300  1.0000
  Li  Li8       1.0  0.37600  0.87900  0.87600  1.0000
  Mn  Mn1       1.0  0.75200  0.74900  0.00234  1.0000
  Mn  Mn2       1.0  0.99600  0.24900  0.24800  1.0000
  Mn  Mn3       1.0  0.50200  0.74900  0.25200  1.0000
  Mn  Mn4       1.0  0.74800  0.24900  0.49600  1.0000
  Mn  Mn5       1.0  0.25200  0.75100  0.50400  1.0000
  Mn  Mn6       1.0  0.49800  0.25100  0.74800  1.0000
  Mn  Mn7       1.0  0.00416  0.75100  0.75200  1.0000
  Mn  Mn8       1.0  0.24800  0.25100  0.99800  1.0000
  Ni  Ni1       1.0  0.74800  0.49700  0.24800  1.0000
  Ni  Ni2       1.0  0.25000  0.00000  0.25000  1.0000
  Ni  Ni3       1.0  0.00000  0.50000  0.50000  1.0000
  Ni  Ni4       1.0  0.75000  0.00000  0.75000  1.0000
  Ni  Ni5       1.0  0.25200  0.50300  0.75200  1.0000
  O   O1        1.0  0.23100  0.01760  0.00375  1.0000
  O   O2        1.0  0.00932  0.23400  0.00758  1.0000
  O   O3        1.0  0.73700  0.51500  0.01300  1.0000
  O   O4        1.0  0.51300  0.73700  0.01330  1.0000
  O   O5        1.0  0.00423  0.01510  0.22900  1.0000
  O   O6        1.0  0.23300  0.24800  0.23400  1.0000
  O   O7        1.0  0.51300  0.51500  0.23700  1.0000
  O   O8        1.0  0.73800  0.74600  0.23800  1.0000
  O   O9        1.0  0.98100  0.47900  0.25300  1.0000
  O   O10       1.0  0.76100  0.24900  0.26100  1.0000
  O   O11       1.0  0.26600  0.75200  0.26700  1.0000
  O   O12       1.0  0.49600  0.98200  0.26900  1.0000
  O   O13       1.0  0.75300  0.47900  0.48100  1.0000
  O   O14       1.0  0.98300  0.24700  0.48300  1.0000
  O   O15       1.0  0.49200  0.76600  0.49100  1.0000
  O   O16       1.0  0.27100  0.98500  0.49600  1.0000
  O   O17       1.0  0.72900  0.01500  0.50400  1.0000
  O   O18       1.0  0.50800  0.23400  0.50900  1.0000
  O   O19       1.0  0.01700  0.75300  0.51700  1.0000
  O   O20       1.0  0.24700  0.52100  0.51900  1.0000
  O   O21       1.0  0.50400  0.01750  0.73100  1.0000
  O   O22       1.0  0.73400  0.24800  0.73300  1.0000
  O   O23       1.0  0.23900  0.75100  0.73900  1.0000
  O   O24       1.0  0.01870  0.52100  0.74700  1.0000
  O   O25       1.0  0.26200  0.25400  0.76200  1.0000
  O   O26       1.0  0.48700  0.48500  0.76300  1.0000
  O   O27       1.0  0.76700  0.75200  0.76600  1.0000
  O   O28       1.0  0.99600  0.98500  0.77100  1.0000
  O   O29       1.0  0.48700  0.26300  0.98700  1.0000
  O   O30       1.0  0.26300  0.48500  0.98700  1.0000
  O   O31       1.0  0.99100  0.76600  0.99200  1.0000
  O   O32       1.0  0.76900  0.98200  0.99600  1.0000
