data_image0
_chemical_formula_structural       Eu22Sb20
_chemical_formula_sum              "Eu22 Sb20"
_cell_length_a       12.574
_cell_length_b       12.574
_cell_length_c       13.6442
_cell_angle_alpha    117.438
_cell_angle_beta     117.438
_cell_angle_gamma    90

_space_group_name_H-M_alt    "P 1"
_space_group_IT_number       1

loop_
  _space_group_symop_operation_xyz
  'x, y, z'

loop_
  _atom_site_type_symbol
  _atom_site_label
  _atom_site_symmetry_multiplicity
  _atom_site_fract_x
  _atom_site_fract_y
  _atom_site_fract_z
  _atom_site_occupancy
  Eu  Eu1       1.0  0.14800  0.14800  0.00000  1.0000
  Eu  Eu2       1.0  0.85200  0.14800  0.00000  1.0000
  Eu  Eu3       1.0  0.14800  0.85200  0.00000  1.0000
  Eu  Eu4       1.0  0.85200  0.85200  0.00000  1.0000
  Eu  Eu5       1.0  0.57900  0.57900  0.15800  1.0000
  Eu  Eu6       1.0  0.57900  0.25900  0.15900  1.0000
  Eu  Eu7       1.0  0.25900  0.57900  0.15900  1.0000
  Eu  Eu8       1.0  0.90000  0.57900  0.15900  1.0000
  Eu  Eu9       1.0  0.57900  0.90000  0.15900  1.0000
  Eu  Eu10      1.0  0.42500  0.15900  0.31800  1.0000
  Eu  Eu11      1.0  0.89300  0.15900  0.31800  1.0000
  Eu  Eu12      1.0  0.15900  0.42500  0.31800  1.0000
  Eu  Eu13      1.0  0.15900  0.89300  0.31800  1.0000
  Eu  Eu14      1.0  0.84100  0.10700  0.68200  1.0000
  Eu  Eu15      1.0  0.84100  0.57500  0.68200  1.0000
  Eu  Eu16      1.0  0.10700  0.84100  0.68200  1.0000
  Eu  Eu17      1.0  0.57500  0.84100  0.68200  1.0000
  Eu  Eu18      1.0  0.42100  0.10000  0.84100  1.0000
  Eu  Eu19      1.0  0.10000  0.42100  0.84100  1.0000
  Eu  Eu20      1.0  0.74100  0.42100  0.84100  1.0000
  Eu  Eu21      1.0  0.42100  0.74100  0.84100  1.0000
  Eu  Eu22      1.0  0.42100  0.42100  0.84200  1.0000
  Sb  Sb1       1.0  0.35000  0.00000  0.00000  1.0000
  Sb  Sb2       1.0  0.65000  0.00000  0.00000  1.0000
  Sb  Sb3       1.0  0.33000  0.33000  0.00000  1.0000
  Sb  Sb4       1.0  0.67000  0.33000  0.00000  1.0000
  Sb  Sb5       1.0  0.00000  0.35000  0.00000  1.0000
  Sb  Sb6       1.0  0.00000  0.65000  0.00000  1.0000
  Sb  Sb7       1.0  0.33000  0.67000  0.00000  1.0000
  Sb  Sb8       1.0  0.67000  0.67000  0.00000  1.0000
  Sb  Sb9       1.0  0.10600  0.10600  0.21200  1.0000
  Sb  Sb10      1.0  0.70200  0.53900  0.40500  1.0000
  Sb  Sb11      1.0  0.53900  0.70200  0.40500  1.0000
  Sb  Sb12      1.0  0.86600  0.70200  0.40500  1.0000
  Sb  Sb13      1.0  0.70200  0.86600  0.40500  1.0000
  Sb  Sb14      1.0  0.75000  0.25000  0.50000  1.0000
  Sb  Sb15      1.0  0.25000  0.75000  0.50000  1.0000
  Sb  Sb16      1.0  0.29800  0.13400  0.59500  1.0000
  Sb  Sb17      1.0  0.13400  0.29800  0.59500  1.0000
  Sb  Sb18      1.0  0.46100  0.29800  0.59500  1.0000
  Sb  Sb19      1.0  0.29800  0.46100  0.59500  1.0000
  Sb  Sb20      1.0  0.89400  0.89400  0.78800  1.0000
