data_image0
_chemical_formula_structural       F2O24P6Pb10
_chemical_formula_sum              "F2 O24 P6 Pb10"
_cell_length_a       9.81653
_cell_length_b       9.81644
_cell_length_c       7.34413
_cell_angle_alpha    90
_cell_angle_beta     90
_cell_angle_gamma    120

_space_group_name_H-M_alt    "P 1"
_space_group_IT_number       1

loop_
  _space_group_symop_operation_xyz
  'x, y, z'

loop_
  _atom_site_type_symbol
  _atom_site_label
  _atom_site_symmetry_multiplicity
  _atom_site_fract_x
  _atom_site_fract_y
  _atom_site_fract_z
  _atom_site_occupancy
  F   F1        1.0  0.00000  0.00000  0.25000  1.0000
  F   F2        1.0  0.00000  0.00000  0.75000  1.0000
  O   O1        1.0  0.74000  0.08500  0.08000  1.0000
  O   O2        1.0  0.34500  0.26000  0.08000  1.0000
  O   O3        1.0  0.91500  0.65500  0.08000  1.0000
  O   O4        1.0  0.53400  0.11800  0.25000  1.0000
  O   O5        1.0  0.88200  0.41600  0.25000  1.0000
  O   O6        1.0  0.58400  0.46600  0.25000  1.0000
  O   O7        1.0  0.33400  0.48300  0.25000  1.0000
  O   O8        1.0  0.14900  0.66600  0.25000  1.0000
  O   O9        1.0  0.51700  0.85100  0.25000  1.0000
  O   O10       1.0  0.91500  0.65500  0.42000  1.0000
  O   O11       1.0  0.74000  0.08500  0.42000  1.0000
  O   O12       1.0  0.34500  0.26000  0.42000  1.0000
  O   O13       1.0  0.65500  0.74000  0.58000  1.0000
  O   O14       1.0  0.26000  0.91500  0.58000  1.0000
  O   O15       1.0  0.08500  0.34500  0.58000  1.0000
  O   O16       1.0  0.48300  0.14900  0.75000  1.0000
  O   O17       1.0  0.85100  0.33400  0.75000  1.0000
  O   O18       1.0  0.66600  0.51700  0.75000  1.0000
  O   O19       1.0  0.41600  0.53400  0.75000  1.0000
  O   O20       1.0  0.11800  0.58400  0.75000  1.0000
  O   O21       1.0  0.46600  0.88200  0.75000  1.0000
  O   O22       1.0  0.08500  0.34500  0.92000  1.0000
  O   O23       1.0  0.65500  0.74000  0.92000  1.0000
  O   O24       1.0  0.26000  0.91500  0.92000  1.0000
  P   P1        1.0  0.63100  0.03070  0.25000  1.0000
  P   P2        1.0  0.40000  0.36900  0.25000  1.0000
  P   P3        1.0  0.96900  0.60000  0.25000  1.0000
  P   P4        1.0  0.03070  0.40000  0.75000  1.0000
  P   P5        1.0  0.60000  0.63100  0.75000  1.0000
  P   P6        1.0  0.36900  0.96900  0.75000  1.0000
  Pb  Pb1       1.0  0.33300  0.66700  0.00159  1.0000
  Pb  Pb2       1.0  0.00617  0.25100  0.25000  1.0000
  Pb  Pb3       1.0  0.74900  0.75600  0.25000  1.0000
  Pb  Pb4       1.0  0.24400  0.99400  0.25000  1.0000
  Pb  Pb5       1.0  0.33300  0.66700  0.49800  1.0000
  Pb  Pb6       1.0  0.66700  0.33300  0.50200  1.0000
  Pb  Pb7       1.0  0.75600  0.00617  0.75000  1.0000
  Pb  Pb8       1.0  0.25100  0.24400  0.75000  1.0000
  Pb  Pb9       1.0  0.99400  0.74900  0.75000  1.0000
  Pb  Pb10      1.0  0.66700  0.33300  0.99800  1.0000
