data_image0
_chemical_formula_structural       Sc4Zr2
_chemical_formula_sum              "Sc4 Zr2"
_cell_length_a       3.26188
_cell_length_b       6.10529
_cell_length_c       7.60256
_cell_angle_alpha    102.744
_cell_angle_beta     90
_cell_angle_gamma    105.494

_space_group_name_H-M_alt    "P 1"
_space_group_IT_number       1

loop_
  _space_group_symop_operation_xyz
  'x, y, z'

loop_
  _atom_site_type_symbol
  _atom_site_label
  _atom_site_symmetry_multiplicity
  _atom_site_fract_x
  _atom_site_fract_y
  _atom_site_fract_z
  _atom_site_occupancy
  Sc  Sc1       1.0  0.19100  0.38300  0.13700  1.0000
  Sc  Sc2       1.0  0.86700  0.73300  0.47400  1.0000
  Sc  Sc3       1.0  0.13300  0.26700  0.52600  1.0000
  Sc  Sc4       1.0  0.80900  0.61700  0.86300  1.0000
  Zr  Zr1       1.0  0.47400  0.94800  0.19300  1.0000
  Zr  Zr2       1.0  0.52600  0.05220  0.80700  1.0000
