data_image0
_chemical_formula_structural       Ge6Na8O24Zr4
_chemical_formula_sum              "Ge6 Na8 O24 Zr4"
_cell_length_a       9.2162
_cell_length_b       9.2162
_cell_length_c       9.2162
_cell_angle_alpha    61.9514
_cell_angle_beta     118.049
_cell_angle_gamma    118.049

_space_group_name_H-M_alt    "P 1"
_space_group_IT_number       1

loop_
  _space_group_symop_operation_xyz
  'x, y, z'

loop_
  _atom_site_type_symbol
  _atom_site_label
  _atom_site_symmetry_multiplicity
  _atom_site_fract_x
  _atom_site_fract_y
  _atom_site_fract_z
  _atom_site_occupancy
  Ge  Ge1       1.0  0.54700  0.75100  0.04760  1.0000
  Ge  Ge2       1.0  0.04760  0.54700  0.24900  1.0000
  Ge  Ge3       1.0  0.24900  0.04760  0.45300  1.0000
  Ge  Ge4       1.0  0.75100  0.95200  0.54700  1.0000
  Ge  Ge5       1.0  0.95200  0.45300  0.75100  1.0000
  Ge  Ge6       1.0  0.45300  0.24900  0.95200  1.0000
  Na  Na1       1.0  0.00000  0.00000  0.00000  1.0000
  Na  Na2       1.0  0.25000  0.37200  0.12300  1.0000
  Na  Na3       1.0  0.37200  0.87700  0.25000  1.0000
  Na  Na4       1.0  0.87700  0.75000  0.37200  1.0000
  Na  Na5       1.0  0.50000  0.50000  0.50000  1.0000
  Na  Na6       1.0  0.12300  0.25000  0.62800  1.0000
  Na  Na7       1.0  0.62800  0.12300  0.75000  1.0000
  Na  Na8       1.0  0.75000  0.62800  0.87700  1.0000
  O   O1        1.0  0.37300  0.80900  0.01010  1.0000
  O   O2        1.0  0.74800  0.91500  0.06890  1.0000
  O   O3        1.0  0.06890  0.74800  0.08470  1.0000
  O   O4        1.0  0.48700  0.29700  0.13100  1.0000
  O   O5        1.0  0.01010  0.37300  0.19100  1.0000
  O   O6        1.0  0.55500  0.57600  0.24100  1.0000
  O   O7        1.0  0.08470  0.06890  0.25200  1.0000
  O   O8        1.0  0.86900  0.51300  0.29700  1.0000
  O   O9        1.0  0.80900  0.99000  0.37300  1.0000
  O   O10       1.0  0.24100  0.55500  0.42400  1.0000
  O   O11       1.0  0.42400  0.24100  0.44500  1.0000
  O   O12       1.0  0.29700  0.86900  0.48700  1.0000
  O   O13       1.0  0.70300  0.13100  0.51300  1.0000
  O   O14       1.0  0.57600  0.75900  0.55500  1.0000
  O   O15       1.0  0.75900  0.44500  0.57600  1.0000
  O   O16       1.0  0.19100  0.01010  0.62700  1.0000
  O   O17       1.0  0.13100  0.48700  0.70300  1.0000
  O   O18       1.0  0.91500  0.93100  0.74800  1.0000
  O   O19       1.0  0.44500  0.42400  0.75900  1.0000
  O   O20       1.0  0.99000  0.62700  0.80900  1.0000
  O   O21       1.0  0.51300  0.70300  0.86900  1.0000
  O   O22       1.0  0.93100  0.25200  0.91500  1.0000
  O   O23       1.0  0.25200  0.08470  0.93100  1.0000
  O   O24       1.0  0.62700  0.19100  0.99000  1.0000
  Zr  Zr1       1.0  0.85600  0.14400  0.14400  1.0000
  Zr  Zr2       1.0  0.64400  0.35600  0.35600  1.0000
  Zr  Zr3       1.0  0.35600  0.64400  0.64400  1.0000
  Zr  Zr4       1.0  0.14400  0.85600  0.85600  1.0000
