data_image0
_chemical_formula_structural       Eu2Ge6Mg6
_chemical_formula_sum              "Eu2 Ge6 Mg6"
_cell_length_a       4.56097
_cell_length_b       4.48062
_cell_length_c       15.5656
_cell_angle_alpha    81.7248
_cell_angle_beta     90
_cell_angle_gamma    90

_space_group_name_H-M_alt    "P 1"
_space_group_IT_number       1

loop_
  _space_group_symop_operation_xyz
  'x, y, z'

loop_
  _atom_site_type_symbol
  _atom_site_label
  _atom_site_symmetry_multiplicity
  _atom_site_fract_x
  _atom_site_fract_y
  _atom_site_fract_z
  _atom_site_occupancy
  Eu  Eu1       1.0  0.25000  0.94400  0.11200  1.0000
  Eu  Eu2       1.0  0.75000  0.05580  0.88800  1.0000
  Ge  Ge1       1.0  0.75000  0.48300  0.03420  1.0000
  Ge  Ge2       1.0  0.75000  0.40300  0.19400  1.0000
  Ge  Ge3       1.0  0.25000  0.80200  0.39700  1.0000
  Ge  Ge4       1.0  0.75000  0.19800  0.60300  1.0000
  Ge  Ge5       1.0  0.25000  0.59700  0.80600  1.0000
  Ge  Ge6       1.0  0.25000  0.51700  0.96600  1.0000
  Mg  Mg1       1.0  0.25000  0.35400  0.29200  1.0000
  Mg  Mg2       1.0  0.75000  0.85300  0.29400  1.0000
  Mg  Mg3       1.0  0.25000  0.25000  0.49900  1.0000
  Mg  Mg4       1.0  0.75000  0.75000  0.50100  1.0000
  Mg  Mg5       1.0  0.25000  0.14700  0.70600  1.0000
  Mg  Mg6       1.0  0.75000  0.64600  0.70800  1.0000
