data_image0
_chemical_formula_structural       Li2Mg2O8V2
_chemical_formula_sum              "Li2 Mg2 O8 V2"
_cell_length_a       5.11964
_cell_length_b       5.11964
_cell_length_c       6.20608
_cell_angle_alpha    90
_cell_angle_beta     90
_cell_angle_gamma    113.683

_space_group_name_H-M_alt    "P 1"
_space_group_IT_number       1

loop_
  _space_group_symop_operation_xyz
  'x, y, z'

loop_
  _atom_site_type_symbol
  _atom_site_label
  _atom_site_symmetry_multiplicity
  _atom_site_fract_x
  _atom_site_fract_y
  _atom_site_fract_z
  _atom_site_occupancy
  Li  Li1       1.0  0.83800  0.16200  0.25000  1.0000
  Li  Li2       1.0  0.16200  0.83800  0.75000  1.0000
  Mg  Mg1       1.0  0.50000  0.50000  0.00000  1.0000
  Mg  Mg2       1.0  0.50000  0.50000  0.50000  1.0000
  O   O1        1.0  0.26100  0.73900  0.02700  1.0000
  O   O2        1.0  0.26400  0.22900  0.25000  1.0000
  O   O3        1.0  0.77100  0.73600  0.25000  1.0000
  O   O4        1.0  0.26100  0.73900  0.47300  1.0000
  O   O5        1.0  0.73900  0.26100  0.52700  1.0000
  O   O6        1.0  0.22900  0.26400  0.75000  1.0000
  O   O7        1.0  0.73600  0.77100  0.75000  1.0000
  O   O8        1.0  0.73900  0.26100  0.97300  1.0000
  V   V1        1.0  0.14600  0.85400  0.25000  1.0000
  V   V2        1.0  0.85400  0.14600  0.75000  1.0000
