data_image0
_chemical_formula_structural       Cl8Mg2Na4
_chemical_formula_sum              "Cl8 Mg2 Na4"
_cell_length_a       6.90155
_cell_length_b       11.895
_cell_length_c       3.81321
_cell_angle_alpha    90
_cell_angle_beta     90
_cell_angle_gamma    90

_space_group_name_H-M_alt    "P 1"
_space_group_IT_number       1

loop_
  _space_group_symop_operation_xyz
  'x, y, z'

loop_
  _atom_site_type_symbol
  _atom_site_label
  _atom_site_symmetry_multiplicity
  _atom_site_fract_x
  _atom_site_fract_y
  _atom_site_fract_z
  _atom_site_occupancy
  Cl  Cl1       1.0  0.12000  0.19500  0.00000  1.0000
  Cl  Cl2       1.0  0.62000  0.30500  0.00000  1.0000
  Cl  Cl3       1.0  0.38000  0.69500  0.00000  1.0000
  Cl  Cl4       1.0  0.88000  0.80500  0.00000  1.0000
  Cl  Cl5       1.0  0.76200  0.04360  0.50000  1.0000
  Cl  Cl6       1.0  0.26200  0.45600  0.50000  1.0000
  Cl  Cl7       1.0  0.73800  0.54400  0.50000  1.0000
  Cl  Cl8       1.0  0.23800  0.95600  0.50000  1.0000
  Mg  Mg1       1.0  0.00000  0.00000  0.00000  1.0000
  Mg  Mg2       1.0  0.50000  0.50000  0.00000  1.0000
  Na  Na1       1.0  0.41400  0.18100  0.50000  1.0000
  Na  Na2       1.0  0.91400  0.31900  0.50000  1.0000
  Na  Na3       1.0  0.08640  0.68100  0.50000  1.0000
  Na  Na4       1.0  0.58600  0.81900  0.50000  1.0000
