data_image0
_chemical_formula_structural       Ca10Cl2O24P6
_chemical_formula_sum              "Ca10 Cl2 O24 P6"
_cell_length_a       9.54329
_cell_length_b       9.54331
_cell_length_c       6.7432
_cell_angle_alpha    90
_cell_angle_beta     90
_cell_angle_gamma    120

_space_group_name_H-M_alt    "P 1"
_space_group_IT_number       1

loop_
  _space_group_symop_operation_xyz
  'x, y, z'

loop_
  _atom_site_type_symbol
  _atom_site_label
  _atom_site_symmetry_multiplicity
  _atom_site_fract_x
  _atom_site_fract_y
  _atom_site_fract_z
  _atom_site_occupancy
  Ca  Ca1       1.0  0.33300  0.66700  0.00253  1.0000
  Ca  Ca2       1.0  0.25400  0.00387  0.25000  1.0000
  Ca  Ca3       1.0  0.99600  0.25000  0.25000  1.0000
  Ca  Ca4       1.0  0.75000  0.74600  0.25000  1.0000
  Ca  Ca5       1.0  0.33300  0.66700  0.49700  1.0000
  Ca  Ca6       1.0  0.66700  0.33300  0.50300  1.0000
  Ca  Ca7       1.0  0.25000  0.25400  0.75000  1.0000
  Ca  Ca8       1.0  0.00387  0.75000  0.75000  1.0000
  Ca  Ca9       1.0  0.74600  0.99600  0.75000  1.0000
  Ca  Ca10      1.0  0.66700  0.33300  0.99700  1.0000
  Cl  Cl1       1.0  0.00000  0.00000  0.00000  1.0000
  Cl  Cl2       1.0  0.00000  0.00000  0.50000  1.0000
  O   O1        1.0  0.73600  0.09000  0.06520  1.0000
  O   O2        1.0  0.35400  0.26400  0.06520  1.0000
  O   O3        1.0  0.91000  0.64600  0.06520  1.0000
  O   O4        1.0  0.53000  0.12600  0.25000  1.0000
  O   O5        1.0  0.87400  0.40400  0.25000  1.0000
  O   O6        1.0  0.59600  0.47000  0.25000  1.0000
  O   O7        1.0  0.33700  0.48900  0.25000  1.0000
  O   O8        1.0  0.15300  0.66300  0.25000  1.0000
  O   O9        1.0  0.51100  0.84700  0.25000  1.0000
  O   O10       1.0  0.91000  0.64600  0.43500  1.0000
  O   O11       1.0  0.73600  0.09000  0.43500  1.0000
  O   O12       1.0  0.35400  0.26400  0.43500  1.0000
  O   O13       1.0  0.26400  0.91000  0.56500  1.0000
  O   O14       1.0  0.09000  0.35400  0.56500  1.0000
  O   O15       1.0  0.64600  0.73600  0.56500  1.0000
  O   O16       1.0  0.48900  0.15300  0.75000  1.0000
  O   O17       1.0  0.84700  0.33700  0.75000  1.0000
  O   O18       1.0  0.66300  0.51100  0.75000  1.0000
  O   O19       1.0  0.40400  0.53000  0.75000  1.0000
  O   O20       1.0  0.12600  0.59600  0.75000  1.0000
  O   O21       1.0  0.47000  0.87400  0.75000  1.0000
  O   O22       1.0  0.09000  0.35400  0.93500  1.0000
  O   O23       1.0  0.64600  0.73600  0.93500  1.0000
  O   O24       1.0  0.26400  0.91000  0.93500  1.0000
  P   P1        1.0  0.62500  0.03240  0.25000  1.0000
  P   P2        1.0  0.40700  0.37500  0.25000  1.0000
  P   P3        1.0  0.96800  0.59300  0.25000  1.0000
  P   P4        1.0  0.03240  0.40700  0.75000  1.0000
  P   P5        1.0  0.59300  0.62500  0.75000  1.0000
  P   P6        1.0  0.37500  0.96800  0.75000  1.0000
