data_image0
_chemical_formula_structural       Pd3Pr3Tl3
_chemical_formula_sum              "Pd3 Pr3 Tl3"
_cell_length_a       9.12295
_cell_length_b       9.12295
_cell_length_c       3.22091
_cell_angle_alpha    90
_cell_angle_beta     90
_cell_angle_gamma    119.995

_space_group_name_H-M_alt    "P 1"
_space_group_IT_number       1

loop_
  _space_group_symop_operation_xyz
  'x, y, z'

loop_
  _atom_site_type_symbol
  _atom_site_label
  _atom_site_symmetry_multiplicity
  _atom_site_fract_x
  _atom_site_fract_y
  _atom_site_fract_z
  _atom_site_occupancy
  Pd  Pd1       1.0  0.66700  0.33300  0.00000  1.0000
  Pd  Pd2       1.0  0.33300  0.66700  0.00000  1.0000
  Pd  Pd3       1.0  0.00000  0.00000  0.50000  1.0000
  Pr  Pr1       1.0  0.62300  0.00002  0.50000  1.0000
  Pr  Pr2       1.0  0.37800  0.37800  0.50000  1.0000
  Pr  Pr3       1.0  0.00002  0.62300  0.50000  1.0000
  Tl  Tl1       1.0  0.29600  0.00000  0.50000  1.0000
  Tl  Tl2       1.0  0.00000  0.29600  0.50000  1.0000
  Tl  Tl3       1.0  0.70400  0.70400  0.50000  1.0000
