data_image0
_chemical_formula_structural       Mg2Se8Y4
_chemical_formula_sum              "Mg2 Se8 Y4"
_cell_length_a       8.24111
_cell_length_b       8.24111
_cell_length_c       8.24111
_cell_angle_alpha    120
_cell_angle_beta     90
_cell_angle_gamma    120

_space_group_name_H-M_alt    "P 1"
_space_group_IT_number       1

loop_
  _space_group_symop_operation_xyz
  'x, y, z'

loop_
  _atom_site_type_symbol
  _atom_site_label
  _atom_site_symmetry_multiplicity
  _atom_site_fract_x
  _atom_site_fract_y
  _atom_site_fract_z
  _atom_site_occupancy
  Mg  Mg1       1.0  0.00000  0.00000  0.00000  1.0000
  Mg  Mg2       1.0  0.75000  0.50000  0.25000  1.0000
  Se  Se1       1.0  0.62100  0.24200  0.37900  1.0000
  Se  Se2       1.0  0.13700  0.75800  0.37900  1.0000
  Se  Se3       1.0  0.62100  0.75800  0.37900  1.0000
  Se  Se4       1.0  0.12900  0.25800  0.38700  1.0000
  Se  Se5       1.0  0.62100  0.24200  0.86300  1.0000
  Se  Se6       1.0  0.12900  0.25800  0.87100  1.0000
  Se  Se7       1.0  0.12900  0.74200  0.87100  1.0000
  Se  Se8       1.0  0.61300  0.74200  0.87100  1.0000
  Y   Y1        1.0  0.37500  0.75000  0.12500  1.0000
  Y   Y2        1.0  0.87500  0.25000  0.62500  1.0000
  Y   Y3        1.0  0.37500  0.25000  0.62500  1.0000
  Y   Y4        1.0  0.37500  0.75000  0.62500  1.0000
