data_image0
_chemical_formula_structural       B12O24Pd6
_chemical_formula_sum              "B12 O24 Pd6"
_cell_length_a       5.69945
_cell_length_b       8.74137
_cell_length_c       8.74137
_cell_angle_alpha    96.1008
_cell_angle_beta     70.9736
_cell_angle_gamma    109.026

_space_group_name_H-M_alt    "P 1"
_space_group_IT_number       1

loop_
  _space_group_symop_operation_xyz
  'x, y, z'

loop_
  _atom_site_type_symbol
  _atom_site_label
  _atom_site_symmetry_multiplicity
  _atom_site_fract_x
  _atom_site_fract_y
  _atom_site_fract_z
  _atom_site_occupancy
  B   B1        1.0  0.84500  0.33300  0.03610  1.0000
  B   B2        1.0  0.20200  0.46400  0.16700  1.0000
  B   B3        1.0  0.37600  0.25100  0.24900  1.0000
  B   B4        1.0  0.37500  0.75100  0.25100  1.0000
  B   B5        1.0  0.11900  0.96400  0.33300  1.0000
  B   B6        1.0  0.63100  0.83300  0.46400  1.0000
  B   B7        1.0  0.26200  0.16700  0.53600  1.0000
  B   B8        1.0  0.48800  0.03610  0.66700  1.0000
  B   B9        1.0  0.87500  0.24900  0.74900  1.0000
  B   B10       1.0  0.37400  0.74900  0.75100  1.0000
  B   B11       1.0  0.90500  0.53600  0.83300  1.0000
  B   B12       1.0  0.54800  0.66700  0.96400  1.0000
  O   O1        1.0  0.37500  0.50200  0.00176  1.0000
  O   O2        1.0  0.56700  0.23300  0.09180  1.0000
  O   O3        1.0  0.60600  0.74100  0.11300  1.0000
  O   O4        1.0  0.96400  0.33900  0.16100  1.0000
  O   O5        1.0  0.34100  0.90800  0.23300  1.0000
  O   O6        1.0  0.14400  0.61300  0.24100  1.0000
  O   O7        1.0  0.13600  0.11300  0.25900  1.0000
  O   O8        1.0  0.32400  0.40800  0.26700  1.0000
  O   O9        1.0  0.87500  0.83900  0.33900  1.0000
  O   O10       1.0  0.46900  0.24100  0.38700  1.0000
  O   O11       1.0  0.40900  0.73300  0.40800  1.0000
  O   O12       1.0  0.12700  0.00176  0.49800  1.0000
  O   O13       1.0  0.62300  0.99800  0.50200  1.0000
  O   O14       1.0  0.08420  0.26700  0.59200  1.0000
  O   O15       1.0  0.61400  0.75900  0.61300  1.0000
  O   O16       1.0  0.37500  0.16100  0.66100  1.0000
  O   O17       1.0  0.18300  0.59200  0.73300  1.0000
  O   O18       1.0  0.28100  0.88700  0.74100  1.0000
  O   O19       1.0  0.77200  0.38700  0.75900  1.0000
  O   O20       1.0  0.66600  0.09180  0.76700  1.0000
  O   O21       1.0  0.78600  0.66100  0.83900  1.0000
  O   O22       1.0  0.97800  0.25900  0.88700  1.0000
  O   O23       1.0  0.42600  0.76700  0.90800  1.0000
  O   O24       1.0  0.87500  0.49800  0.99800  1.0000
  Pd  Pd1       1.0  0.50000  0.00000  0.00000  1.0000
  Pd  Pd2       1.0  0.87500  0.67000  0.17000  1.0000
  Pd  Pd3       1.0  0.79500  0.17000  0.33000  1.0000
  Pd  Pd4       1.0  0.25000  0.50000  0.50000  1.0000
  Pd  Pd5       1.0  0.95500  0.83000  0.67000  1.0000
  Pd  Pd6       1.0  0.37500  0.33000  0.83000  1.0000
