data_image0
_chemical_formula_structural       Au2Cs2Se2
_chemical_formula_sum              "Au2 Cs2 Se2"
_cell_length_a       5.65559
_cell_length_b       5.65559
_cell_length_c       6.96136
_cell_angle_alpha    90
_cell_angle_beta     90
_cell_angle_gamma    101.167

_space_group_name_H-M_alt    "P 1"
_space_group_IT_number       1

loop_
  _space_group_symop_operation_xyz
  'x, y, z'

loop_
  _atom_site_type_symbol
  _atom_site_label
  _atom_site_symmetry_multiplicity
  _atom_site_fract_x
  _atom_site_fract_y
  _atom_site_fract_z
  _atom_site_occupancy
  Au  Au1       1.0  0.00000  0.00000  0.00000  1.0000
  Au  Au2       1.0  0.00000  0.00000  0.50000  1.0000
  Cs  Cs1       1.0  0.37200  0.62800  0.25000  1.0000
  Cs  Cs2       1.0  0.62800  0.37200  0.75000  1.0000
  Se  Se1       1.0  0.80200  0.19800  0.25000  1.0000
  Se  Se2       1.0  0.19800  0.80200  0.75000  1.0000
