data_image0
_chemical_formula_structural       H14K4O18P6
_chemical_formula_sum              "H14 K4 O18 P6"
_cell_length_a       8.34114
_cell_length_b       8.72827
_cell_length_c       7.46343
_cell_angle_alpha    112.009
_cell_angle_beta     86.9598
_cell_angle_gamma    101.777

_space_group_name_H-M_alt    "P 1"
_space_group_IT_number       1

loop_
  _space_group_symop_operation_xyz
  'x, y, z'

loop_
  _atom_site_type_symbol
  _atom_site_label
  _atom_site_symmetry_multiplicity
  _atom_site_fract_x
  _atom_site_fract_y
  _atom_site_fract_z
  _atom_site_occupancy
  H   H1        1.0  0.17300  0.21000  0.05760  1.0000
  H   H2        1.0  0.47300  0.65800  0.07020  1.0000
  H   H3        1.0  0.08350  0.61300  0.07210  1.0000
  H   H4        1.0  0.69900  0.25400  0.15400  1.0000
  H   H5        1.0  0.07990  0.42200  0.24600  1.0000
  H   H6        1.0  0.74500  0.63200  0.30200  1.0000
  H   H7        1.0  0.41600  0.50500  0.33800  1.0000
  H   H8        1.0  0.58400  0.49500  0.66200  1.0000
  H   H9        1.0  0.25500  0.36800  0.69800  1.0000
  H   H10       1.0  0.92000  0.57800  0.75400  1.0000
  H   H11       1.0  0.30100  0.74600  0.84600  1.0000
  H   H12       1.0  0.91700  0.38700  0.92800  1.0000
  H   H13       1.0  0.52700  0.34200  0.93000  1.0000
  H   H14       1.0  0.82700  0.79000  0.94200  1.0000
  K   K1        1.0  0.40100  0.09280  0.31400  1.0000
  K   K2        1.0  0.91600  0.14600  0.40900  1.0000
  K   K3        1.0  0.08370  0.85400  0.59100  1.0000
  K   K4        1.0  0.59900  0.90700  0.68600  1.0000
  O   O1        1.0  0.71100  0.19300  0.00732  1.0000
  O   O2        1.0  0.29700  0.20000  0.03520  1.0000
  O   O3        1.0  0.00954  0.24300  0.10300  1.0000
  O   O4        1.0  0.73100  0.62600  0.15900  1.0000
  O   O5        1.0  0.08930  0.90400  0.25700  1.0000
  O   O6        1.0  0.62100  0.90100  0.32200  1.0000
  O   O7        1.0  0.13800  0.53500  0.34600  1.0000
  O   O8        1.0  0.67400  0.31800  0.36600  1.0000
  O   O9        1.0  0.76200  0.64400  0.49700  1.0000
  O   O10       1.0  0.23800  0.35600  0.50300  1.0000
  O   O11       1.0  0.32600  0.68200  0.63400  1.0000
  O   O12       1.0  0.86200  0.46500  0.65400  1.0000
  O   O13       1.0  0.37900  0.09890  0.67800  1.0000
  O   O14       1.0  0.91100  0.09580  0.74300  1.0000
  O   O15       1.0  0.26900  0.37400  0.84100  1.0000
  O   O16       1.0  0.99000  0.75700  0.89700  1.0000
  O   O17       1.0  0.70300  0.80000  0.96500  1.0000
  O   O18       1.0  0.28900  0.80700  0.99300  1.0000
  P   P1        1.0  0.10600  0.77300  0.06090  1.0000
  P   P2        1.0  0.62900  0.75200  0.14000  1.0000
  P   P3        1.0  0.28200  0.51800  0.46300  1.0000
  P   P4        1.0  0.71800  0.48200  0.53700  1.0000
  P   P5        1.0  0.37100  0.24800  0.86000  1.0000
  P   P6        1.0  0.89400  0.22700  0.93900  1.0000
