data_image0
_chemical_formula_structural       F6H18N4O10S2Te2
_chemical_formula_sum              "F6 H18 N4 O10 S2 Te2"
_cell_length_a       6.78611
_cell_length_b       7.31683
_cell_length_c       8.25161
_cell_angle_alpha    79.3216
_cell_angle_beta     88.1124
_cell_angle_gamma    73.0466

_space_group_name_H-M_alt    "P 1"
_space_group_IT_number       1

loop_
  _space_group_symop_operation_xyz
  'x, y, z'

loop_
  _atom_site_type_symbol
  _atom_site_label
  _atom_site_symmetry_multiplicity
  _atom_site_fract_x
  _atom_site_fract_y
  _atom_site_fract_z
  _atom_site_occupancy
  F   F1        1.0  0.12100  0.19300  0.05420  1.0000
  F   F2        1.0  0.98400  0.91600  0.22700  1.0000
  F   F3        1.0  0.51600  0.20800  0.43800  1.0000
  F   F4        1.0  0.74100  0.64000  0.49900  1.0000
  F   F5        1.0  0.34600  0.56800  0.49900  1.0000
  F   F6        1.0  0.90900  0.75400  0.99600  1.0000
  H   H1        1.0  0.44300  0.89500  0.13500  1.0000
  H   H2        1.0  0.21700  0.43800  0.17600  1.0000
  H   H3        1.0  0.57400  0.04050  0.19500  1.0000
  H   H4        1.0  0.98700  0.58500  0.20700  1.0000
  H   H5        1.0  0.65900  0.39000  0.20900  1.0000
  H   H6        1.0  0.63400  0.80100  0.28100  1.0000
  H   H7        1.0  0.06370  0.36000  0.32400  1.0000
  H   H8        1.0  0.41100  0.95200  0.32500  1.0000
  H   H9        1.0  0.17900  0.53200  0.35100  1.0000
  H   H10       1.0  0.46500  0.91600  0.63300  1.0000
  H   H11       1.0  0.04140  0.63700  0.67200  1.0000
  H   H12       1.0  0.71200  0.90000  0.67500  1.0000
  H   H13       1.0  0.11100  0.38700  0.70200  1.0000
  H   H14       1.0  0.52200  0.00679  0.79200  1.0000
  H   H15       1.0  0.91000  0.50800  0.80000  1.0000
  H   H16       1.0  0.58900  0.76100  0.80100  1.0000
  H   H17       1.0  0.15100  0.50000  0.85200  1.0000
  H   H18       1.0  0.30300  0.70100  0.99500  1.0000
  N   N1        1.0  0.51700  0.92300  0.23200  1.0000
  N   N2        1.0  0.11100  0.47900  0.26600  1.0000
  N   N3        1.0  0.57200  0.89500  0.72700  1.0000
  N   N4        1.0  0.05360  0.50900  0.75400  1.0000
  O   O1        1.0  0.66400  0.24000  0.08470  1.0000
  O   O2        1.0  0.64300  0.50000  0.27000  1.0000
  O   O3        1.0  0.94400  0.20200  0.43300  1.0000
  O   O4        1.0  0.26900  0.95400  0.49600  1.0000
  O   O5        1.0  0.96000  0.90200  0.62900  1.0000
  O   O6        1.0  0.10500  0.13900  0.70500  1.0000
  O   O7        1.0  0.50600  0.24400  0.82300  1.0000
  O   O8        1.0  0.65900  0.49800  0.85100  1.0000
  O   O9        1.0  0.34400  0.48400  0.99100  1.0000
  O   O10       1.0  0.28300  0.84400  0.99500  1.0000
  S   S1        1.0  0.07230  0.04400  0.56700  1.0000
  S   S2        1.0  0.54400  0.36600  0.93400  1.0000
  Te  Te1       1.0  0.63600  0.40400  0.50200  1.0000
  Te  Te2       1.0  0.00050  0.99900  0.99200  1.0000
