data_image0
_chemical_formula_structural       La2Si4
_chemical_formula_sum              "La2 Si4"
_cell_length_a       4.32908
_cell_length_b       4.32908
_cell_length_c       7.59904
_cell_angle_alpha    106.55
_cell_angle_beta     106.55
_cell_angle_gamma    90

_space_group_name_H-M_alt    "P 1"
_space_group_IT_number       1

loop_
  _space_group_symop_operation_xyz
  'x, y, z'

loop_
  _atom_site_type_symbol
  _atom_site_label
  _atom_site_symmetry_multiplicity
  _atom_site_fract_x
  _atom_site_fract_y
  _atom_site_fract_z
  _atom_site_occupancy
  La  La1       1.0  0.00000  0.00000  0.00000  1.0000
  La  La2       1.0  0.25000  0.75000  0.50000  1.0000
  Si  Si1       1.0  0.58500  0.58500  0.16900  1.0000
  Si  Si2       1.0  0.66500  0.16500  0.33100  1.0000
  Si  Si3       1.0  0.83500  0.33500  0.66900  1.0000
  Si  Si4       1.0  0.41500  0.41500  0.83100  1.0000
