data_image0
_chemical_formula_structural       HMgNa3O8P2
_chemical_formula_sum              "H1 Mg1 Na3 O8 P2"
_cell_length_a       5.18194
_cell_length_b       6.76612
_cell_length_c       5.14242
_cell_angle_alpha    91.4804
_cell_angle_beta     117.452
_cell_angle_gamma    90.3531

_space_group_name_H-M_alt    "P 1"
_space_group_IT_number       1

loop_
  _space_group_symop_operation_xyz
  'x, y, z'

loop_
  _atom_site_type_symbol
  _atom_site_label
  _atom_site_symmetry_multiplicity
  _atom_site_fract_x
  _atom_site_fract_y
  _atom_site_fract_z
  _atom_site_occupancy
  H   H1        1.0  0.50000  0.50000  0.00000  1.0000
  Mg  Mg1       1.0  0.00000  0.00000  0.00000  1.0000
  Na  Na1       1.0  0.00000  0.50000  0.00000  1.0000
  Na  Na2       1.0  0.70000  0.20900  0.33700  1.0000
  Na  Na3       1.0  0.30000  0.79100  0.66300  1.0000
  O   O1        1.0  0.31700  0.78900  0.21300  1.0000
  O   O2        1.0  0.78500  0.89800  0.21300  1.0000
  O   O3        1.0  0.68700  0.53700  0.24600  1.0000
  O   O4        1.0  0.20400  0.22900  0.32200  1.0000
  O   O5        1.0  0.79600  0.77100  0.67800  1.0000
  O   O6        1.0  0.31300  0.46300  0.75400  1.0000
  O   O7        1.0  0.21500  0.10200  0.78700  1.0000
  O   O8        1.0  0.68300  0.21100  0.78700  1.0000
  P   P1        1.0  0.64700  0.75400  0.34100  1.0000
  P   P2        1.0  0.35300  0.24600  0.65900  1.0000
