data_image0
_chemical_formula_structural       B2Mg6N6
_chemical_formula_sum              "B2 Mg6 N6"
_cell_length_a       3.52566
_cell_length_b       3.52578
_cell_length_c       16.0326
_cell_angle_alpha    90
_cell_angle_beta     90
_cell_angle_gamma    119.999

_space_group_name_H-M_alt    "P 1"
_space_group_IT_number       1

loop_
  _space_group_symop_operation_xyz
  'x, y, z'

loop_
  _atom_site_type_symbol
  _atom_site_label
  _atom_site_symmetry_multiplicity
  _atom_site_fract_x
  _atom_site_fract_y
  _atom_site_fract_z
  _atom_site_occupancy
  B   B1        1.0  0.00000  0.00000  0.00000  1.0000
  B   B2        1.0  0.00000  0.00000  0.50000  1.0000
  Mg  Mg1       1.0  0.33300  0.66700  0.12300  1.0000
  Mg  Mg2       1.0  0.00000  0.00000  0.25000  1.0000
  Mg  Mg3       1.0  0.33300  0.66700  0.37700  1.0000
  Mg  Mg4       1.0  0.66700  0.33300  0.62300  1.0000
  Mg  Mg5       1.0  0.00001  0.00003  0.75000  1.0000
  Mg  Mg6       1.0  0.66700  0.33300  0.87700  1.0000
  N   N1        1.0  0.00000  0.00000  0.08390  1.0000
  N   N2        1.0  0.33300  0.66700  0.25000  1.0000
  N   N3        1.0  0.00000  0.00000  0.41600  1.0000
  N   N4        1.0  0.00001  0.00001  0.58400  1.0000
  N   N5        1.0  0.66700  0.33300  0.75000  1.0000
  N   N6        1.0  0.00001  0.00001  0.91600  1.0000
