data_image0
_chemical_formula_structural       B6BaF2O24Si3Y6
_chemical_formula_sum              "B6 Ba1 F2 O24 Si3 Y6"
_cell_length_a       10.63
_cell_length_b       10.63
_cell_length_c       4.66998
_cell_angle_alpha    90
_cell_angle_beta     89.9998
_cell_angle_gamma    120

_space_group_name_H-M_alt    "P 1"
_space_group_IT_number       1

loop_
  _space_group_symop_operation_xyz
  'x, y, z'

loop_
  _atom_site_type_symbol
  _atom_site_label
  _atom_site_symmetry_multiplicity
  _atom_site_fract_x
  _atom_site_fract_y
  _atom_site_fract_z
  _atom_site_occupancy
  B   B1        1.0  0.25100  0.00040  0.48300  1.0000
  B   B2        1.0  0.00000  0.25000  0.48300  1.0000
  B   B3        1.0  0.75000  0.74900  0.48300  1.0000
  B   B4        1.0  0.25100  0.25100  0.48300  1.0000
  B   B5        1.0  0.74900  0.00000  0.48300  1.0000
  B   B6        1.0  1.00000  0.74900  0.48300  1.0000
  Ba  Ba1       1.0  0.00000  0.00000  0.01560  1.0000
  F   F1        1.0  0.33300  0.66700  0.73800  1.0000
  F   F2        1.0  0.66700  0.33300  0.78600  1.0000
  O   O1        1.0  0.26100  0.99800  0.17900  1.0000
  O   O2        1.0  0.73700  0.73900  0.17900  1.0000
  O   O3        1.0  0.00215  0.26300  0.17900  1.0000
  O   O4        1.0  0.00256  0.73900  0.17900  1.0000
  O   O5        1.0  0.26100  0.26400  0.17900  1.0000
  O   O6        1.0  0.73600  0.99700  0.17900  1.0000
  O   O7        1.0  0.42500  0.85000  0.18500  1.0000
  O   O8        1.0  0.42500  0.57500  0.18500  1.0000
  O   O9        1.0  0.15000  0.57500  0.18500  1.0000
  O   O10       1.0  0.57000  0.43000  0.23100  1.0000
  O   O11       1.0  0.57000  0.14000  0.23100  1.0000
  O   O12       1.0  0.86000  0.43000  0.23100  1.0000
  O   O13       1.0  0.85600  0.71200  0.59700  1.0000
  O   O14       1.0  0.85600  0.14400  0.59700  1.0000
  O   O15       1.0  0.28800  0.14400  0.59700  1.0000
  O   O16       1.0  0.11000  0.89000  0.60600  1.0000
  O   O17       1.0  0.11000  0.22000  0.60600  1.0000
  O   O18       1.0  0.78000  0.89000  0.60600  1.0000
  O   O19       1.0  0.60900  0.63300  0.62800  1.0000
  O   O20       1.0  0.36700  0.97600  0.62800  1.0000
  O   O21       1.0  0.02450  0.39100  0.62800  1.0000
  O   O22       1.0  0.36700  0.39200  0.62800  1.0000
  O   O23       1.0  0.60800  0.97500  0.62800  1.0000
  O   O24       1.0  0.02470  0.63300  0.62800  1.0000
  Si  Si1       1.0  0.49300  0.98600  0.40200  1.0000
  Si  Si2       1.0  0.49300  0.50700  0.40200  1.0000
  Si  Si3       1.0  0.01370  0.50700  0.40200  1.0000
  Y   Y1        1.0  0.57000  0.78500  0.95200  1.0000
  Y   Y2        1.0  0.21500  0.78500  0.95200  1.0000
  Y   Y3        1.0  0.21500  0.43000  0.95200  1.0000
  Y   Y4        1.0  0.43200  0.21600  0.99600  1.0000
  Y   Y5        1.0  0.78400  0.56800  0.99600  1.0000
  Y   Y6        1.0  0.78400  0.21600  0.99600  1.0000
