data_image0
_chemical_formula_structural       Al8Ca2H4O24Si4
_chemical_formula_sum              "Al8 Ca2 H4 O24 Si4"
_cell_length_a       5.09054
_cell_length_b       5.09054
_cell_length_c       19.0269
_cell_angle_alpha    92.7806
_cell_angle_beta     92.7806
_cell_angle_gamma    119.979

_space_group_name_H-M_alt    "P 1"
_space_group_IT_number       1

loop_
  _space_group_symop_operation_xyz
  'x, y, z'

loop_
  _atom_site_type_symbol
  _atom_site_label
  _atom_site_symmetry_multiplicity
  _atom_site_fract_x
  _atom_site_fract_y
  _atom_site_fract_z
  _atom_site_occupancy
  Al  Al1       1.0  0.53700  0.39100  0.14200  1.0000
  Al  Al2       1.0  0.29000  0.80100  0.35600  1.0000
  Al  Al3       1.0  0.66800  0.83200  0.49900  1.0000
  Al  Al4       1.0  0.33500  0.16500  0.49900  1.0000
  Al  Al5       1.0  0.39100  0.53700  0.64200  1.0000
  Al  Al6       1.0  0.80100  0.29000  0.85600  1.0000
  Al  Al7       1.0  0.83200  0.66800  0.99900  1.0000
  Al  Al8       1.0  0.16500  0.33500  0.99900  1.0000
  Ca  Ca1       1.0  0.90700  0.09250  0.24900  1.0000
  Ca  Ca2       1.0  0.09250  0.90700  0.74900  1.0000
  H   H1        1.0  0.70200  0.02390  0.06030  1.0000
  H   H2        1.0  0.98200  0.29900  0.43900  1.0000
  H   H3        1.0  0.02390  0.70200  0.56000  1.0000
  H   H4        1.0  0.29900  0.98200  0.93900  1.0000
  O   O1        1.0  0.51600  0.40500  0.05170  1.0000
  O   O2        1.0  0.88800  0.02140  0.05250  1.0000
  O   O3        1.0  0.14400  0.65200  0.05910  1.0000
  O   O4        1.0  0.49700  0.04740  0.17000  1.0000
  O   O5        1.0  0.26200  0.45700  0.17900  1.0000
  O   O6        1.0  0.89900  0.68500  0.18000  1.0000
  O   O7        1.0  0.33200  0.12800  0.31800  1.0000
  O   O8        1.0  0.56000  0.72200  0.31900  1.0000
  O   O9        1.0  0.92700  0.48800  0.32800  1.0000
  O   O10       1.0  0.60900  0.48200  0.43900  1.0000
  O   O11       1.0  0.98400  0.11100  0.44600  1.0000
  O   O12       1.0  0.36600  0.86600  0.44600  1.0000
  O   O13       1.0  0.40500  0.51600  0.55200  1.0000
  O   O14       1.0  0.02140  0.88800  0.55200  1.0000
  O   O15       1.0  0.65200  0.14400  0.55900  1.0000
  O   O16       1.0  0.04740  0.49700  0.67000  1.0000
  O   O17       1.0  0.45700  0.26200  0.67900  1.0000
  O   O18       1.0  0.68500  0.89900  0.68000  1.0000
  O   O19       1.0  0.12800  0.33200  0.81800  1.0000
  O   O20       1.0  0.72200  0.56000  0.81900  1.0000
  O   O21       1.0  0.48800  0.92700  0.82800  1.0000
  O   O22       1.0  0.48200  0.60900  0.93900  1.0000
  O   O23       1.0  0.11100  0.98400  0.94600  1.0000
  O   O24       1.0  0.86600  0.36600  0.94600  1.0000
  Si  Si1       1.0  0.19900  0.71200  0.14500  1.0000
  Si  Si2       1.0  0.60900  0.45800  0.35300  1.0000
  Si  Si3       1.0  0.71200  0.19900  0.64500  1.0000
  Si  Si4       1.0  0.45800  0.60900  0.85300  1.0000
