data_image0
_chemical_formula_structural       Au3CsSe2
_chemical_formula_sum              "Au3 Cs1 Se2"
_cell_length_a       6.3396
_cell_length_b       6.3398
_cell_length_c       5.2638
_cell_angle_alpha    90
_cell_angle_beta     89.9968
_cell_angle_gamma    120.001

_space_group_name_H-M_alt    "P 1"
_space_group_IT_number       1

loop_
  _space_group_symop_operation_xyz
  'x, y, z'

loop_
  _atom_site_type_symbol
  _atom_site_label
  _atom_site_symmetry_multiplicity
  _atom_site_fract_x
  _atom_site_fract_y
  _atom_site_fract_z
  _atom_site_occupancy
  Au  Au1       1.0  0.00000  0.50000  0.00000  1.0000
  Au  Au2       1.0  0.50000  0.50000  0.00000  1.0000
  Au  Au3       1.0  0.50000  0.00000  0.00000  1.0000
  Cs  Cs1       1.0  0.00000  0.00000  0.50000  1.0000
  Se  Se1       1.0  0.66700  0.33300  0.31500  1.0000
  Se  Se2       1.0  0.33300  0.66700  0.68500  1.0000
