data_image0
_chemical_formula_structural       B6Na6O24Si6
_chemical_formula_sum              "B6 Na6 O24 Si6"
_cell_length_a       8.01001
_cell_length_b       8.01001
_cell_length_c       7.64396
_cell_angle_alpha    90
_cell_angle_beta     90
_cell_angle_gamma    120

_space_group_name_H-M_alt    "P 1"
_space_group_IT_number       1

loop_
  _space_group_symop_operation_xyz
  'x, y, z'

loop_
  _atom_site_type_symbol
  _atom_site_label
  _atom_site_symmetry_multiplicity
  _atom_site_fract_x
  _atom_site_fract_y
  _atom_site_fract_z
  _atom_site_occupancy
  B   B1        1.0  0.31900  0.33800  0.39300  1.0000
  B   B2        1.0  0.01860  0.68100  0.39300  1.0000
  B   B3        1.0  0.66200  0.98100  0.39300  1.0000
  B   B4        1.0  0.33800  0.01860  0.89300  1.0000
  B   B5        1.0  0.98100  0.31900  0.89300  1.0000
  B   B6        1.0  0.68100  0.66200  0.89300  1.0000
  Na  Na1       1.0  0.66700  0.33300  0.19500  1.0000
  Na  Na2       1.0  0.00000  0.00000  0.23300  1.0000
  Na  Na3       1.0  0.33300  0.66700  0.26500  1.0000
  Na  Na4       1.0  0.33300  0.66700  0.69500  1.0000
  Na  Na5       1.0  0.00000  0.00000  0.73300  1.0000
  Na  Na6       1.0  0.66700  0.33300  0.76500  1.0000
  O   O1        1.0  0.63200  0.90100  0.21400  1.0000
  O   O2        1.0  0.09860  0.73000  0.21400  1.0000
  O   O3        1.0  0.27000  0.36800  0.21400  1.0000
  O   O4        1.0  0.40200  0.21100  0.38700  1.0000
  O   O5        1.0  0.78900  0.19100  0.38700  1.0000
  O   O6        1.0  0.80900  0.59800  0.38700  1.0000
  O   O7        1.0  0.45500  0.53000  0.46900  1.0000
  O   O8        1.0  0.47000  0.92500  0.46900  1.0000
  O   O9        1.0  0.07460  0.54500  0.46900  1.0000
  O   O10       1.0  0.11000  0.86100  0.49400  1.0000
  O   O11       1.0  0.13900  0.24900  0.49400  1.0000
  O   O12       1.0  0.75100  0.89000  0.49400  1.0000
  O   O13       1.0  0.36800  0.09860  0.71400  1.0000
  O   O14       1.0  0.90100  0.27000  0.71400  1.0000
  O   O15       1.0  0.73000  0.63200  0.71400  1.0000
  O   O16       1.0  0.59800  0.78900  0.88700  1.0000
  O   O17       1.0  0.19100  0.40200  0.88700  1.0000
  O   O18       1.0  0.21100  0.80900  0.88700  1.0000
  O   O19       1.0  0.54500  0.47000  0.96900  1.0000
  O   O20       1.0  0.53000  0.07460  0.96900  1.0000
  O   O21       1.0  0.92500  0.45500  0.96900  1.0000
  O   O22       1.0  0.89000  0.13900  0.99400  1.0000
  O   O23       1.0  0.24900  0.11000  0.99400  1.0000
  O   O24       1.0  0.86100  0.75100  0.99400  1.0000
  Si  Si1       1.0  0.31600  0.33900  0.01230  1.0000
  Si  Si2       1.0  0.02290  0.68400  0.01230  1.0000
  Si  Si3       1.0  0.66100  0.97700  0.01230  1.0000
  Si  Si4       1.0  0.68400  0.66100  0.51200  1.0000
  Si  Si5       1.0  0.97700  0.31600  0.51200  1.0000
  Si  Si6       1.0  0.33900  0.02290  0.51200  1.0000
