data_image0
_chemical_formula_structural       F2Nd2Se2
_chemical_formula_sum              "F2 Nd2 Se2"
_cell_length_a       4.01077
_cell_length_b       4.01077
_cell_length_c       7.12503
_cell_angle_alpha    90
_cell_angle_beta     90
_cell_angle_gamma    90

_space_group_name_H-M_alt    "P 1"
_space_group_IT_number       1

loop_
  _space_group_symop_operation_xyz
  'x, y, z'

loop_
  _atom_site_type_symbol
  _atom_site_label
  _atom_site_symmetry_multiplicity
  _atom_site_fract_x
  _atom_site_fract_y
  _atom_site_fract_z
  _atom_site_occupancy
  F   F1        1.0  0.75000  0.25000  0.00000  1.0000
  F   F2        1.0  0.25000  0.75000  0.00000  1.0000
  Nd  Nd1       1.0  0.25000  0.25000  0.21800  1.0000
  Nd  Nd2       1.0  0.75000  0.75000  0.78200  1.0000
  Se  Se1       1.0  0.75000  0.75000  0.35600  1.0000
  Se  Se2       1.0  0.25000  0.25000  0.64400  1.0000
