data_image0
_chemical_formula_structural       Cl2O24P6Pb10
_chemical_formula_sum              "Cl2 O24 P6 Pb10"
_cell_length_a       9.96246
_cell_length_b       9.96323
_cell_length_c       7.29146
_cell_angle_alpha    90
_cell_angle_beta     90
_cell_angle_gamma    119.997

_space_group_name_H-M_alt    "P 1"
_space_group_IT_number       1

loop_
  _space_group_symop_operation_xyz
  'x, y, z'

loop_
  _atom_site_type_symbol
  _atom_site_label
  _atom_site_symmetry_multiplicity
  _atom_site_fract_x
  _atom_site_fract_y
  _atom_site_fract_z
  _atom_site_occupancy
  Cl  Cl1       1.0  0.00000  0.00000  0.00000  1.0000
  Cl  Cl2       1.0  0.00000  0.00000  0.50000  1.0000
  O   O1        1.0  0.73000  0.08920  0.07790  1.0000
  O   O2        1.0  0.91100  0.64100  0.07800  1.0000
  O   O3        1.0  0.35900  0.27000  0.07800  1.0000
  O   O4        1.0  0.52500  0.11400  0.25000  1.0000
  O   O5        1.0  0.88600  0.41100  0.25000  1.0000
  O   O6        1.0  0.58900  0.47500  0.25000  1.0000
  O   O7        1.0  0.33600  0.48300  0.25000  1.0000
  O   O8        1.0  0.14700  0.66400  0.25000  1.0000
  O   O9        1.0  0.51700  0.85300  0.25000  1.0000
  O   O10       1.0  0.35900  0.27000  0.42200  1.0000
  O   O11       1.0  0.91100  0.64100  0.42200  1.0000
  O   O12       1.0  0.73000  0.08920  0.42200  1.0000
  O   O13       1.0  0.27000  0.91100  0.57800  1.0000
  O   O14       1.0  0.08920  0.35900  0.57800  1.0000
  O   O15       1.0  0.64100  0.73000  0.57800  1.0000
  O   O16       1.0  0.48300  0.14700  0.75000  1.0000
  O   O17       1.0  0.85300  0.33600  0.75000  1.0000
  O   O18       1.0  0.66400  0.51700  0.75000  1.0000
  O   O19       1.0  0.41100  0.52500  0.75000  1.0000
  O   O20       1.0  0.11400  0.58900  0.75000  1.0000
  O   O21       1.0  0.47500  0.88600  0.75000  1.0000
  O   O22       1.0  0.64100  0.73000  0.92200  1.0000
  O   O23       1.0  0.08920  0.35900  0.92200  1.0000
  O   O24       1.0  0.27000  0.91100  0.92200  1.0000
  P   P1        1.0  0.62400  0.03130  0.25000  1.0000
  P   P2        1.0  0.40700  0.37600  0.25000  1.0000
  P   P3        1.0  0.96900  0.59300  0.25000  1.0000
  P   P4        1.0  0.03130  0.40700  0.75000  1.0000
  P   P5        1.0  0.59300  0.62400  0.75000  1.0000
  P   P6        1.0  0.37600  0.96900  0.75000  1.0000
  Pb  Pb1       1.0  0.33300  0.66700  0.00304  1.0000
  Pb  Pb2       1.0  0.25000  0.00224  0.25000  1.0000
  Pb  Pb3       1.0  0.99800  0.24800  0.25000  1.0000
  Pb  Pb4       1.0  0.75200  0.75000  0.25000  1.0000
  Pb  Pb5       1.0  0.33300  0.66700  0.49700  1.0000
  Pb  Pb6       1.0  0.66700  0.33300  0.50300  1.0000
  Pb  Pb7       1.0  0.24800  0.25000  0.75000  1.0000
  Pb  Pb8       1.0  0.00222  0.75200  0.75000  1.0000
  Pb  Pb9       1.0  0.75000  0.99800  0.75000  1.0000
  Pb  Pb10      1.0  0.66700  0.33300  0.99700  1.0000
