data_image0
_chemical_formula_structural       Ni3Sm3Zn3
_chemical_formula_sum              "Ni3 Sm3 Zn3"
_cell_length_a       7.10334
_cell_length_b       7.10334
_cell_length_c       3.826
_cell_angle_alpha    90
_cell_angle_beta     90
_cell_angle_gamma    120

_space_group_name_H-M_alt    "P 1"
_space_group_IT_number       1

loop_
  _space_group_symop_operation_xyz
  'x, y, z'

loop_
  _atom_site_type_symbol
  _atom_site_label
  _atom_site_symmetry_multiplicity
  _atom_site_fract_x
  _atom_site_fract_y
  _atom_site_fract_z
  _atom_site_occupancy
  Ni  Ni1       1.0  0.66700  0.33300  0.00000  1.0000
  Ni  Ni2       1.0  0.33300  0.66700  0.00000  1.0000
  Ni  Ni3       1.0  0.00000  0.00000  0.50000  1.0000
  Sm  Sm1       1.0  0.58500  0.00000  0.50000  1.0000
  Sm  Sm2       1.0  0.41500  0.41500  0.50000  1.0000
  Sm  Sm3       1.0  0.00000  0.58500  0.50000  1.0000
  Zn  Zn1       1.0  0.23500  0.00000  0.00000  1.0000
  Zn  Zn2       1.0  0.00000  0.23500  0.00000  1.0000
  Zn  Zn3       1.0  0.76500  0.76500  0.00000  1.0000
