data_image0
_chemical_formula_structural       Al2FeH18O18P2
_chemical_formula_sum              "Al2 Fe1 H18 O18 P2"
_cell_length_a       5.23211
_cell_length_b       9.21629
_cell_length_c       7.29055
_cell_angle_alpha    103.377
_cell_angle_beta     112.868
_cell_angle_gamma    84.3406

_space_group_name_H-M_alt    "P 1"
_space_group_IT_number       1

loop_
  _space_group_symop_operation_xyz
  'x, y, z'

loop_
  _atom_site_type_symbol
  _atom_site_label
  _atom_site_symmetry_multiplicity
  _atom_site_fract_x
  _atom_site_fract_y
  _atom_site_fract_z
  _atom_site_occupancy
  Al  Al1       1.0  0.00000  0.50000  0.00000  1.0000
  Al  Al2       1.0  0.00000  0.50000  0.50000  1.0000
  Fe  Fe1       1.0  0.00000  0.00000  0.00000  1.0000
  H   H1        1.0  0.69500  0.10100  0.23200  1.0000
  H   H2        1.0  0.33200  0.71600  0.27100  1.0000
  H   H3        1.0  0.84600  0.68200  0.28800  1.0000
  H   H4        1.0  0.33900  0.45100  0.31900  1.0000
  H   H5        1.0  0.34500  0.93700  0.31900  1.0000
  H   H6        1.0  0.08540  0.02970  0.35500  1.0000
  H   H7        1.0  0.68400  0.73800  0.44100  1.0000
  H   H8        1.0  0.91600  0.18400  0.44200  1.0000
  H   H9        1.0  0.63900  0.16600  0.49500  1.0000
  H   H10       1.0  0.36100  0.83400  0.50500  1.0000
  H   H11       1.0  0.08440  0.81600  0.55800  1.0000
  H   H12       1.0  0.31600  0.26200  0.55900  1.0000
  H   H13       1.0  0.91500  0.97000  0.64500  1.0000
  H   H14       1.0  0.65500  0.06310  0.68100  1.0000
  H   H15       1.0  0.66100  0.54900  0.68100  1.0000
  H   H16       1.0  0.15400  0.31800  0.71200  1.0000
  H   H17       1.0  0.66800  0.28400  0.72900  1.0000
  H   H18       1.0  0.30500  0.89900  0.76800  1.0000
  O   O1        1.0  0.65900  0.14600  0.03650  1.0000
  O   O2        1.0  0.75200  0.67500  0.04540  1.0000
  O   O3        1.0  0.29200  0.61900  0.05570  1.0000
  O   O4        1.0  0.66200  0.39800  0.28600  1.0000
  O   O5        1.0  0.21900  0.02730  0.28700  1.0000
  O   O6        1.0  0.14400  0.48300  0.28900  1.0000
  O   O7        1.0  0.79400  0.09120  0.38000  1.0000
  O   O8        1.0  0.43900  0.79400  0.39200  1.0000
  O   O9        1.0  0.87900  0.68700  0.43600  1.0000
  O   O10       1.0  0.12100  0.31300  0.56400  1.0000
  O   O11       1.0  0.56100  0.20600  0.60800  1.0000
  O   O12       1.0  0.20600  0.90900  0.62000  1.0000
  O   O13       1.0  0.85600  0.51700  0.71100  1.0000
  O   O14       1.0  0.78100  0.97300  0.71300  1.0000
  O   O15       1.0  0.33800  0.60200  0.71400  1.0000
  O   O16       1.0  0.70800  0.38100  0.94400  1.0000
  O   O17       1.0  0.24800  0.32500  0.95500  1.0000
  O   O18       1.0  0.34100  0.85400  0.96400  1.0000
  P   P1        1.0  0.57200  0.31400  0.06080  1.0000
  P   P2        1.0  0.42800  0.68600  0.93900  1.0000
