data_image0
_chemical_formula_structural       Co8Li8Ni8O32
_chemical_formula_sum              "Co8 Li8 Ni8 O32"
_cell_length_a       7.98979
_cell_length_b       7.96459
_cell_length_c       8.03341
_cell_angle_alpha    89.8081
_cell_angle_beta     90.4515
_cell_angle_gamma    90.1809

_space_group_name_H-M_alt    "P 1"
_space_group_IT_number       1

loop_
  _space_group_symop_operation_xyz
  'x, y, z'

loop_
  _atom_site_type_symbol
  _atom_site_label
  _atom_site_symmetry_multiplicity
  _atom_site_fract_x
  _atom_site_fract_y
  _atom_site_fract_z
  _atom_site_occupancy
  Co  Co1       1.0  0.49600  0.50000  0.00510  1.0000
  Co  Co2       1.0  0.25000  0.99800  0.24800  1.0000
  Co  Co3       1.0  0.74800  0.49800  0.25400  1.0000
  Co  Co4       1.0  0.50400  0.99800  0.49700  1.0000
  Co  Co5       1.0  0.99800  0.50300  0.50100  1.0000
  Co  Co6       1.0  0.75700  0.00241  0.74200  1.0000
  Co  Co7       1.0  0.24800  0.50300  0.75400  1.0000
  Co  Co8       1.0  0.00275  0.99900  0.99500  1.0000
  Li  Li1       1.0  0.62700  0.12300  0.12500  1.0000
  Li  Li2       1.0  0.12300  0.62700  0.12600  1.0000
  Li  Li3       1.0  0.87700  0.87100  0.37000  1.0000
  Li  Li4       1.0  0.37000  0.37500  0.37800  1.0000
  Li  Li5       1.0  0.12700  0.12900  0.62300  1.0000
  Li  Li6       1.0  0.62500  0.62400  0.63000  1.0000
  Li  Li7       1.0  0.37500  0.87500  0.87400  1.0000
  Li  Li8       1.0  0.87500  0.37700  0.87500  1.0000
  Ni  Ni1       1.0  0.24800  0.25200  0.00193  1.0000
  Ni  Ni2       1.0  0.99900  0.24900  0.24900  1.0000
  Ni  Ni3       1.0  0.49600  0.74600  0.25400  1.0000
  Ni  Ni4       1.0  0.75300  0.24900  0.49700  1.0000
  Ni  Ni5       1.0  0.25000  0.75000  0.50100  1.0000
  Ni  Ni6       1.0  0.00419  0.75300  0.74600  1.0000
  Ni  Ni7       1.0  0.49900  0.25000  0.75300  1.0000
  Ni  Ni8       1.0  0.74900  0.75000  0.99900  1.0000
  O   O1        1.0  0.47800  0.26600  0.00270  1.0000
  O   O2        1.0  0.23900  0.01690  0.01180  1.0000
  O   O3        1.0  0.01480  0.23500  0.01210  1.0000
  O   O4        1.0  0.72800  0.49800  0.02000  1.0000
  O   O5        1.0  0.49200  0.73200  0.02510  1.0000
  O   O6        1.0  0.01580  0.99700  0.22900  1.0000
  O   O7        1.0  0.23800  0.23400  0.23600  1.0000
  O   O8        1.0  0.51000  0.51200  0.24400  1.0000
  O   O9        1.0  0.72700  0.73300  0.24800  1.0000
  O   O10       1.0  0.48900  0.98100  0.26400  1.0000
  O   O11       1.0  0.75700  0.26500  0.26600  1.0000
  O   O12       1.0  0.97500  0.50900  0.26700  1.0000
  O   O13       1.0  0.26400  0.75900  0.26900  1.0000
  O   O14       1.0  0.98500  0.26700  0.48600  1.0000
  O   O15       1.0  0.26600  0.98500  0.48600  1.0000
  O   O16       1.0  0.48400  0.76100  0.48700  1.0000
  O   O17       1.0  0.76000  0.48200  0.49000  1.0000
  O   O18       1.0  0.52000  0.22800  0.49900  1.0000
  O   O19       1.0  0.74200  0.01450  0.50500  1.0000
  O   O20       1.0  0.01700  0.74100  0.51500  1.0000
  O   O21       1.0  0.23600  0.51700  0.51600  1.0000
  O   O22       1.0  0.75400  0.23200  0.72600  1.0000
  O   O23       1.0  0.52600  0.99200  0.72700  1.0000
  O   O24       1.0  0.23600  0.74200  0.73200  1.0000
  O   O25       1.0  0.01070  0.52000  0.73800  1.0000
  O   O26       1.0  0.77300  0.76800  0.75100  1.0000
  O   O27       1.0  0.99100  0.98900  0.75700  1.0000
  O   O28       1.0  0.25000  0.26700  0.77200  1.0000
  O   O29       1.0  0.48300  0.50100  0.77400  1.0000
  O   O30       1.0  0.00532  0.77000  0.97600  1.0000
  O   O31       1.0  0.77300  0.00280  0.97700  1.0000
  O   O32       1.0  0.25900  0.48500  0.99100  1.0000
