data_image0
_chemical_formula_structural       Rh4Sm4Zn4
_chemical_formula_sum              "Rh4 Sm4 Zn4"
_cell_length_a       7.0455
_cell_length_b       4.08716
_cell_length_c       8.22623
_cell_angle_alpha    90
_cell_angle_beta     90
_cell_angle_gamma    90

_space_group_name_H-M_alt    "P 1"
_space_group_IT_number       1

loop_
  _space_group_symop_operation_xyz
  'x, y, z'

loop_
  _atom_site_type_symbol
  _atom_site_label
  _atom_site_symmetry_multiplicity
  _atom_site_fract_x
  _atom_site_fract_y
  _atom_site_fract_z
  _atom_site_occupancy
  Rh  Rh1       1.0  0.75700  0.25000  0.12300  1.0000
  Rh  Rh2       1.0  0.25700  0.25000  0.37700  1.0000
  Rh  Rh3       1.0  0.74300  0.75000  0.62300  1.0000
  Rh  Rh4       1.0  0.24300  0.75000  0.87700  1.0000
  Sm  Sm1       1.0  0.46200  0.75000  0.18500  1.0000
  Sm  Sm2       1.0  0.96200  0.75000  0.31500  1.0000
  Sm  Sm3       1.0  0.03800  0.25000  0.68500  1.0000
  Sm  Sm4       1.0  0.53800  0.25000  0.81500  1.0000
  Zn  Zn1       1.0  0.13500  0.25000  0.06230  1.0000
  Zn  Zn2       1.0  0.63500  0.25000  0.43800  1.0000
  Zn  Zn3       1.0  0.36500  0.75000  0.56200  1.0000
  Zn  Zn4       1.0  0.86500  0.75000  0.93800  1.0000
