data_image0
_chemical_formula_structural       Sm4Sn4Zn4
_chemical_formula_sum              "Sm4 Sn4 Zn4"
_cell_length_a       4.54608
_cell_length_b       4.54611
_cell_length_c       16.1866
_cell_angle_alpha    90
_cell_angle_beta     90
_cell_angle_gamma    120

_space_group_name_H-M_alt    "P 1"
_space_group_IT_number       1

loop_
  _space_group_symop_operation_xyz
  'x, y, z'

loop_
  _atom_site_type_symbol
  _atom_site_label
  _atom_site_symmetry_multiplicity
  _atom_site_fract_x
  _atom_site_fract_y
  _atom_site_fract_z
  _atom_site_occupancy
  Sm  Sm1       1.0  0.00000  0.00000  0.00000  1.0000
  Sm  Sm2       1.0  0.00000  0.00000  0.25000  1.0000
  Sm  Sm3       1.0  0.00000  0.00000  0.50000  1.0000
  Sm  Sm4       1.0  0.00001  0.00001  0.75000  1.0000
  Sn  Sn1       1.0  0.66700  0.33300  0.11500  1.0000
  Sn  Sn2       1.0  0.66700  0.33300  0.38500  1.0000
  Sn  Sn3       1.0  0.33300  0.66700  0.61500  1.0000
  Sn  Sn4       1.0  0.33300  0.66700  0.88500  1.0000
  Zn  Zn1       1.0  0.33300  0.66700  0.15700  1.0000
  Zn  Zn2       1.0  0.33300  0.66700  0.34300  1.0000
  Zn  Zn3       1.0  0.66700  0.33300  0.65700  1.0000
  Zn  Zn4       1.0  0.66700  0.33300  0.84300  1.0000
