data_image0
_chemical_formula_structural       Co8Li8Mn8O32
_chemical_formula_sum              "Co8 Li8 Mn8 O32"
_cell_length_a       8.058
_cell_length_b       8.22856
_cell_length_c       8.25967
_cell_angle_alpha    89.946
_cell_angle_beta     89.6593
_cell_angle_gamma    89.8283

_space_group_name_H-M_alt    "P 1"
_space_group_IT_number       1

loop_
  _space_group_symop_operation_xyz
  'x, y, z'

loop_
  _atom_site_type_symbol
  _atom_site_label
  _atom_site_symmetry_multiplicity
  _atom_site_fract_x
  _atom_site_fract_y
  _atom_site_fract_z
  _atom_site_occupancy
  Co  Co1       1.0  0.99900  0.00224  0.00058  1.0000
  Co  Co2       1.0  0.25100  0.00000  0.24900  1.0000
  Co  Co3       1.0  0.74700  0.49700  0.25200  1.0000
  Co  Co4       1.0  0.50100  0.99800  0.49900  1.0000
  Co  Co5       1.0  0.00000  0.49900  0.50000  1.0000
  Co  Co6       1.0  0.25000  0.50100  0.74800  1.0000
  Co  Co7       1.0  0.74900  0.00027  0.75100  1.0000
  Co  Co8       1.0  0.50000  0.50100  0.00000  1.0000
  Li  Li1       1.0  0.62200  0.12100  0.12600  1.0000
  Li  Li2       1.0  0.12300  0.61800  0.12800  1.0000
  Li  Li3       1.0  0.87700  0.88100  0.37200  1.0000
  Li  Li4       1.0  0.37400  0.38000  0.37700  1.0000
  Li  Li5       1.0  0.62700  0.62200  0.62300  1.0000
  Li  Li6       1.0  0.12600  0.11900  0.62500  1.0000
  Li  Li7       1.0  0.87500  0.37900  0.87300  1.0000
  Li  Li8       1.0  0.37600  0.87800  0.87600  1.0000
  Mn  Mn1       1.0  0.74900  0.75000  0.00141  1.0000
  Mn  Mn2       1.0  0.25200  0.25500  0.00173  1.0000
  Mn  Mn3       1.0  0.49800  0.74800  0.25100  1.0000
  Mn  Mn4       1.0  0.00302  0.24900  0.25200  1.0000
  Mn  Mn5       1.0  0.24700  0.74800  0.49800  1.0000
  Mn  Mn6       1.0  0.75200  0.24700  0.49900  1.0000
  Mn  Mn7       1.0  0.50100  0.25300  0.74800  1.0000
  Mn  Mn8       1.0  0.99900  0.75100  0.74900  1.0000
  O   O1        1.0  0.76300  0.98200  0.00164  1.0000
  O   O2        1.0  0.73400  0.51700  0.00335  1.0000
  O   O3        1.0  0.23900  0.02060  0.00616  1.0000
  O   O4        1.0  0.50900  0.73900  0.01730  1.0000
  O   O5        1.0  0.01380  0.25000  0.01780  1.0000
  O   O6        1.0  0.24100  0.24600  0.23400  1.0000
  O   O7        1.0  0.73800  0.74400  0.23400  1.0000
  O   O8        1.0  0.01810  0.01830  0.24300  1.0000
  O   O9        1.0  0.51400  0.51700  0.25100  1.0000
  O   O10       1.0  0.48400  0.98000  0.25400  1.0000
  O   O11       1.0  0.98700  0.48300  0.26300  1.0000
  O   O12       1.0  0.26000  0.75400  0.26600  1.0000
  O   O13       1.0  0.76400  0.25200  0.26600  1.0000
  O   O14       1.0  0.48700  0.75200  0.48300  1.0000
  O   O15       1.0  0.99000  0.25000  0.48300  1.0000
  O   O16       1.0  0.26200  0.98200  0.49200  1.0000
  O   O17       1.0  0.76600  0.47900  0.49800  1.0000
  O   O18       1.0  0.73600  0.01540  0.50000  1.0000
  O   O19       1.0  0.23200  0.51800  0.50100  1.0000
  O   O20       1.0  0.51300  0.24500  0.51600  1.0000
  O   O21       1.0  0.00980  0.74800  0.51700  1.0000
  O   O22       1.0  0.23800  0.73900  0.73300  1.0000
  O   O23       1.0  0.74000  0.23700  0.73300  1.0000
  O   O24       1.0  0.01460  0.51600  0.74000  1.0000
  O   O25       1.0  0.51500  0.01840  0.74600  1.0000
  O   O26       1.0  0.48300  0.48400  0.74800  1.0000
  O   O27       1.0  0.98400  0.98300  0.75600  1.0000
  O   O28       1.0  0.75900  0.76300  0.76700  1.0000
  O   O29       1.0  0.26100  0.26400  0.76700  1.0000
  O   O30       1.0  0.49100  0.26400  0.98200  1.0000
  O   O31       1.0  0.98700  0.75300  0.98300  1.0000
  O   O32       1.0  0.26700  0.48600  0.99900  1.0000
