data_image0
_chemical_formula_structural       Cr4Na8O24P6
_chemical_formula_sum              "Cr4 Na8 O24 P6"
_cell_length_a       8.86694
_cell_length_b       8.86694
_cell_length_c       8.73804
_cell_angle_alpha    120.489
_cell_angle_beta     120.489
_cell_angle_gamma    60

_space_group_name_H-M_alt    "P 1"
_space_group_IT_number       1

loop_
  _space_group_symop_operation_xyz
  'x, y, z'

loop_
  _atom_site_type_symbol
  _atom_site_label
  _atom_site_symmetry_multiplicity
  _atom_site_fract_x
  _atom_site_fract_y
  _atom_site_fract_z
  _atom_site_occupancy
  Cr  Cr1       1.0  0.35300  0.35300  0.05960  1.0000
  Cr  Cr2       1.0  0.14700  0.14700  0.44000  1.0000
  Cr  Cr3       1.0  0.85300  0.85300  0.56000  1.0000
  Cr  Cr4       1.0  0.64700  0.64700  0.94000  1.0000
  Na  Na1       1.0  0.00000  0.00000  0.00000  1.0000
  Na  Na2       1.0  0.11000  0.39000  0.25000  1.0000
  Na  Na3       1.0  0.39000  0.75000  0.25000  1.0000
  Na  Na4       1.0  0.75000  0.11000  0.25000  1.0000
  Na  Na5       1.0  0.50000  0.50000  0.50000  1.0000
  Na  Na6       1.0  0.25000  0.89000  0.75000  1.0000
  Na  Na7       1.0  0.61000  0.25000  0.75000  1.0000
  Na  Na8       1.0  0.89000  0.61000  0.75000  1.0000
  O   O1        1.0  0.48000  0.88500  0.07050  1.0000
  O   O2        1.0  0.70600  0.48000  0.07050  1.0000
  O   O3        1.0  0.88500  0.70600  0.07050  1.0000
  O   O4        1.0  0.06760  0.91400  0.24900  1.0000
  O   O5        1.0  0.26700  0.06760  0.24900  1.0000
  O   O6        1.0  0.91400  0.26700  0.24900  1.0000
  O   O7        1.0  0.23300  0.58600  0.25100  1.0000
  O   O8        1.0  0.43200  0.23300  0.25100  1.0000
  O   O9        1.0  0.58600  0.43200  0.25100  1.0000
  O   O10       1.0  0.02020  0.79400  0.42900  1.0000
  O   O11       1.0  0.61500  0.02020  0.42900  1.0000
  O   O12       1.0  0.79400  0.61500  0.42900  1.0000
  O   O13       1.0  0.20600  0.38500  0.57100  1.0000
  O   O14       1.0  0.38500  0.98000  0.57100  1.0000
  O   O15       1.0  0.98000  0.20600  0.57100  1.0000
  O   O16       1.0  0.41400  0.56800  0.74900  1.0000
  O   O17       1.0  0.56800  0.76700  0.74900  1.0000
  O   O18       1.0  0.76700  0.41400  0.74900  1.0000
  O   O19       1.0  0.08610  0.73300  0.75100  1.0000
  O   O20       1.0  0.73300  0.93200  0.75100  1.0000
  O   O21       1.0  0.93200  0.08610  0.75100  1.0000
  O   O22       1.0  0.11500  0.29400  0.92900  1.0000
  O   O23       1.0  0.29400  0.52000  0.92900  1.0000
  O   O24       1.0  0.52000  0.11500  0.92900  1.0000
  P   P1        1.0  0.04910  0.75000  0.25000  1.0000
  P   P2        1.0  0.45100  0.04910  0.25000  1.0000
  P   P3        1.0  0.75000  0.45100  0.25000  1.0000
  P   P4        1.0  0.25000  0.54900  0.75000  1.0000
  P   P5        1.0  0.54900  0.95100  0.75000  1.0000
  P   P6        1.0  0.95100  0.25000  0.75000  1.0000
