data_image0
_chemical_formula_structural       Cl2Cr6O24Sr10
_chemical_formula_sum              "Cl2 Cr6 O24 Sr10"
_cell_length_a       10.0782
_cell_length_b       10.0783
_cell_length_c       7.31373
_cell_angle_alpha    90
_cell_angle_beta     90
_cell_angle_gamma    119.999

_space_group_name_H-M_alt    "P 1"
_space_group_IT_number       1

loop_
  _space_group_symop_operation_xyz
  'x, y, z'

loop_
  _atom_site_type_symbol
  _atom_site_label
  _atom_site_symmetry_multiplicity
  _atom_site_fract_x
  _atom_site_fract_y
  _atom_site_fract_z
  _atom_site_occupancy
  Cl  Cl1       1.0  0.00000  0.00000  0.00033  1.0000
  Cl  Cl2       1.0  0.00000  0.00000  0.50000  1.0000
  Cr  Cr1       1.0  0.62600  0.03090  0.25400  1.0000
  Cr  Cr2       1.0  0.40500  0.37400  0.25400  1.0000
  Cr  Cr3       1.0  0.96900  0.59500  0.25400  1.0000
  Cr  Cr4       1.0  0.37400  0.96900  0.75400  1.0000
  Cr  Cr5       1.0  0.59500  0.62600  0.75400  1.0000
  Cr  Cr6       1.0  0.03090  0.40500  0.75400  1.0000
  O   O1        1.0  0.90600  0.65000  0.06710  1.0000
  O   O2        1.0  0.35000  0.25600  0.06720  1.0000
  O   O3        1.0  0.74400  0.09430  0.06720  1.0000
  O   O4        1.0  0.87100  0.39800  0.25000  1.0000
  O   O5        1.0  0.52700  0.12900  0.25000  1.0000
  O   O6        1.0  0.60200  0.47300  0.25000  1.0000
  O   O7        1.0  0.16600  0.68800  0.25500  1.0000
  O   O8        1.0  0.31200  0.47800  0.25500  1.0000
  O   O9        1.0  0.52200  0.83400  0.25500  1.0000
  O   O10       1.0  0.74100  0.10000  0.44300  1.0000
  O   O11       1.0  0.35900  0.25900  0.44300  1.0000
  O   O12       1.0  0.90000  0.64100  0.44300  1.0000
  O   O13       1.0  0.09430  0.35000  0.56700  1.0000
  O   O14       1.0  0.65000  0.74400  0.56700  1.0000
  O   O15       1.0  0.25600  0.90600  0.56700  1.0000
  O   O16       1.0  0.12900  0.60200  0.75000  1.0000
  O   O17       1.0  0.47300  0.87100  0.75000  1.0000
  O   O18       1.0  0.39800  0.52700  0.75000  1.0000
  O   O19       1.0  0.47800  0.16600  0.75500  1.0000
  O   O20       1.0  0.83400  0.31200  0.75500  1.0000
  O   O21       1.0  0.68800  0.52200  0.75500  1.0000
  O   O22       1.0  0.25900  0.90000  0.94300  1.0000
  O   O23       1.0  0.64100  0.74100  0.94300  1.0000
  O   O24       1.0  0.10000  0.35900  0.94300  1.0000
  Sr  Sr1       1.0  0.66700  0.33300  0.00139  1.0000
  Sr  Sr2       1.0  0.33300  0.66700  0.00289  1.0000
  Sr  Sr3       1.0  0.24700  0.99600  0.25300  1.0000
  Sr  Sr4       1.0  0.00449  0.25200  0.25300  1.0000
  Sr  Sr5       1.0  0.74800  0.75300  0.25300  1.0000
  Sr  Sr6       1.0  0.33300  0.66700  0.50100  1.0000
  Sr  Sr7       1.0  0.66700  0.33300  0.50300  1.0000
  Sr  Sr8       1.0  0.75300  0.00450  0.75300  1.0000
  Sr  Sr9       1.0  0.99600  0.74800  0.75300  1.0000
  Sr  Sr10      1.0  0.25200  0.24700  0.75300  1.0000
