data_image0
_chemical_formula_structural       Cd2H16N4O20
_chemical_formula_sum              "Cd2 H16 N4 O20"
_cell_length_a       5.61268
_cell_length_b       5.87777
_cell_length_c       12.9083
_cell_angle_alpha    95.9581
_cell_angle_beta     77.4433
_cell_angle_gamma    118.519

_space_group_name_H-M_alt    "P 1"
_space_group_IT_number       1

loop_
  _space_group_symop_operation_xyz
  'x, y, z'

loop_
  _atom_site_type_symbol
  _atom_site_label
  _atom_site_symmetry_multiplicity
  _atom_site_fract_x
  _atom_site_fract_y
  _atom_site_fract_z
  _atom_site_occupancy
  Cd  Cd1       1.0  0.99600  0.99200  0.00000  1.0000
  Cd  Cd2       1.0  0.74600  0.49200  0.50000  1.0000
  H   H1        1.0  0.06780  0.55600  0.00609  1.0000
  H   H2        1.0  0.71400  0.24800  0.09810  1.0000
  H   H3        1.0  0.49700  0.59900  0.11800  1.0000
  H   H4        1.0  0.93000  0.33100  0.17300  1.0000
  H   H5        1.0  0.85400  0.83100  0.32700  1.0000
  H   H6        1.0  0.36400  0.09900  0.38200  1.0000
  H   H7        1.0  0.56200  0.74800  0.40200  1.0000
  H   H8        1.0  0.82400  0.05640  0.49400  1.0000
  H   H9        1.0  0.23200  0.05640  0.50600  1.0000
  H   H10       1.0  0.18500  0.74800  0.59800  1.0000
  H   H11       1.0  0.73500  0.09900  0.61800  1.0000
  H   H12       1.0  0.97700  0.83100  0.67300  1.0000
  H   H13       1.0  0.40100  0.33100  0.82700  1.0000
  H   H14       1.0  0.10200  0.59900  0.88200  1.0000
  H   H15       1.0  0.53300  0.24800  0.90200  1.0000
  H   H16       1.0  0.48900  0.55600  0.99400  1.0000
  N   N1        1.0  0.25400  0.00252  0.18100  1.0000
  N   N2        1.0  0.18500  0.50300  0.31900  1.0000
  N   N3        1.0  0.31800  0.50300  0.68100  1.0000
  N   N4        1.0  0.74900  0.00252  0.81900  1.0000
  O   O1        1.0  0.55200  0.69000  0.05010  1.0000
  O   O2        1.0  0.38200  0.13000  0.09450  1.0000
  O   O3        1.0  0.91600  0.31400  0.09700  1.0000
  O   O4        1.0  0.99200  0.87900  0.19600  1.0000
  O   O5        1.0  0.38600  0.00076  0.24700  1.0000
  O   O6        1.0  0.38300  0.50100  0.25300  1.0000
  O   O7        1.0  0.93700  0.37900  0.30400  1.0000
  O   O8        1.0  0.76300  0.81400  0.40300  1.0000
  O   O9        1.0  0.22600  0.63000  0.40500  1.0000
  O   O10       1.0  0.35200  0.19000  0.45000  1.0000
  O   O11       1.0  0.83800  0.19000  0.55000  1.0000
  O   O12       1.0  0.40400  0.63000  0.59500  1.0000
  O   O13       1.0  0.05110  0.81400  0.59700  1.0000
  O   O14       1.0  0.44100  0.37900  0.69600  1.0000
  O   O15       1.0  0.11800  0.50100  0.74700  1.0000
  O   O16       1.0  0.61500  0.00076  0.75300  1.0000
  O   O17       1.0  0.88700  0.87900  0.80400  1.0000
  O   O18       1.0  0.39800  0.31400  0.90300  1.0000
  O   O19       1.0  0.74800  0.13000  0.90500  1.0000
  O   O20       1.0  0.13800  0.69000  0.95000  1.0000
