data_image0
_chemical_formula_structural       Al2Si2Sm2
_chemical_formula_sum              "Al2 Si2 Sm2"
_cell_length_a       4.17775
_cell_length_b       4.17775
_cell_length_c       7.84861
_cell_angle_alpha    105.435
_cell_angle_beta     105.435
_cell_angle_gamma    90

_space_group_name_H-M_alt    "P 1"
_space_group_IT_number       1

loop_
  _space_group_symop_operation_xyz
  'x, y, z'

loop_
  _atom_site_type_symbol
  _atom_site_label
  _atom_site_symmetry_multiplicity
  _atom_site_fract_x
  _atom_site_fract_y
  _atom_site_fract_z
  _atom_site_occupancy
  Al  Al1       1.0  0.16300  0.16300  0.32700  1.0000
  Al  Al2       1.0  0.41300  0.91300  0.82700  1.0000
  Si  Si1       1.0  0.99800  0.99800  0.99500  1.0000
  Si  Si2       1.0  0.24800  0.74800  0.49500  1.0000
  Sm  Sm1       1.0  0.57900  0.57900  0.15900  1.0000
  Sm  Sm2       1.0  0.82900  0.32900  0.65900  1.0000
