data_image0
_chemical_formula_structural       As6Ca4Cl2O24Pb6
_chemical_formula_sum              "As6 Ca4 Cl2 O24 Pb6"
_cell_length_a       10.1675
_cell_length_b       10.1674
_cell_length_c       7.12508
_cell_angle_alpha    90
_cell_angle_beta     90
_cell_angle_gamma    120.001

_space_group_name_H-M_alt    "P 1"
_space_group_IT_number       1

loop_
  _space_group_symop_operation_xyz
  'x, y, z'

loop_
  _atom_site_type_symbol
  _atom_site_label
  _atom_site_symmetry_multiplicity
  _atom_site_fract_x
  _atom_site_fract_y
  _atom_site_fract_z
  _atom_site_occupancy
  As  As1       1.0  0.61000  0.03100  0.25000  1.0000
  As  As2       1.0  0.42100  0.39000  0.25000  1.0000
  As  As3       1.0  0.96900  0.57900  0.25000  1.0000
  As  As4       1.0  0.03100  0.42100  0.75000  1.0000
  As  As5       1.0  0.57900  0.61000  0.75000  1.0000
  As  As6       1.0  0.39000  0.96900  0.75000  1.0000
  Ca  Ca1       1.0  0.33300  0.66700  0.00561  1.0000
  Ca  Ca2       1.0  0.33300  0.66700  0.49400  1.0000
  Ca  Ca3       1.0  0.66700  0.33300  0.50600  1.0000
  Ca  Ca4       1.0  0.66700  0.33300  0.99400  1.0000
  Cl  Cl1       1.0  0.00000  0.00000  0.00000  1.0000
  Cl  Cl2       1.0  0.00000  0.00000  0.50000  1.0000
  O   O1        1.0  0.72800  0.09220  0.05770  1.0000
  O   O2        1.0  0.36400  0.27200  0.05770  1.0000
  O   O3        1.0  0.90800  0.63600  0.05770  1.0000
  O   O4        1.0  0.52800  0.14500  0.25000  1.0000
  O   O5        1.0  0.85500  0.38300  0.25000  1.0000
  O   O6        1.0  0.61700  0.47200  0.25000  1.0000
  O   O7        1.0  0.36200  0.52000  0.25000  1.0000
  O   O8        1.0  0.15700  0.63800  0.25000  1.0000
  O   O9        1.0  0.48000  0.84300  0.25000  1.0000
  O   O10       1.0  0.90800  0.63600  0.44200  1.0000
  O   O11       1.0  0.36400  0.27200  0.44200  1.0000
  O   O12       1.0  0.72800  0.09220  0.44200  1.0000
  O   O13       1.0  0.27200  0.90800  0.55800  1.0000
  O   O14       1.0  0.63600  0.72800  0.55800  1.0000
  O   O15       1.0  0.09210  0.36400  0.55800  1.0000
  O   O16       1.0  0.52000  0.15700  0.75000  1.0000
  O   O17       1.0  0.84300  0.36200  0.75000  1.0000
  O   O18       1.0  0.63800  0.48000  0.75000  1.0000
  O   O19       1.0  0.38300  0.52800  0.75000  1.0000
  O   O20       1.0  0.14500  0.61700  0.75000  1.0000
  O   O21       1.0  0.47200  0.85500  0.75000  1.0000
  O   O22       1.0  0.09210  0.36400  0.94200  1.0000
  O   O23       1.0  0.63600  0.72800  0.94200  1.0000
  O   O24       1.0  0.27200  0.90800  0.94200  1.0000
  Pb  Pb1       1.0  0.25600  0.01840  0.25000  1.0000
  Pb  Pb2       1.0  0.98200  0.23700  0.25000  1.0000
  Pb  Pb3       1.0  0.76300  0.74400  0.25000  1.0000
  Pb  Pb4       1.0  0.23700  0.25600  0.75000  1.0000
  Pb  Pb5       1.0  0.01830  0.76300  0.75000  1.0000
  Pb  Pb6       1.0  0.74400  0.98200  0.75000  1.0000
