data_image0
_chemical_formula_structural       Cu2Pb2Sm2
_chemical_formula_sum              "Cu2 Pb2 Sm2"
_cell_length_a       4.67635
_cell_length_b       4.67662
_cell_length_c       7.5193
_cell_angle_alpha    89.9705
_cell_angle_beta     90
_cell_angle_gamma    119.998

_space_group_name_H-M_alt    "P 1"
_space_group_IT_number       1

loop_
  _space_group_symop_operation_xyz
  'x, y, z'

loop_
  _atom_site_type_symbol
  _atom_site_label
  _atom_site_symmetry_multiplicity
  _atom_site_fract_x
  _atom_site_fract_y
  _atom_site_fract_z
  _atom_site_occupancy
  Cu  Cu1       1.0  0.66700  0.33300  0.30700  1.0000
  Cu  Cu2       1.0  0.33300  0.66700  0.80700  1.0000
  Pb  Pb1       1.0  0.33300  0.66700  0.22700  1.0000
  Pb  Pb2       1.0  0.66600  0.33300  0.72700  1.0000
  Sm  Sm1       1.0  0.00004  0.00009  0.49700  1.0000
  Sm  Sm2       1.0  0.00021  0.00042  0.99700  1.0000
