data_image0
_chemical_formula_structural       Ag2Pb2Sm2
_chemical_formula_sum              "Ag2 Pb2 Sm2"
_cell_length_a       4.86541
_cell_length_b       4.8651
_cell_length_c       7.64169
_cell_angle_alpha    90
_cell_angle_beta     90
_cell_angle_gamma    120.002

_space_group_name_H-M_alt    "P 1"
_space_group_IT_number       1

loop_
  _space_group_symop_operation_xyz
  'x, y, z'

loop_
  _atom_site_type_symbol
  _atom_site_label
  _atom_site_symmetry_multiplicity
  _atom_site_fract_x
  _atom_site_fract_y
  _atom_site_fract_z
  _atom_site_occupancy
  Ag  Ag1       1.0  0.66700  0.33300  0.31100  1.0000
  Ag  Ag2       1.0  0.33300  0.66700  0.81100  1.0000
  Pb  Pb1       1.0  0.33300  0.66700  0.22100  1.0000
  Pb  Pb2       1.0  0.66700  0.33300  0.72100  1.0000
  Sm  Sm1       1.0  0.00000  0.00000  0.00139  1.0000
  Sm  Sm2       1.0  0.00001  0.00001  0.50100  1.0000
