data_image0
_chemical_formula_structural       Bi4Rh4Sm4
_chemical_formula_sum              "Bi4 Rh4 Sm4"
_cell_length_a       7.33869
_cell_length_b       4.73489
_cell_length_c       8.05045
_cell_angle_alpha    90
_cell_angle_beta     90
_cell_angle_gamma    90

_space_group_name_H-M_alt    "P 1"
_space_group_IT_number       1

loop_
  _space_group_symop_operation_xyz
  'x, y, z'

loop_
  _atom_site_type_symbol
  _atom_site_label
  _atom_site_symmetry_multiplicity
  _atom_site_fract_x
  _atom_site_fract_y
  _atom_site_fract_z
  _atom_site_occupancy
  Bi  Bi1       1.0  0.19000  0.25000  0.09050  1.0000
  Bi  Bi2       1.0  0.69000  0.25000  0.41000  1.0000
  Bi  Bi3       1.0  0.31000  0.75000  0.59000  1.0000
  Bi  Bi4       1.0  0.81000  0.75000  0.91000  1.0000
  Rh  Rh1       1.0  0.79300  0.25000  0.07990  1.0000
  Rh  Rh2       1.0  0.29300  0.25000  0.42000  1.0000
  Rh  Rh3       1.0  0.70700  0.75000  0.58000  1.0000
  Rh  Rh4       1.0  0.20700  0.75000  0.92000  1.0000
  Sm  Sm1       1.0  0.49000  0.75000  0.20100  1.0000
  Sm  Sm2       1.0  0.99000  0.75000  0.29900  1.0000
  Sm  Sm3       1.0  0.01030  0.25000  0.70100  1.0000
  Sm  Sm4       1.0  0.51000  0.25000  0.79900  1.0000
