data_image0
_chemical_formula_structural       H4Na10O22P6
_chemical_formula_sum              "H4 Na10 O22 P6"
_cell_length_a       10.8576
_cell_length_b       8.10337
_cell_length_c       6.8638
_cell_angle_alpha    127.397
_cell_angle_beta     100.498
_cell_angle_gamma    88.9572

_space_group_name_H-M_alt    "P 1"
_space_group_IT_number       1

loop_
  _space_group_symop_operation_xyz
  'x, y, z'

loop_
  _atom_site_type_symbol
  _atom_site_label
  _atom_site_symmetry_multiplicity
  _atom_site_fract_x
  _atom_site_fract_y
  _atom_site_fract_z
  _atom_site_occupancy
  H   H1        1.0  0.50000  0.00000  0.00000  1.0000
  H   H2        1.0  0.00000  0.50000  0.00000  1.0000
  H   H3        1.0  0.07010  0.03070  0.21600  1.0000
  H   H4        1.0  0.93000  0.96900  0.78400  1.0000
  Na  Na1       1.0  0.25300  0.56300  0.00942  1.0000
  Na  Na2       1.0  0.25900  0.97800  0.04560  1.0000
  Na  Na3       1.0  0.02150  0.78900  0.46100  1.0000
  Na  Na4       1.0  0.49700  0.79200  0.46500  1.0000
  Na  Na5       1.0  0.75200  0.45400  0.48700  1.0000
  Na  Na6       1.0  0.24800  0.54600  0.51300  1.0000
  Na  Na7       1.0  0.50300  0.20800  0.53500  1.0000
  Na  Na8       1.0  0.97900  0.21100  0.53900  1.0000
  Na  Na9       1.0  0.74100  0.02220  0.95400  1.0000
  Na  Na10      1.0  0.74700  0.43700  0.99100  1.0000
  O   O1        1.0  0.06730  0.47000  0.13300  1.0000
  O   O2        1.0  0.45500  0.15100  0.15600  1.0000
  O   O3        1.0  0.59900  0.40600  0.17300  1.0000
  O   O4        1.0  0.02850  0.90200  0.18800  1.0000
  O   O5        1.0  0.58200  0.81800  0.19100  1.0000
  O   O6        1.0  0.88900  0.32800  0.20800  1.0000
  O   O7        1.0  0.11100  0.21900  0.23100  1.0000
  O   O8        1.0  0.37400  0.47800  0.24200  1.0000
  O   O9        1.0  0.81000  0.78300  0.33100  1.0000
  O   O10       1.0  0.76200  0.10200  0.34800  1.0000
  O   O11       1.0  0.32200  0.94300  0.36300  1.0000
  O   O12       1.0  0.67800  0.05680  0.63700  1.0000
  O   O13       1.0  0.23800  0.89800  0.65200  1.0000
  O   O14       1.0  0.19000  0.21700  0.66900  1.0000
  O   O15       1.0  0.62600  0.52200  0.75800  1.0000
  O   O16       1.0  0.88900  0.78100  0.76900  1.0000
  O   O17       1.0  0.11100  0.67200  0.79200  1.0000
  O   O18       1.0  0.41800  0.18200  0.80900  1.0000
  O   O19       1.0  0.97200  0.09820  0.81200  1.0000
  O   O20       1.0  0.40100  0.59400  0.82700  1.0000
  O   O21       1.0  0.54500  0.84900  0.84400  1.0000
  O   O22       1.0  0.93300  0.53000  0.86700  1.0000
  P   P1        1.0  0.00910  0.28200  0.10900  1.0000
  P   P2        1.0  0.46300  0.31800  0.11100  1.0000
  P   P3        1.0  0.72200  0.94800  0.38900  1.0000
  P   P4        1.0  0.27800  0.05230  0.61100  1.0000
  P   P5        1.0  0.53700  0.68200  0.88900  1.0000
  P   P6        1.0  0.99100  0.71800  0.89100  1.0000
