data_image0
_chemical_formula_structural       Ag2Bi2Ca2
_chemical_formula_sum              "Ag2 Bi2 Ca2"
_cell_length_a       4.8614
_cell_length_b       4.86131
_cell_length_c       7.7996
_cell_angle_alpha    90
_cell_angle_beta     90
_cell_angle_gamma    120.001

_space_group_name_H-M_alt    "P 1"
_space_group_IT_number       1

loop_
  _space_group_symop_operation_xyz
  'x, y, z'

loop_
  _atom_site_type_symbol
  _atom_site_label
  _atom_site_symmetry_multiplicity
  _atom_site_fract_x
  _atom_site_fract_y
  _atom_site_fract_z
  _atom_site_occupancy
  Ag  Ag1       1.0  0.33300  0.66700  0.33700  1.0000
  Ag  Ag2       1.0  0.66700  0.33300  0.83700  1.0000
  Bi  Bi1       1.0  0.66700  0.33300  0.24000  1.0000
  Bi  Bi2       1.0  0.33300  0.66700  0.74000  1.0000
  Ca  Ca1       1.0  0.00001  0.00001  0.02260  1.0000
  Ca  Ca2       1.0  0.00000  0.00000  0.52300  1.0000
