data_image0
_chemical_formula_structural       Cu2F8H24N4O4
_chemical_formula_sum              "Cu2 F8 H24 N4 O4"
_cell_length_a       6.73004
_cell_length_b       6.73004
_cell_length_c       6.9541
_cell_angle_alpha    102.797
_cell_angle_beta     77.203
_cell_angle_gamma    97.3621

_space_group_name_H-M_alt    "P 1"
_space_group_IT_number       1

loop_
  _space_group_symop_operation_xyz
  'x, y, z'

loop_
  _atom_site_type_symbol
  _atom_site_label
  _atom_site_symmetry_multiplicity
  _atom_site_fract_x
  _atom_site_fract_y
  _atom_site_fract_z
  _atom_site_occupancy
  Cu  Cu1       1.0  0.78200  0.78200  0.25000  1.0000
  Cu  Cu2       1.0  0.21800  0.21800  0.75000  1.0000
  F   F1        1.0  0.02090  0.56900  0.22300  1.0000
  F   F2        1.0  0.00331  0.00331  0.25000  1.0000
  F   F3        1.0  0.56300  0.56300  0.25000  1.0000
  F   F4        1.0  0.56900  0.02090  0.27700  1.0000
  F   F5        1.0  0.43100  0.97900  0.72300  1.0000
  F   F6        1.0  0.43700  0.43700  0.75000  1.0000
  F   F7        1.0  0.99700  0.99700  0.75000  1.0000
  F   F8        1.0  0.97900  0.43100  0.77700  1.0000
  H   H1        1.0  0.59100  0.36800  0.07070  1.0000
  H   H2        1.0  0.64800  0.13500  0.07580  1.0000
  H   H3        1.0  0.20500  0.73000  0.09740  1.0000
  H   H4        1.0  0.10800  0.14300  0.10300  1.0000
  H   H5        1.0  0.12400  0.38500  0.11000  1.0000
  H   H6        1.0  0.44400  0.83500  0.12200  1.0000
  H   H7        1.0  0.83500  0.44400  0.37800  1.0000
  H   H8        1.0  0.38500  0.12400  0.39000  1.0000
  H   H9        1.0  0.14300  0.10800  0.39700  1.0000
  H   H10       1.0  0.73000  0.20500  0.40300  1.0000
  H   H11       1.0  0.13500  0.64800  0.42400  1.0000
  H   H12       1.0  0.36800  0.59100  0.42900  1.0000
  H   H13       1.0  0.63200  0.40900  0.57100  1.0000
  H   H14       1.0  0.86500  0.35200  0.57600  1.0000
  H   H15       1.0  0.27000  0.79500  0.59700  1.0000
  H   H16       1.0  0.85700  0.89200  0.60300  1.0000
  H   H17       1.0  0.61500  0.87600  0.61000  1.0000
  H   H18       1.0  0.16500  0.55600  0.62200  1.0000
  H   H19       1.0  0.55600  0.16500  0.87800  1.0000
  H   H20       1.0  0.87600  0.61500  0.89000  1.0000
  H   H21       1.0  0.89200  0.85700  0.89700  1.0000
  H   H22       1.0  0.79500  0.27000  0.90300  1.0000
  H   H23       1.0  0.35200  0.86500  0.92400  1.0000
  H   H24       1.0  0.40900  0.63200  0.92900  1.0000
  N   N1        1.0  0.35100  0.76700  0.02080  1.0000
  N   N2        1.0  0.76700  0.35100  0.47900  1.0000
  N   N3        1.0  0.23300  0.64900  0.52100  1.0000
  N   N4        1.0  0.64900  0.23300  0.97900  1.0000
  O   O1        1.0  0.19100  0.25400  0.03780  1.0000
  O   O2        1.0  0.25400  0.19100  0.46200  1.0000
  O   O3        1.0  0.74600  0.80900  0.53800  1.0000
  O   O4        1.0  0.80900  0.74600  0.96200  1.0000
