data_image0
_chemical_formula_structural       Fe2H16O20P4
_chemical_formula_sum              "Fe2 H16 O20 P4"
_cell_length_a       7.30137
_cell_length_b       10.0075
_cell_length_c       4.84756
_cell_angle_alpha    90
_cell_angle_beta     91.0715
_cell_angle_gamma    90

_space_group_name_H-M_alt    "P 1"
_space_group_IT_number       1

loop_
  _space_group_symop_operation_xyz
  'x, y, z'

loop_
  _atom_site_type_symbol
  _atom_site_label
  _atom_site_symmetry_multiplicity
  _atom_site_fract_x
  _atom_site_fract_y
  _atom_site_fract_z
  _atom_site_occupancy
  Fe  Fe1       1.0  0.00000  0.00000  0.00000  1.0000
  Fe  Fe2       1.0  0.50000  0.50000  0.50000  1.0000
  H   H1        1.0  0.32700  0.39500  0.04340  1.0000
  H   H2        1.0  0.78100  0.45900  0.13400  1.0000
  H   H3        1.0  0.51500  0.83700  0.15600  1.0000
  H   H4        1.0  0.69400  0.09450  0.19300  1.0000
  H   H5        1.0  0.80600  0.59400  0.30700  1.0000
  H   H6        1.0  0.98500  0.33700  0.34400  1.0000
  H   H7        1.0  0.71900  0.95900  0.36600  1.0000
  H   H8        1.0  0.17300  0.89500  0.45700  1.0000
  H   H9        1.0  0.82700  0.10500  0.54300  1.0000
  H   H10       1.0  0.28100  0.04070  0.63400  1.0000
  H   H11       1.0  0.01520  0.66300  0.65600  1.0000
  H   H12       1.0  0.19400  0.40600  0.69300  1.0000
  H   H13       1.0  0.30600  0.90600  0.80700  1.0000
  H   H14       1.0  0.48500  0.16300  0.84400  1.0000
  H   H15       1.0  0.21900  0.54100  0.86600  1.0000
  H   H16       1.0  0.67300  0.60500  0.95700  1.0000
  O   O1        1.0  0.90400  0.35300  0.03860  1.0000
  O   O2        1.0  0.51100  0.15200  0.04990  1.0000
  O   O3        1.0  0.17000  0.14500  0.14300  1.0000
  O   O4        1.0  0.70900  0.54300  0.20200  1.0000
  O   O5        1.0  0.35400  0.35300  0.24700  1.0000
  O   O6        1.0  0.14600  0.85300  0.25300  1.0000
  O   O7        1.0  0.79100  0.04250  0.29800  1.0000
  O   O8        1.0  0.33000  0.64500  0.35700  1.0000
  O   O9        1.0  0.98900  0.65200  0.45000  1.0000
  O   O10       1.0  0.59600  0.85300  0.46100  1.0000
  O   O11       1.0  0.40400  0.14700  0.53900  1.0000
  O   O12       1.0  0.01130  0.34800  0.55000  1.0000
  O   O13       1.0  0.67000  0.35500  0.64300  1.0000
  O   O14       1.0  0.20900  0.95700  0.70200  1.0000
  O   O15       1.0  0.85400  0.14700  0.74700  1.0000
  O   O16       1.0  0.64600  0.64700  0.75300  1.0000
  O   O17       1.0  0.29100  0.45700  0.79800  1.0000
  O   O18       1.0  0.83000  0.85500  0.85700  1.0000
  O   O19       1.0  0.48900  0.84800  0.95000  1.0000
  O   O20       1.0  0.09580  0.64700  0.96100  1.0000
  P   P1        1.0  0.14900  0.69500  0.24800  1.0000
  P   P2        1.0  0.35100  0.19500  0.25200  1.0000
  P   P3        1.0  0.64900  0.80500  0.74800  1.0000
  P   P4        1.0  0.85100  0.30500  0.75200  1.0000
