data_image0
_chemical_formula_structural       Al2Ge2Sm2
_chemical_formula_sum              "Al2 Ge2 Sm2"
_cell_length_a       4.22319
_cell_length_b       4.22319
_cell_length_c       7.91862
_cell_angle_alpha    105.466
_cell_angle_beta     105.466
_cell_angle_gamma    90

_space_group_name_H-M_alt    "P 1"
_space_group_IT_number       1

loop_
  _space_group_symop_operation_xyz
  'x, y, z'

loop_
  _atom_site_type_symbol
  _atom_site_label
  _atom_site_symmetry_multiplicity
  _atom_site_fract_x
  _atom_site_fract_y
  _atom_site_fract_z
  _atom_site_occupancy
  Al  Al1       1.0  0.16900  0.16900  0.33900  1.0000
  Al  Al2       1.0  0.41900  0.91900  0.83900  1.0000
  Ge  Ge1       1.0  0.00319  0.00319  0.00638  1.0000
  Ge  Ge2       1.0  0.25300  0.75300  0.50600  1.0000
  Sm  Sm1       1.0  0.58500  0.58500  0.17000  1.0000
  Sm  Sm2       1.0  0.83500  0.33500  0.67000  1.0000
