data_image0
_chemical_formula_structural       Ca22In2Sb18
_chemical_formula_sum              "Ca22 In2 Sb18"
_cell_length_a       11.9194
_cell_length_b       12.0903
_cell_length_c       12.0903
_cell_angle_alpha    117.194
_cell_angle_beta     60.4664
_cell_angle_gamma    119.534

_space_group_name_H-M_alt    "P 1"
_space_group_IT_number       1

loop_
  _space_group_symop_operation_xyz
  'x, y, z'

loop_
  _atom_site_type_symbol
  _atom_site_label
  _atom_site_symmetry_multiplicity
  _atom_site_fract_x
  _atom_site_fract_y
  _atom_site_fract_z
  _atom_site_occupancy
  Ca  Ca1       1.0  0.75000  0.39000  0.06330  1.0000
  Ca  Ca2       1.0  0.55700  0.82200  0.07150  1.0000
  Ca  Ca3       1.0  0.25000  0.43700  0.11000  1.0000
  Ca  Ca4       1.0  0.83000  0.83000  0.17000  1.0000
  Ca  Ca5       1.0  0.84100  0.18100  0.17100  1.0000
  Ca  Ca6       1.0  0.19300  0.92900  0.17800  1.0000
  Ca  Ca7       1.0  0.94800  0.57500  0.31000  1.0000
  Ca  Ca8       1.0  0.34100  0.32900  0.31900  1.0000
  Ca  Ca9       1.0  0.41800  0.06760  0.37600  1.0000
  Ca  Ca10      1.0  0.31700  0.69000  0.42500  1.0000
  Ca  Ca11      1.0  0.91800  0.12400  0.43200  1.0000
  Ca  Ca12      1.0  0.07710  0.89000  0.56300  1.0000
  Ca  Ca13      1.0  0.69300  0.32200  0.57100  1.0000
  Ca  Ca14      1.0  0.57700  0.93700  0.61000  1.0000
  Ca  Ca15      1.0  0.33000  0.33000  0.67000  1.0000
  Ca  Ca16      1.0  0.66900  0.68100  0.67100  1.0000
  Ca  Ca17      1.0  0.05740  0.42900  0.67800  1.0000
  Ca  Ca18      1.0  0.81700  0.07490  0.81000  1.0000
  Ca  Ca19      1.0  0.16900  0.82900  0.81900  1.0000
  Ca  Ca20      1.0  0.77400  0.56800  0.87600  1.0000
  Ca  Ca21      1.0  0.44800  0.19000  0.92500  1.0000
  Ca  Ca22      1.0  0.27400  0.62400  0.93200  1.0000
  In  In1       1.0  0.61400  0.61400  0.38600  1.0000
  In  In2       1.0  0.11400  0.11400  0.88600  1.0000
  Sb  Sb1       1.0  0.99800  0.64500  0.00160  1.0000
  Sb  Sb2       1.0  0.54300  0.11600  0.10200  1.0000
  Sb  Sb3       1.0  0.13300  0.11800  0.12100  1.0000
  Sb  Sb4       1.0  0.54300  0.55100  0.15900  1.0000
  Sb  Sb5       1.0  0.25200  0.75200  0.24800  1.0000
  Sb  Sb6       1.0  0.64600  0.99800  0.35500  1.0000
  Sb  Sb7       1.0  0.63300  0.37900  0.38200  1.0000
  Sb  Sb8       1.0  0.04270  0.39800  0.38400  1.0000
  Sb  Sb9       1.0  0.85000  0.84100  0.44900  1.0000
  Sb  Sb10      1.0  0.14600  0.14500  0.50200  1.0000
  Sb  Sb11      1.0  0.97100  0.61600  0.60200  1.0000
  Sb  Sb12      1.0  0.36400  0.61800  0.62100  1.0000
  Sb  Sb13      1.0  0.35000  0.05120  0.65900  1.0000
  Sb  Sb14      1.0  0.75200  0.25200  0.74800  1.0000
  Sb  Sb15      1.0  0.49800  0.49800  0.85500  1.0000
  Sb  Sb16      1.0  0.86400  0.87900  0.88200  1.0000
  Sb  Sb17      1.0  0.47100  0.89800  0.88400  1.0000
  Sb  Sb18      1.0  0.04250  0.34100  0.94900  1.0000
