data_image0
_chemical_formula_structural       F12H20O8Si2
_chemical_formula_sum              "F12 H20 O8 Si2"
_cell_length_a       5.73502
_cell_length_b       9.38117
_cell_length_c       6.01839
_cell_angle_alpha    90
_cell_angle_beta     106.943
_cell_angle_gamma    90

_space_group_name_H-M_alt    "P 1"
_space_group_IT_number       1

loop_
  _space_group_symop_operation_xyz
  'x, y, z'

loop_
  _atom_site_type_symbol
  _atom_site_label
  _atom_site_symmetry_multiplicity
  _atom_site_fract_x
  _atom_site_fract_y
  _atom_site_fract_z
  _atom_site_occupancy
  F   F1        1.0  0.29600  0.99100  0.01700  1.0000
  F   F2        1.0  0.05520  0.15200  0.16100  1.0000
  F   F3        1.0  0.94500  0.40300  0.24900  1.0000
  F   F4        1.0  0.05510  0.90300  0.25100  1.0000
  F   F5        1.0  0.94500  0.65200  0.33900  1.0000
  F   F6        1.0  0.70400  0.49100  0.48300  1.0000
  F   F7        1.0  0.29600  0.50900  0.51700  1.0000
  F   F8        1.0  0.05510  0.34800  0.66100  1.0000
  F   F9        1.0  0.94500  0.09740  0.74900  1.0000
  F   F10       1.0  0.05510  0.59700  0.75100  1.0000
  F   F11       1.0  0.94500  0.84800  0.83900  1.0000
  F   F12       1.0  0.70400  0.00900  0.98300  1.0000
  H   H1        1.0  0.76900  0.62000  0.08830  1.0000
  H   H2        1.0  0.17400  0.39400  0.15300  1.0000
  H   H3        1.0  0.44300  0.30600  0.15700  1.0000
  H   H4        1.0  0.58000  0.12400  0.16200  1.0000
  H   H5        1.0  0.75500  0.25600  0.24800  1.0000
  H   H6        1.0  0.24500  0.75600  0.25200  1.0000
  H   H7        1.0  0.42000  0.62400  0.33800  1.0000
  H   H8        1.0  0.55700  0.80600  0.34300  1.0000
  H   H9        1.0  0.82600  0.89400  0.34700  1.0000
  H   H10       1.0  0.23100  0.12000  0.41200  1.0000
  H   H11       1.0  0.76900  0.88000  0.58800  1.0000
  H   H12       1.0  0.17400  0.10600  0.65300  1.0000
  H   H13       1.0  0.44300  0.19400  0.65700  1.0000
  H   H14       1.0  0.58000  0.37600  0.66200  1.0000
  H   H15       1.0  0.75500  0.24400  0.74800  1.0000
  H   H16       1.0  0.24500  0.74400  0.75200  1.0000
  H   H17       1.0  0.42000  0.87600  0.83800  1.0000
  H   H18       1.0  0.55700  0.69400  0.84300  1.0000
  H   H19       1.0  0.82600  0.60600  0.84700  1.0000
  H   H20       1.0  0.23100  0.38000  0.91200  1.0000
  O   O1        1.0  0.31000  0.39700  0.08050  1.0000
  O   O2        1.0  0.40000  0.71300  0.24600  1.0000
  O   O3        1.0  0.60000  0.21300  0.25400  1.0000
  O   O4        1.0  0.69000  0.89700  0.41900  1.0000
  O   O5        1.0  0.31000  0.10300  0.58100  1.0000
  O   O6        1.0  0.40000  0.78700  0.74600  1.0000
  O   O7        1.0  0.60000  0.28700  0.75400  1.0000
  O   O8        1.0  0.69000  0.60300  0.91900  1.0000
  Si  Si1       1.0  0.00000  0.00000  0.00000  1.0000
  Si  Si2       1.0  0.00000  0.50000  0.50000  1.0000
