data_image0
_chemical_formula_structural       Ni4Si4Ti4
_chemical_formula_sum              "Ni4 Si4 Ti4"
_cell_length_a       6.14345
_cell_length_b       7.01427
_cell_length_c       3.65748
_cell_angle_alpha    90
_cell_angle_beta     90
_cell_angle_gamma    90

_space_group_name_H-M_alt    "P 1"
_space_group_IT_number       1

loop_
  _space_group_symop_operation_xyz
  'x, y, z'

loop_
  _atom_site_type_symbol
  _atom_site_label
  _atom_site_symmetry_multiplicity
  _atom_site_fract_x
  _atom_site_fract_y
  _atom_site_fract_z
  _atom_site_occupancy
  Ni  Ni1       1.0  0.14100  0.56000  0.25000  1.0000
  Ni  Ni2       1.0  0.64100  0.94000  0.25000  1.0000
  Ni  Ni3       1.0  0.35900  0.06010  0.75000  1.0000
  Ni  Ni4       1.0  0.85900  0.44000  0.75000  1.0000
  Si  Si1       1.0  0.76600  0.62200  0.25000  1.0000
  Si  Si2       1.0  0.26600  0.87800  0.25000  1.0000
  Si  Si3       1.0  0.73400  0.12200  0.75000  1.0000
  Si  Si4       1.0  0.23400  0.37800  0.75000  1.0000
  Ti  Ti1       1.0  0.02280  0.18100  0.25000  1.0000
  Ti  Ti2       1.0  0.52300  0.31900  0.25000  1.0000
  Ti  Ti3       1.0  0.47700  0.68100  0.75000  1.0000
  Ti  Ti4       1.0  0.97700  0.81900  0.75000  1.0000
