data_image0
_chemical_formula_structural       H20Na4O16Si2
_chemical_formula_sum              "H20 Na4 O16 Si2"
_cell_length_a       7.79904
_cell_length_b       9.42537
_cell_length_c       6.54421
_cell_angle_alpha    70.0268
_cell_angle_beta     105.073
_cell_angle_gamma    122.878

_space_group_name_H-M_alt    "P 1"
_space_group_IT_number       1

loop_
  _space_group_symop_operation_xyz
  'x, y, z'

loop_
  _atom_site_type_symbol
  _atom_site_label
  _atom_site_symmetry_multiplicity
  _atom_site_fract_x
  _atom_site_fract_y
  _atom_site_fract_z
  _atom_site_occupancy
  H   H1        1.0  0.05660  0.73700  0.03920  1.0000
  H   H2        1.0  0.39700  0.53800  0.07520  1.0000
  H   H3        1.0  0.22600  0.90700  0.11600  1.0000
  H   H4        1.0  0.80300  0.48900  0.20800  1.0000
  H   H5        1.0  0.02630  0.94300  0.22200  1.0000
  H   H6        1.0  0.15000  0.34600  0.24700  1.0000
  H   H7        1.0  0.92700  0.39000  0.34800  1.0000
  H   H8        1.0  0.74700  0.91100  0.36100  1.0000
  H   H9        1.0  0.30900  0.07990  0.42500  1.0000
  H   H10       1.0  0.87300  0.71700  0.49000  1.0000
  H   H11       1.0  0.12700  0.28300  0.51000  1.0000
  H   H12       1.0  0.69100  0.92000  0.57500  1.0000
  H   H13       1.0  0.25300  0.08860  0.63900  1.0000
  H   H14       1.0  0.07300  0.61000  0.65200  1.0000
  H   H15       1.0  0.85000  0.65400  0.75300  1.0000
  H   H16       1.0  0.97400  0.05720  0.77800  1.0000
  H   H17       1.0  0.19700  0.51100  0.79200  1.0000
  H   H18       1.0  0.77400  0.09350  0.88400  1.0000
  H   H19       1.0  0.60300  0.46200  0.92500  1.0000
  H   H20       1.0  0.94300  0.26300  0.96100  1.0000
  Na  Na1       1.0  0.60900  0.14900  0.18700  1.0000
  Na  Na2       1.0  0.34700  0.66100  0.37200  1.0000
  Na  Na3       1.0  0.65300  0.33900  0.62800  1.0000
  Na  Na4       1.0  0.39100  0.85100  0.81300  1.0000
  O   O1        1.0  0.20500  0.35800  0.01170  1.0000
  O   O2        1.0  0.20800  0.80300  0.07830  1.0000
  O   O3        1.0  0.49800  0.65300  0.11600  1.0000
  O   O4        1.0  0.25400  0.07350  0.17600  1.0000
  O   O5        1.0  0.87500  0.85100  0.24700  1.0000
  O   O6        1.0  0.79300  0.38600  0.33000  1.0000
  O   O7        1.0  0.12900  0.37200  0.37200  1.0000
  O   O8        1.0  0.64700  0.92100  0.41500  1.0000
  O   O9        1.0  0.35300  0.07950  0.58500  1.0000
  O   O10       1.0  0.87100  0.62800  0.62800  1.0000
  O   O11       1.0  0.20700  0.61400  0.67000  1.0000
  O   O12       1.0  0.12500  0.14900  0.75300  1.0000
  O   O13       1.0  0.74600  0.92600  0.82400  1.0000
  O   O14       1.0  0.50200  0.34700  0.88400  1.0000
  O   O15       1.0  0.79200  0.19700  0.92200  1.0000
  O   O16       1.0  0.79500  0.64200  0.98800  1.0000
  Si  Si1       1.0  0.73100  0.76600  0.03350  1.0000
  Si  Si2       1.0  0.26900  0.23400  0.96700  1.0000
