data_image0
_chemical_formula_structural       H20Mn2O18S2
_chemical_formula_sum              "H20 Mn2 O18 S2"
_cell_length_a       6.14337
_cell_length_b       10.3884
_cell_length_c       6.03076
_cell_angle_alpha    81.7837
_cell_angle_beta     109.673
_cell_angle_gamma    104.783

_space_group_name_H-M_alt    "P 1"
_space_group_IT_number       1

loop_
  _space_group_symop_operation_xyz
  'x, y, z'

loop_
  _atom_site_type_symbol
  _atom_site_label
  _atom_site_symmetry_multiplicity
  _atom_site_fract_x
  _atom_site_fract_y
  _atom_site_fract_z
  _atom_site_occupancy
  H   H1        1.0  0.17000  0.60500  0.09930  1.0000
  H   H2        1.0  0.36500  0.21200  0.13200  1.0000
  H   H3        1.0  0.88100  0.37400  0.18100  1.0000
  H   H4        1.0  0.70000  0.01820  0.22800  1.0000
  H   H5        1.0  0.57800  0.80200  0.25600  1.0000
  H   H6        1.0  0.89900  0.15500  0.26600  1.0000
  H   H7        1.0  0.38400  0.86900  0.28100  1.0000
  H   H8        1.0  0.36600  0.12700  0.37200  1.0000
  H   H9        1.0  0.33200  0.36900  0.38100  1.0000
  H   H10       1.0  0.61800  0.38800  0.46100  1.0000
  H   H11       1.0  0.38200  0.61200  0.53900  1.0000
  H   H12       1.0  0.66800  0.63100  0.61900  1.0000
  H   H13       1.0  0.63400  0.87300  0.62800  1.0000
  H   H14       1.0  0.61600  0.13100  0.71900  1.0000
  H   H15       1.0  0.10100  0.84500  0.73400  1.0000
  H   H16       1.0  0.42200  0.19800  0.74400  1.0000
  H   H17       1.0  0.30000  0.98200  0.77200  1.0000
  H   H18       1.0  0.11900  0.62600  0.81900  1.0000
  H   H19       1.0  0.63500  0.78800  0.86800  1.0000
  H   H20       1.0  0.83000  0.39500  0.90100  1.0000
  Mn  Mn1       1.0  0.00000  0.00000  0.00000  1.0000
  Mn  Mn2       1.0  0.50000  0.50000  0.00000  1.0000
  O   O1        1.0  0.77000  0.40200  0.03140  1.0000
  O   O2        1.0  0.80800  0.08480  0.15400  1.0000
  O   O3        1.0  0.73100  0.68400  0.17300  1.0000
  O   O4        1.0  0.33300  0.12100  0.19900  1.0000
  O   O5        1.0  0.09290  0.85300  0.30400  1.0000
  O   O6        1.0  0.47400  0.39800  0.32800  1.0000
  O   O7        1.0  0.55600  0.87300  0.33400  1.0000
  O   O8        1.0  0.11300  0.61900  0.34200  1.0000
  O   O9        1.0  0.05810  0.30000  0.41100  1.0000
  O   O10       1.0  0.94200  0.70000  0.58900  1.0000
  O   O11       1.0  0.88700  0.38100  0.65800  1.0000
  O   O12       1.0  0.44400  0.12700  0.66600  1.0000
  O   O13       1.0  0.52600  0.60200  0.67200  1.0000
  O   O14       1.0  0.90700  0.14700  0.69600  1.0000
  O   O15       1.0  0.66700  0.87900  0.80100  1.0000
  O   O16       1.0  0.26900  0.31600  0.82700  1.0000
  O   O17       1.0  0.19200  0.91500  0.84600  1.0000
  O   O18       1.0  0.23000  0.59800  0.96900  1.0000
  S   S1        1.0  0.97200  0.71300  0.35000  1.0000
  S   S2        1.0  0.02780  0.28700  0.65000  1.0000
