data_image0
_chemical_formula_structural       H16N4O16P4V2
_chemical_formula_sum              "H16 N4 O16 P4 V2"
_cell_length_a       8.30184
_cell_length_b       8.30184
_cell_length_c       5.56969
_cell_angle_alpha    90
_cell_angle_beta     90
_cell_angle_gamma    90

_space_group_name_H-M_alt    "P 1"
_space_group_IT_number       1

loop_
  _space_group_symop_operation_xyz
  'x, y, z'

loop_
  _atom_site_type_symbol
  _atom_site_label
  _atom_site_symmetry_multiplicity
  _atom_site_fract_x
  _atom_site_fract_y
  _atom_site_fract_z
  _atom_site_occupancy
  H   H1        1.0  0.25400  0.10300  0.51000  1.0000
  H   H2        1.0  0.39700  0.24600  0.51000  1.0000
  H   H3        1.0  0.89700  0.25400  0.51000  1.0000
  H   H4        1.0  0.75400  0.39700  0.51000  1.0000
  H   H5        1.0  0.24600  0.60300  0.51000  1.0000
  H   H6        1.0  0.10300  0.74600  0.51000  1.0000
  H   H7        1.0  0.60300  0.75400  0.51000  1.0000
  H   H8        1.0  0.74600  0.89700  0.51000  1.0000
  H   H9        1.0  0.40100  0.09940  0.71500  1.0000
  H   H10       1.0  0.90100  0.40100  0.71500  1.0000
  H   H11       1.0  0.09940  0.59900  0.71500  1.0000
  H   H12       1.0  0.59900  0.90100  0.71500  1.0000
  H   H13       1.0  0.25800  0.24200  0.73100  1.0000
  H   H14       1.0  0.75800  0.25800  0.73100  1.0000
  H   H15       1.0  0.24200  0.74200  0.73100  1.0000
  H   H16       1.0  0.74200  0.75800  0.73100  1.0000
  N   N1        1.0  0.32700  0.17300  0.61500  1.0000
  N   N2        1.0  0.82700  0.32700  0.61500  1.0000
  N   N3        1.0  0.17300  0.67300  0.61500  1.0000
  N   N4        1.0  0.67300  0.82700  0.61500  1.0000
  O   O1        1.0  0.62600  0.12600  0.37500  1.0000
  O   O2        1.0  0.12600  0.37400  0.37500  1.0000
  O   O3        1.0  0.87400  0.62600  0.37500  1.0000
  O   O4        1.0  0.37400  0.87400  0.37500  1.0000
  O   O5        1.0  0.00000  0.00000  0.38700  1.0000
  O   O6        1.0  0.50000  0.50000  0.38700  1.0000
  O   O7        1.0  0.78600  0.07680  0.98500  1.0000
  O   O8        1.0  0.07680  0.21400  0.98500  1.0000
  O   O9        1.0  0.57700  0.28600  0.98500  1.0000
  O   O10       1.0  0.28600  0.42300  0.98500  1.0000
  O   O11       1.0  0.71400  0.57700  0.98500  1.0000
  O   O12       1.0  0.42300  0.71400  0.98500  1.0000
  O   O13       1.0  0.92300  0.78600  0.98500  1.0000
  O   O14       1.0  0.21400  0.92300  0.98500  1.0000
  O   O15       1.0  0.50000  0.00000  0.99400  1.0000
  O   O16       1.0  0.00000  0.50000  0.99400  1.0000
  P   P1        1.0  0.62900  0.12900  0.10800  1.0000
  P   P2        1.0  0.12900  0.37100  0.10800  1.0000
  P   P3        1.0  0.87100  0.62900  0.10800  1.0000
  P   P4        1.0  0.37100  0.87100  0.10800  1.0000
  V   V1        1.0  0.00000  0.00000  0.09190  1.0000
  V   V2        1.0  0.50000  0.50000  0.09190  1.0000
