data_image0
_chemical_formula_structural       Cd4O28P8Si2
_chemical_formula_sum              "Cd4 O28 P8 Si2"
_cell_length_a       5.08111
_cell_length_b       8.94067
_cell_length_c       12.4701
_cell_angle_alpha    103.299
_cell_angle_beta     90
_cell_angle_gamma    106.508

_space_group_name_H-M_alt    "P 1"
_space_group_IT_number       1

loop_
  _space_group_symop_operation_xyz
  'x, y, z'

loop_
  _atom_site_type_symbol
  _atom_site_label
  _atom_site_symmetry_multiplicity
  _atom_site_fract_x
  _atom_site_fract_y
  _atom_site_fract_z
  _atom_site_occupancy
  Cd  Cd1       1.0  0.39900  0.48800  0.13200  1.0000
  Cd  Cd2       1.0  0.91100  0.51200  0.36800  1.0000
  Cd  Cd3       1.0  0.08940  0.48800  0.63200  1.0000
  Cd  Cd4       1.0  0.60100  0.51200  0.86800  1.0000
  O   O1        1.0  0.87100  0.17000  0.00830  1.0000
  O   O2        1.0  0.80600  0.59200  0.04970  1.0000
  O   O3        1.0  0.47200  0.25300  0.10700  1.0000
  O   O4        1.0  0.30900  0.71500  0.13400  1.0000
  O   O5        1.0  0.69900  0.07240  0.16800  1.0000
  O   O6        1.0  0.96600  0.86500  0.17800  1.0000
  O   O7        1.0  0.97000  0.37100  0.19300  1.0000
  O   O8        1.0  0.60000  0.62900  0.30700  1.0000
  O   O9        1.0  0.10200  0.13500  0.32200  1.0000
  O   O10       1.0  0.62600  0.92800  0.33200  1.0000
  O   O11       1.0  0.59400  0.28500  0.36600  1.0000
  O   O12       1.0  0.21900  0.74700  0.39300  1.0000
  O   O13       1.0  0.21500  0.40800  0.45000  1.0000
  O   O14       1.0  0.70200  0.83000  0.49200  1.0000
  O   O15       1.0  0.29800  0.17000  0.50800  1.0000
  O   O16       1.0  0.78500  0.59200  0.55000  1.0000
  O   O17       1.0  0.78100  0.25300  0.60700  1.0000
  O   O18       1.0  0.40600  0.71500  0.63400  1.0000
  O   O19       1.0  0.37400  0.07240  0.66800  1.0000
  O   O20       1.0  0.89800  0.86500  0.67800  1.0000
  O   O21       1.0  0.40000  0.37100  0.69300  1.0000
  O   O22       1.0  0.02950  0.62900  0.80700  1.0000
  O   O23       1.0  0.03370  0.13500  0.82200  1.0000
  O   O24       1.0  0.30100  0.92800  0.83200  1.0000
  O   O25       1.0  0.69100  0.28500  0.86600  1.0000
  O   O26       1.0  0.52800  0.74700  0.89300  1.0000
  O   O27       1.0  0.19400  0.40800  0.95000  1.0000
  O   O28       1.0  0.12900  0.83000  0.99200  1.0000
  P   P1        1.0  0.05270  0.73800  0.08930  1.0000
  P   P2        1.0  0.74700  0.22900  0.12400  1.0000
  P   P3        1.0  0.51800  0.77100  0.37600  1.0000
  P   P4        1.0  0.31500  0.26200  0.41100  1.0000
  P   P5        1.0  0.68500  0.73800  0.58900  1.0000
  P   P6        1.0  0.48200  0.22900  0.62400  1.0000
  P   P7        1.0  0.25300  0.77100  0.87600  1.0000
  P   P8        1.0  0.94700  0.26200  0.91100  1.0000
  Si  Si1       1.0  0.84600  0.00000  0.25000  1.0000
  Si  Si2       1.0  0.15400  0.00000  0.75000  1.0000
