data_image0
_chemical_formula_structural       Ca4Pt4Si4
_chemical_formula_sum              "Ca4 Pt4 Si4"
_cell_length_a       6.37373
_cell_length_b       6.37373
_cell_length_c       6.37373
_cell_angle_alpha    90
_cell_angle_beta     90
_cell_angle_gamma    90

_space_group_name_H-M_alt    "P 1"
_space_group_IT_number       1

loop_
  _space_group_symop_operation_xyz
  'x, y, z'

loop_
  _atom_site_type_symbol
  _atom_site_label
  _atom_site_symmetry_multiplicity
  _atom_site_fract_x
  _atom_site_fract_y
  _atom_site_fract_z
  _atom_site_occupancy
  Ca  Ca1       1.0  0.12700  0.12700  0.12700  1.0000
  Ca  Ca2       1.0  0.87300  0.62700  0.37300  1.0000
  Ca  Ca3       1.0  0.37300  0.87300  0.62700  1.0000
  Ca  Ca4       1.0  0.62700  0.37300  0.87300  1.0000
  Pt  Pt1       1.0  0.57800  0.92200  0.07840  1.0000
  Pt  Pt2       1.0  0.42200  0.42200  0.42200  1.0000
  Pt  Pt3       1.0  0.92200  0.07840  0.57800  1.0000
  Pt  Pt4       1.0  0.07840  0.57800  0.92200  1.0000
  Si  Si1       1.0  0.33100  0.66900  0.16900  1.0000
  Si  Si2       1.0  0.66900  0.16900  0.33100  1.0000
  Si  Si3       1.0  0.16900  0.33100  0.66900  1.0000
  Si  Si4       1.0  0.83100  0.83100  0.83100  1.0000
