data_image0
_chemical_formula_structural       Pd8Si8Y8
_chemical_formula_sum              "Pd8 Si8 Y8"
_cell_length_a       4.32995
_cell_length_b       13.9638
_cell_length_c       7.46513
_cell_angle_alpha    90
_cell_angle_beta     90
_cell_angle_gamma    90

_space_group_name_H-M_alt    "P 1"
_space_group_IT_number       1

loop_
  _space_group_symop_operation_xyz
  'x, y, z'

loop_
  _atom_site_type_symbol
  _atom_site_label
  _atom_site_symmetry_multiplicity
  _atom_site_fract_x
  _atom_site_fract_y
  _atom_site_fract_z
  _atom_site_occupancy
  Pd  Pd1       1.0  0.25000  0.14200  0.07730  1.0000
  Pd  Pd2       1.0  0.25000  0.35800  0.07730  1.0000
  Pd  Pd3       1.0  0.25000  0.59500  0.41800  1.0000
  Pd  Pd4       1.0  0.25000  0.90500  0.41800  1.0000
  Pd  Pd5       1.0  0.75000  0.09480  0.58200  1.0000
  Pd  Pd6       1.0  0.75000  0.40500  0.58200  1.0000
  Pd  Pd7       1.0  0.75000  0.64200  0.92300  1.0000
  Pd  Pd8       1.0  0.75000  0.85800  0.92300  1.0000
  Si  Si1       1.0  0.25000  0.65700  0.09040  1.0000
  Si  Si2       1.0  0.25000  0.84300  0.09040  1.0000
  Si  Si3       1.0  0.25000  0.10400  0.40900  1.0000
  Si  Si4       1.0  0.25000  0.39600  0.40900  1.0000
  Si  Si5       1.0  0.75000  0.60400  0.59100  1.0000
  Si  Si6       1.0  0.75000  0.89600  0.59100  1.0000
  Si  Si7       1.0  0.75000  0.15700  0.91000  1.0000
  Si  Si8       1.0  0.75000  0.34300  0.91000  1.0000
  Y   Y1        1.0  0.75000  0.50100  0.21000  1.0000
  Y   Y2        1.0  0.75000  0.99900  0.21000  1.0000
  Y   Y3        1.0  0.75000  0.25000  0.29200  1.0000
  Y   Y4        1.0  0.75000  0.75000  0.29900  1.0000
  Y   Y5        1.0  0.25000  0.25000  0.70100  1.0000
  Y   Y6        1.0  0.25000  0.75000  0.70800  1.0000
  Y   Y7        1.0  0.25000  0.00145  0.79000  1.0000
  Y   Y8        1.0  0.25000  0.49900  0.79000  1.0000
