data_image0
_chemical_formula_structural       AlNi2Pr2
_chemical_formula_sum              "Al1 Ni2 Pr2"
_cell_length_a       4.28158
_cell_length_b       5.59385
_cell_length_c       5.59385
_cell_angle_alpha    102.616
_cell_angle_beta     112.501
_cell_angle_gamma    112.501

_space_group_name_H-M_alt    "P 1"
_space_group_IT_number       1

loop_
  _space_group_symop_operation_xyz
  'x, y, z'

loop_
  _atom_site_type_symbol
  _atom_site_label
  _atom_site_symmetry_multiplicity
  _atom_site_fract_x
  _atom_site_fract_y
  _atom_site_fract_z
  _atom_site_occupancy
  Al  Al1       1.0  0.00000  0.00000  0.00000  1.0000
  Ni  Ni1       1.0  0.76000  0.26000  0.26000  1.0000
  Ni  Ni2       1.0  0.24000  0.74000  0.74000  1.0000
  Pr  Pr1       1.0  0.50000  0.70100  0.29900  1.0000
  Pr  Pr2       1.0  0.50000  0.29900  0.70100  1.0000
