data_image0
_chemical_formula_structural       Bi20Sr22
_chemical_formula_sum              "Bi20 Sr22"
_cell_length_a       12.8717
_cell_length_b       12.8717
_cell_length_c       12.9655
_cell_angle_alpha    119.761
_cell_angle_beta     119.761
_cell_angle_gamma    90

_space_group_name_H-M_alt    "P 1"
_space_group_IT_number       1

loop_
  _space_group_symop_operation_xyz
  'x, y, z'

loop_
  _atom_site_type_symbol
  _atom_site_label
  _atom_site_symmetry_multiplicity
  _atom_site_fract_x
  _atom_site_fract_y
  _atom_site_fract_z
  _atom_site_occupancy
  Bi  Bi1       1.0  0.35000  0.00000  0.00000  1.0000
  Bi  Bi2       1.0  0.65000  0.00000  0.00000  1.0000
  Bi  Bi3       1.0  0.00000  0.35000  0.00000  1.0000
  Bi  Bi4       1.0  0.37300  0.37300  0.00000  1.0000
  Bi  Bi5       1.0  0.62700  0.37300  0.00000  1.0000
  Bi  Bi6       1.0  0.37300  0.62700  0.00000  1.0000
  Bi  Bi7       1.0  0.62700  0.62700  0.00000  1.0000
  Bi  Bi8       1.0  0.00000  0.65000  0.00000  1.0000
  Bi  Bi9       1.0  0.12600  0.12600  0.25200  1.0000
  Bi  Bi10      1.0  0.46700  0.46700  0.34800  1.0000
  Bi  Bi11      1.0  0.88000  0.46700  0.34800  1.0000
  Bi  Bi12      1.0  0.46700  0.88000  0.34800  1.0000
  Bi  Bi13      1.0  0.88000  0.88000  0.34800  1.0000
  Bi  Bi14      1.0  0.75000  0.25000  0.50000  1.0000
  Bi  Bi15      1.0  0.25000  0.75000  0.50000  1.0000
  Bi  Bi16      1.0  0.12000  0.12000  0.65200  1.0000
  Bi  Bi17      1.0  0.53300  0.12000  0.65200  1.0000
  Bi  Bi18      1.0  0.12000  0.53300  0.65200  1.0000
  Bi  Bi19      1.0  0.53300  0.53300  0.65200  1.0000
  Bi  Bi20      1.0  0.87400  0.87400  0.74800  1.0000
  Sr  Sr1       1.0  0.16500  0.16500  0.00000  1.0000
  Sr  Sr2       1.0  0.83500  0.16500  0.00000  1.0000
  Sr  Sr3       1.0  0.16500  0.83500  0.00000  1.0000
  Sr  Sr4       1.0  0.83500  0.83500  0.00000  1.0000
  Sr  Sr5       1.0  0.60400  0.26500  0.20700  1.0000
  Sr  Sr6       1.0  0.26500  0.60400  0.20700  1.0000
  Sr  Sr7       1.0  0.94200  0.60400  0.20700  1.0000
  Sr  Sr8       1.0  0.60400  0.94200  0.20700  1.0000
  Sr  Sr9       1.0  0.66100  0.66100  0.32100  1.0000
  Sr  Sr10      1.0  0.44100  0.19000  0.38000  1.0000
  Sr  Sr11      1.0  0.93900  0.19000  0.38000  1.0000
  Sr  Sr12      1.0  0.19000  0.44100  0.38000  1.0000
  Sr  Sr13      1.0  0.19000  0.93900  0.38000  1.0000
  Sr  Sr14      1.0  0.81000  0.06050  0.62000  1.0000
  Sr  Sr15      1.0  0.81000  0.55900  0.62000  1.0000
  Sr  Sr16      1.0  0.06050  0.81000  0.62000  1.0000
  Sr  Sr17      1.0  0.55900  0.81000  0.62000  1.0000
  Sr  Sr18      1.0  0.33900  0.33900  0.67900  1.0000
  Sr  Sr19      1.0  0.39600  0.05780  0.79300  1.0000
  Sr  Sr20      1.0  0.05780  0.39600  0.79300  1.0000
  Sr  Sr21      1.0  0.73500  0.39600  0.79300  1.0000
  Sr  Sr22      1.0  0.39600  0.73500  0.79300  1.0000
