data_image0
_chemical_formula_structural       As2EuMn2
_chemical_formula_sum              "As2 Eu1 Mn2"
_cell_length_a       4.01279
_cell_length_b       4.01279
_cell_length_c       7.11964
_cell_angle_alpha    90
_cell_angle_beta     89.9997
_cell_angle_gamma    120

_space_group_name_H-M_alt    "P 1"
_space_group_IT_number       1

loop_
  _space_group_symop_operation_xyz
  'x, y, z'

loop_
  _atom_site_type_symbol
  _atom_site_label
  _atom_site_symmetry_multiplicity
  _atom_site_fract_x
  _atom_site_fract_y
  _atom_site_fract_z
  _atom_site_occupancy
  As  As1       1.0  0.33300  0.66700  0.27700  1.0000
  As  As2       1.0  0.66700  0.33300  0.72300  1.0000
  Eu  Eu1       1.0  0.00000  0.00000  0.00000  1.0000
  Mn  Mn1       1.0  0.66700  0.33300  0.38500  1.0000
  Mn  Mn2       1.0  0.33300  0.66700  0.61500  1.0000
