data_image0
_chemical_formula_structural       Ag2Be3Mn2
_chemical_formula_sum              "Ag2 Be3 Mn2"
_cell_length_a       6.86414
_cell_length_b       6.86414
_cell_length_c       6.86414
_cell_angle_alpha    33.7911
_cell_angle_beta     33.7911
_cell_angle_gamma    33.7911

_space_group_name_H-M_alt    "P 1"
_space_group_IT_number       1

loop_
  _space_group_symop_operation_xyz
  'x, y, z'

loop_
  _atom_site_type_symbol
  _atom_site_label
  _atom_site_symmetry_multiplicity
  _atom_site_fract_x
  _atom_site_fract_y
  _atom_site_fract_z
  _atom_site_occupancy
  Ag  Ag1       1.0  0.00397  0.00397  0.00397  1.0000
  Ag  Ag2       1.0  0.49800  0.49800  0.49800  1.0000
  Be  Be1       1.0  0.37100  0.37100  0.37100  1.0000
  Be  Be2       1.0  0.62400  0.62400  0.62400  1.0000
  Be  Be3       1.0  0.87900  0.87900  0.87900  1.0000
  Mn  Mn1       1.0  0.24500  0.24500  0.24500  1.0000
  Mn  Mn2       1.0  0.75300  0.75300  0.75300  1.0000
