data_image0
_chemical_formula_structural       Au2Mg3Mn2
_chemical_formula_sum              "Au2 Mg3 Mn2"
_cell_length_a       7.69156
_cell_length_b       7.69156
_cell_length_c       7.69156
_cell_angle_alpha    34.2917
_cell_angle_beta     34.2917
_cell_angle_gamma    34.2917

_space_group_name_H-M_alt    "P 1"
_space_group_IT_number       1

loop_
  _space_group_symop_operation_xyz
  'x, y, z'

loop_
  _atom_site_type_symbol
  _atom_site_label
  _atom_site_symmetry_multiplicity
  _atom_site_fract_x
  _atom_site_fract_y
  _atom_site_fract_z
  _atom_site_occupancy
  Au  Au1       1.0  0.02620  0.02620  0.02620  1.0000
  Au  Au2       1.0  0.51000  0.51000  0.51000  1.0000
  Mg  Mg1       1.0  0.38100  0.38100  0.38100  1.0000
  Mg  Mg2       1.0  0.63700  0.63700  0.63700  1.0000
  Mg  Mg3       1.0  0.89700  0.89700  0.89700  1.0000
  Mn  Mn1       1.0  0.15500  0.15500  0.15500  1.0000
  Mn  Mn2       1.0  0.76900  0.76900  0.76900  1.0000
