data_image0
_chemical_formula_structural       Cr2Hg2Sr3
_chemical_formula_sum              "Cr2 Hg2 Sr3"
_cell_length_a       9.42233
_cell_length_b       9.42233
_cell_length_c       9.42233
_cell_angle_alpha    33.9431
_cell_angle_beta     33.9431
_cell_angle_gamma    33.9431

_space_group_name_H-M_alt    "P 1"
_space_group_IT_number       1

loop_
  _space_group_symop_operation_xyz
  'x, y, z'

loop_
  _atom_site_type_symbol
  _atom_site_label
  _atom_site_symmetry_multiplicity
  _atom_site_fract_x
  _atom_site_fract_y
  _atom_site_fract_z
  _atom_site_occupancy
  Cr  Cr1       1.0  0.24400  0.24400  0.24400  1.0000
  Cr  Cr2       1.0  0.75000  0.75000  0.75000  1.0000
  Hg  Hg1       1.0  0.00325  0.00325  0.00325  1.0000
  Hg  Hg2       1.0  0.50200  0.50200  0.50200  1.0000
  Sr  Sr1       1.0  0.37900  0.37900  0.37900  1.0000
  Sr  Sr2       1.0  0.62600  0.62600  0.62600  1.0000
  Sr  Sr3       1.0  0.87200  0.87200  0.87200  1.0000
