data_image0
_chemical_formula_structural       Ba3Cr2Hg2
_chemical_formula_sum              "Ba3 Cr2 Hg2"
_cell_length_a       9.8778
_cell_length_b       9.8778
_cell_length_c       9.8778
_cell_angle_alpha    33.6532
_cell_angle_beta     33.6532
_cell_angle_gamma    33.6532

_space_group_name_H-M_alt    "P 1"
_space_group_IT_number       1

loop_
  _space_group_symop_operation_xyz
  'x, y, z'

loop_
  _atom_site_type_symbol
  _atom_site_label
  _atom_site_symmetry_multiplicity
  _atom_site_fract_x
  _atom_site_fract_y
  _atom_site_fract_z
  _atom_site_occupancy
  Ba  Ba1       1.0  0.38100  0.38100  0.38100  1.0000
  Ba  Ba2       1.0  0.62500  0.62500  0.62500  1.0000
  Ba  Ba3       1.0  0.87000  0.87000  0.87000  1.0000
  Cr  Cr1       1.0  0.24500  0.24500  0.24500  1.0000
  Cr  Cr2       1.0  0.74800  0.74800  0.74800  1.0000
  Hg  Hg1       1.0  0.00416  0.00416  0.00416  1.0000
  Hg  Hg2       1.0  0.50200  0.50200  0.50200  1.0000
