data_image0
_chemical_formula_structural       Cd2Mo2Sr3
_chemical_formula_sum              "Cd2 Mo2 Sr3"
_cell_length_a       9.08493
_cell_length_b       9.08493
_cell_length_c       9.08493
_cell_angle_alpha    33.9039
_cell_angle_beta     33.9039
_cell_angle_gamma    33.9039

_space_group_name_H-M_alt    "P 1"
_space_group_IT_number       1

loop_
  _space_group_symop_operation_xyz
  'x, y, z'

loop_
  _atom_site_type_symbol
  _atom_site_label
  _atom_site_symmetry_multiplicity
  _atom_site_fract_x
  _atom_site_fract_y
  _atom_site_fract_z
  _atom_site_occupancy
  Cd  Cd1       1.0  0.18500  0.18500  0.18500  1.0000
  Cd  Cd2       1.0  0.76200  0.76200  0.76200  1.0000
  Mo  Mo1       1.0  0.04820  0.04820  0.04820  1.0000
  Mo  Mo2       1.0  0.49500  0.49500  0.49500  1.0000
  Sr  Sr1       1.0  0.38100  0.38100  0.38100  1.0000
  Sr  Sr2       1.0  0.63000  0.63000  0.63000  1.0000
  Sr  Sr3       1.0  0.87300  0.87300  0.87300  1.0000
