data_image0
_chemical_formula_structural       Ba3Hg2W2
_chemical_formula_sum              "Ba3 Hg2 W2"
_cell_length_a       9.80003
_cell_length_b       9.80003
_cell_length_c       9.80003
_cell_angle_alpha    33.3948
_cell_angle_beta     33.3948
_cell_angle_gamma    33.3948

_space_group_name_H-M_alt    "P 1"
_space_group_IT_number       1

loop_
  _space_group_symop_operation_xyz
  'x, y, z'

loop_
  _atom_site_type_symbol
  _atom_site_label
  _atom_site_symmetry_multiplicity
  _atom_site_fract_x
  _atom_site_fract_y
  _atom_site_fract_z
  _atom_site_occupancy
  Ba  Ba1       1.0  0.38700  0.38700  0.38700  1.0000
  Ba  Ba2       1.0  0.62500  0.62500  0.62500  1.0000
  Ba  Ba3       1.0  0.86800  0.86800  0.86800  1.0000
  Hg  Hg1       1.0  0.22000  0.22000  0.22000  1.0000
  Hg  Hg2       1.0  0.74800  0.74800  0.74800  1.0000
  W   W1        1.0  0.01840  0.01840  0.01840  1.0000
  W   W2        1.0  0.50700  0.50700  0.50700  1.0000
