data_image0
_chemical_formula_structural       Ba3Hg2Mo2
_chemical_formula_sum              "Ba3 Hg2 Mo2"
_cell_length_a       9.91552
_cell_length_b       9.91552
_cell_length_c       9.91552
_cell_angle_alpha    33.1431
_cell_angle_beta     33.1431
_cell_angle_gamma    33.1431

_space_group_name_H-M_alt    "P 1"
_space_group_IT_number       1

loop_
  _space_group_symop_operation_xyz
  'x, y, z'

loop_
  _atom_site_type_symbol
  _atom_site_label
  _atom_site_symmetry_multiplicity
  _atom_site_fract_x
  _atom_site_fract_y
  _atom_site_fract_z
  _atom_site_occupancy
  Ba  Ba1       1.0  0.39100  0.39100  0.39100  1.0000
  Ba  Ba2       1.0  0.62400  0.62400  0.62400  1.0000
  Ba  Ba3       1.0  0.86200  0.86200  0.86200  1.0000
  Hg  Hg1       1.0  0.22200  0.22200  0.22200  1.0000
  Hg  Hg2       1.0  0.74300  0.74300  0.74300  1.0000
  Mo  Mo1       1.0  0.02280  0.02280  0.02280  1.0000
  Mo  Mo2       1.0  0.50900  0.50900  0.50900  1.0000
