data_image0
_chemical_formula_structural       Cr2Hg2Mg3
_chemical_formula_sum              "Cr2 Hg2 Mg3"
_cell_length_a       7.64065
_cell_length_b       7.64065
_cell_length_c       7.64065
_cell_angle_alpha    35.921
_cell_angle_beta     35.921
_cell_angle_gamma    35.921

_space_group_name_H-M_alt    "P 1"
_space_group_IT_number       1

loop_
  _space_group_symop_operation_xyz
  'x, y, z'

loop_
  _atom_site_type_symbol
  _atom_site_label
  _atom_site_symmetry_multiplicity
  _atom_site_fract_x
  _atom_site_fract_y
  _atom_site_fract_z
  _atom_site_occupancy
  Cr  Cr1       1.0  0.17300  0.17300  0.17300  1.0000
  Cr  Cr2       1.0  0.76600  0.76600  0.76600  1.0000
  Hg  Hg1       1.0  0.03490  0.03490  0.03490  1.0000
  Hg  Hg2       1.0  0.50200  0.50200  0.50200  1.0000
  Mg  Mg1       1.0  0.36700  0.36700  0.36700  1.0000
  Mg  Mg2       1.0  0.63200  0.63200  0.63200  1.0000
  Mg  Mg3       1.0  0.89800  0.89800  0.89800  1.0000
