data_image0
_chemical_formula_structural       Be3Hg2Mo2
_chemical_formula_sum              "Be3 Hg2 Mo2"
_cell_length_a       7.16084
_cell_length_b       7.16084
_cell_length_c       7.16084
_cell_angle_alpha    33.6356
_cell_angle_beta     33.6356
_cell_angle_gamma    33.6356

_space_group_name_H-M_alt    "P 1"
_space_group_IT_number       1

loop_
  _space_group_symop_operation_xyz
  'x, y, z'

loop_
  _atom_site_type_symbol
  _atom_site_label
  _atom_site_symmetry_multiplicity
  _atom_site_fract_x
  _atom_site_fract_y
  _atom_site_fract_z
  _atom_site_occupancy
  Be  Be1       1.0  0.37600  0.37600  0.37600  1.0000
  Be  Be2       1.0  0.62500  0.62500  0.62500  1.0000
  Be  Be3       1.0  0.87400  0.87400  0.87400  1.0000
  Hg  Hg1       1.0  0.24700  0.24700  0.24700  1.0000
  Hg  Hg2       1.0  0.75300  0.75300  0.75300  1.0000
  Mo  Mo1       1.0  0.00250  0.00250  0.00250  1.0000
  Mo  Mo2       1.0  0.49800  0.49800  0.49800  1.0000
