data_image0
_chemical_formula_structural       Ba3Cd2Mo2
_chemical_formula_sum              "Ba3 Cd2 Mo2"
_cell_length_a       9.57424
_cell_length_b       9.57424
_cell_length_c       9.57424
_cell_angle_alpha    33.1425
_cell_angle_beta     33.1425
_cell_angle_gamma    33.1425

_space_group_name_H-M_alt    "P 1"
_space_group_IT_number       1

loop_
  _space_group_symop_operation_xyz
  'x, y, z'

loop_
  _atom_site_type_symbol
  _atom_site_label
  _atom_site_symmetry_multiplicity
  _atom_site_fract_x
  _atom_site_fract_y
  _atom_site_fract_z
  _atom_site_occupancy
  Ba  Ba1       1.0  0.38400  0.38400  0.38400  1.0000
  Ba  Ba2       1.0  0.62800  0.62800  0.62800  1.0000
  Ba  Ba3       1.0  0.87000  0.87000  0.87000  1.0000
  Cd  Cd1       1.0  0.18300  0.18300  0.18300  1.0000
  Cd  Cd2       1.0  0.74900  0.74900  0.74900  1.0000
  Mo  Mo1       1.0  0.05370  0.05370  0.05370  1.0000
  Mo  Mo2       1.0  0.50900  0.50900  0.50900  1.0000
