data_image0
_chemical_formula_structural       Be3Ni2Os2
_chemical_formula_sum              "Be3 Ni2 Os2"
_cell_length_a       6.39098
_cell_length_b       6.39098
_cell_length_c       6.39098
_cell_angle_alpha    34.5593
_cell_angle_beta     34.5593
_cell_angle_gamma    34.5593

_space_group_name_H-M_alt    "P 1"
_space_group_IT_number       1

loop_
  _space_group_symop_operation_xyz
  'x, y, z'

loop_
  _atom_site_type_symbol
  _atom_site_label
  _atom_site_symmetry_multiplicity
  _atom_site_fract_x
  _atom_site_fract_y
  _atom_site_fract_z
  _atom_site_occupancy
  Be  Be1       1.0  0.36900  0.36900  0.36900  1.0000
  Be  Be2       1.0  0.62200  0.62200  0.62200  1.0000
  Be  Be3       1.0  0.88000  0.88000  0.88000  1.0000
  Ni  Ni1       1.0  0.24700  0.24700  0.24700  1.0000
  Ni  Ni2       1.0  0.75600  0.75600  0.75600  1.0000
  Os  Os1       1.0  0.00892  0.00892  0.00892  1.0000
  Os  Os2       1.0  0.49200  0.49200  0.49200  1.0000
