data_image0
_chemical_formula_structural       Ag2Mg3Re2
_chemical_formula_sum              "Ag2 Mg3 Re2"
_cell_length_a       7.63591
_cell_length_b       7.63591
_cell_length_c       7.63591
_cell_angle_alpha    34.3578
_cell_angle_beta     34.3578
_cell_angle_gamma    34.3578

_space_group_name_H-M_alt    "P 1"
_space_group_IT_number       1

loop_
  _space_group_symop_operation_xyz
  'x, y, z'

loop_
  _atom_site_type_symbol
  _atom_site_label
  _atom_site_symmetry_multiplicity
  _atom_site_fract_x
  _atom_site_fract_y
  _atom_site_fract_z
  _atom_site_occupancy
  Ag  Ag1       1.0  0.00930  0.00930  0.00930  1.0000
  Ag  Ag2       1.0  0.49400  0.49400  0.49400  1.0000
  Mg  Mg1       1.0  0.37100  0.37100  0.37100  1.0000
  Mg  Mg2       1.0  0.62500  0.62500  0.62500  1.0000
  Mg  Mg3       1.0  0.88000  0.88000  0.88000  1.0000
  Re  Re1       1.0  0.24000  0.24000  0.24000  1.0000
  Re  Re2       1.0  0.75600  0.75600  0.75600  1.0000
