data_image0
_chemical_formula_structural       Be3Cr2Hg2
_chemical_formula_sum              "Be3 Cr2 Hg2"
_cell_length_a       7.10776
_cell_length_b       7.10776
_cell_length_c       7.10776
_cell_angle_alpha    33.5945
_cell_angle_beta     33.5945
_cell_angle_gamma    33.5945

_space_group_name_H-M_alt    "P 1"
_space_group_IT_number       1

loop_
  _space_group_symop_operation_xyz
  'x, y, z'

loop_
  _atom_site_type_symbol
  _atom_site_label
  _atom_site_symmetry_multiplicity
  _atom_site_fract_x
  _atom_site_fract_y
  _atom_site_fract_z
  _atom_site_occupancy
  Be  Be1       1.0  0.37300  0.37300  0.37300  1.0000
  Be  Be2       1.0  0.62500  0.62500  0.62500  1.0000
  Be  Be3       1.0  0.87800  0.87800  0.87800  1.0000
  Cr  Cr1       1.0  0.24500  0.24500  0.24500  1.0000
  Cr  Cr2       1.0  0.75400  0.75400  0.75400  1.0000
  Hg  Hg1       1.0  0.00357  0.00357  0.00357  1.0000
  Hg  Hg2       1.0  0.49800  0.49800  0.49800  1.0000
