data_image0
_chemical_formula_structural       Mg3Os2Pd2
_chemical_formula_sum              "Mg3 Os2 Pd2"
_cell_length_a       7.33559
_cell_length_b       7.33559
_cell_length_c       7.33559
_cell_angle_alpha    34.7363
_cell_angle_beta     34.7363
_cell_angle_gamma    34.7363

_space_group_name_H-M_alt    "P 1"
_space_group_IT_number       1

loop_
  _space_group_symop_operation_xyz
  'x, y, z'

loop_
  _atom_site_type_symbol
  _atom_site_label
  _atom_site_symmetry_multiplicity
  _atom_site_fract_x
  _atom_site_fract_y
  _atom_site_fract_z
  _atom_site_occupancy
  Mg  Mg1       1.0  0.37000  0.37000  0.37000  1.0000
  Mg  Mg2       1.0  0.62500  0.62500  0.62500  1.0000
  Mg  Mg3       1.0  0.88100  0.88100  0.88100  1.0000
  Os  Os1       1.0  0.23900  0.23900  0.23900  1.0000
  Os  Os2       1.0  0.75800  0.75800  0.75800  1.0000
  Pd  Pd1       1.0  0.01080  0.01080  0.01080  1.0000
  Pd  Pd2       1.0  0.49200  0.49200  0.49200  1.0000
