data_image0
_chemical_formula_structural       Ca3W2Zn2
_chemical_formula_sum              "Ca3 W2 Zn2"
_cell_length_a       8.76091
_cell_length_b       8.76091
_cell_length_c       8.76091
_cell_angle_alpha    34.4169
_cell_angle_beta     34.4169
_cell_angle_gamma    34.4169

_space_group_name_H-M_alt    "P 1"
_space_group_IT_number       1

loop_
  _space_group_symop_operation_xyz
  'x, y, z'

loop_
  _atom_site_type_symbol
  _atom_site_label
  _atom_site_symmetry_multiplicity
  _atom_site_fract_x
  _atom_site_fract_y
  _atom_site_fract_z
  _atom_site_occupancy
  Ca  Ca1       1.0  0.37500  0.37500  0.37500  1.0000
  Ca  Ca2       1.0  0.62500  0.62500  0.62500  1.0000
  Ca  Ca3       1.0  0.87600  0.87600  0.87600  1.0000
  W   W1        1.0  0.01670  0.01670  0.01670  1.0000
  W   W2        1.0  0.49900  0.49900  0.49900  1.0000
  Zn  Zn1       1.0  0.23300  0.23300  0.23300  1.0000
  Zn  Zn2       1.0  0.75100  0.75100  0.75100  1.0000
