data_image0
_chemical_formula_structural       Be3W2Zn2
_chemical_formula_sum              "Be3 W2 Zn2"
_cell_length_a       6.72435
_cell_length_b       6.72435
_cell_length_c       6.72435
_cell_angle_alpha    34.3916
_cell_angle_beta     34.3916
_cell_angle_gamma    34.3916

_space_group_name_H-M_alt    "P 1"
_space_group_IT_number       1

loop_
  _space_group_symop_operation_xyz
  'x, y, z'

loop_
  _atom_site_type_symbol
  _atom_site_label
  _atom_site_symmetry_multiplicity
  _atom_site_fract_x
  _atom_site_fract_y
  _atom_site_fract_z
  _atom_site_occupancy
  Be  Be1       1.0  0.36800  0.36800  0.36800  1.0000
  Be  Be2       1.0  0.61900  0.61900  0.61900  1.0000
  Be  Be3       1.0  0.88300  0.88300  0.88300  1.0000
  W   W1        1.0  0.01470  0.01470  0.01470  1.0000
  W   W2        1.0  0.49000  0.49000  0.49000  1.0000
  Zn  Zn1       1.0  0.24500  0.24500  0.24500  1.0000
  Zn  Zn2       1.0  0.75500  0.75500  0.75500  1.0000
