data_image0
_chemical_formula_structural       Ag2Mg3Mn2
_chemical_formula_sum              "Ag2 Mg3 Mn2"
_cell_length_a       7.77707
_cell_length_b       7.77707
_cell_length_c       7.77707
_cell_angle_alpha    34.1927
_cell_angle_beta     34.1927
_cell_angle_gamma    34.1927

_space_group_name_H-M_alt    "P 1"
_space_group_IT_number       1

loop_
  _space_group_symop_operation_xyz
  'x, y, z'

loop_
  _atom_site_type_symbol
  _atom_site_label
  _atom_site_symmetry_multiplicity
  _atom_site_fract_x
  _atom_site_fract_y
  _atom_site_fract_z
  _atom_site_occupancy
  Ag  Ag1       1.0  0.02750  0.02750  0.02750  1.0000
  Ag  Ag2       1.0  0.50900  0.50900  0.50900  1.0000
  Mg  Mg1       1.0  0.38300  0.38300  0.38300  1.0000
  Mg  Mg2       1.0  0.63700  0.63700  0.63700  1.0000
  Mg  Mg3       1.0  0.89600  0.89600  0.89600  1.0000
  Mn  Mn1       1.0  0.15500  0.15500  0.15500  1.0000
  Mn  Mn2       1.0  0.76800  0.76800  0.76800  1.0000
