data_image0
_chemical_formula_structural       Cd2Sr3W2
_chemical_formula_sum              "Cd2 Sr3 W2"
_cell_length_a       10.5114
_cell_length_b       10.5114
_cell_length_c       10.5114
_cell_angle_alpha    26.3618
_cell_angle_beta     26.3618
_cell_angle_gamma    26.3618

_space_group_name_H-M_alt    "P 1"
_space_group_IT_number       1

loop_
  _space_group_symop_operation_xyz
  'x, y, z'

loop_
  _atom_site_type_symbol
  _atom_site_label
  _atom_site_symmetry_multiplicity
  _atom_site_fract_x
  _atom_site_fract_y
  _atom_site_fract_z
  _atom_site_occupancy
  Cd  Cd1       1.0  0.21800  0.21800  0.21800  1.0000
  Cd  Cd2       1.0  0.75000  0.75000  0.75000  1.0000
  Sr  Sr1       1.0  0.36200  0.36200  0.36200  1.0000
  Sr  Sr2       1.0  0.61000  0.61000  0.61000  1.0000
  Sr  Sr3       1.0  0.85100  0.85100  0.85100  1.0000
  W   W1        1.0  0.11900  0.11900  0.11900  1.0000
  W   W2        1.0  0.46400  0.46400  0.46400  1.0000
