data_image0
_chemical_formula_structural       Ca3Cr2Hg2
_chemical_formula_sum              "Ca3 Cr2 Hg2"
_cell_length_a       8.885
_cell_length_b       8.885
_cell_length_c       8.885
_cell_angle_alpha    34.1303
_cell_angle_beta     34.1303
_cell_angle_gamma    34.1303

_space_group_name_H-M_alt    "P 1"
_space_group_IT_number       1

loop_
  _space_group_symop_operation_xyz
  'x, y, z'

loop_
  _atom_site_type_symbol
  _atom_site_label
  _atom_site_symmetry_multiplicity
  _atom_site_fract_x
  _atom_site_fract_y
  _atom_site_fract_z
  _atom_site_occupancy
  Ca  Ca1       1.0  0.37600  0.37600  0.37600  1.0000
  Ca  Ca2       1.0  0.62600  0.62600  0.62600  1.0000
  Ca  Ca3       1.0  0.87500  0.87500  0.87500  1.0000
  Cr  Cr1       1.0  0.24100  0.24100  0.24100  1.0000
  Cr  Cr2       1.0  0.75200  0.75200  0.75200  1.0000
  Hg  Hg1       1.0  0.00524  0.00524  0.00524  1.0000
  Hg  Hg2       1.0  0.50000  0.50000  0.50000  1.0000
