data_image0
_chemical_formula_structural       Cr2Sr3Zn2
_chemical_formula_sum              "Cr2 Sr3 Zn2"
_cell_length_a       9.32849
_cell_length_b       9.32849
_cell_length_c       9.32849
_cell_angle_alpha    34.0183
_cell_angle_beta     34.0183
_cell_angle_gamma    34.0183

_space_group_name_H-M_alt    "P 1"
_space_group_IT_number       1

loop_
  _space_group_symop_operation_xyz
  'x, y, z'

loop_
  _atom_site_type_symbol
  _atom_site_label
  _atom_site_symmetry_multiplicity
  _atom_site_fract_x
  _atom_site_fract_y
  _atom_site_fract_z
  _atom_site_occupancy
  Cr  Cr1       1.0  0.01010  0.01010  0.01010  1.0000
  Cr  Cr2       1.0  0.50000  0.50000  0.50000  1.0000
  Sr  Sr1       1.0  0.37800  0.37800  0.37800  1.0000
  Sr  Sr2       1.0  0.62400  0.62400  0.62400  1.0000
  Sr  Sr3       1.0  0.87000  0.87000  0.87000  1.0000
  Zn  Zn1       1.0  0.24600  0.24600  0.24600  1.0000
  Zn  Zn2       1.0  0.74600  0.74600  0.74600  1.0000
