data_image0
_chemical_formula_structural       Ba3Fe2Pd2
_chemical_formula_sum              "Ba3 Fe2 Pd2"
_cell_length_a       9.42234
_cell_length_b       9.42234
_cell_length_c       9.42234
_cell_angle_alpha    33.4859
_cell_angle_beta     33.4859
_cell_angle_gamma    33.4859

_space_group_name_H-M_alt    "P 1"
_space_group_IT_number       1

loop_
  _space_group_symop_operation_xyz
  'x, y, z'

loop_
  _atom_site_type_symbol
  _atom_site_label
  _atom_site_symmetry_multiplicity
  _atom_site_fract_x
  _atom_site_fract_y
  _atom_site_fract_z
  _atom_site_occupancy
  Ba  Ba1       1.0  0.39000  0.39000  0.39000  1.0000
  Ba  Ba2       1.0  0.62800  0.62800  0.62800  1.0000
  Ba  Ba3       1.0  0.86400  0.86400  0.86400  1.0000
  Fe  Fe1       1.0  0.23500  0.23500  0.23500  1.0000
  Fe  Fe2       1.0  0.74500  0.74500  0.74500  1.0000
  Pd  Pd1       1.0  0.00039  0.00039  0.00039  1.0000
  Pd  Pd2       1.0  0.51400  0.51400  0.51400  1.0000
