data_image0
_chemical_formula_structural       Mg3Pd2Ru2
_chemical_formula_sum              "Mg3 Pd2 Ru2"
_cell_length_a       7.37841
_cell_length_b       7.37841
_cell_length_c       7.37841
_cell_angle_alpha    34.4333
_cell_angle_beta     34.4333
_cell_angle_gamma    34.4333

_space_group_name_H-M_alt    "P 1"
_space_group_IT_number       1

loop_
  _space_group_symop_operation_xyz
  'x, y, z'

loop_
  _atom_site_type_symbol
  _atom_site_label
  _atom_site_symmetry_multiplicity
  _atom_site_fract_x
  _atom_site_fract_y
  _atom_site_fract_z
  _atom_site_occupancy
  Mg  Mg1       1.0  0.37300  0.37300  0.37300  1.0000
  Mg  Mg2       1.0  0.62500  0.62500  0.62500  1.0000
  Mg  Mg3       1.0  0.87700  0.87700  0.87700  1.0000
  Pd  Pd1       1.0  0.00688  0.00688  0.00688  1.0000
  Pd  Pd2       1.0  0.49600  0.49600  0.49600  1.0000
  Ru  Ru1       1.0  0.24200  0.24200  0.24200  1.0000
  Ru  Ru2       1.0  0.75500  0.75500  0.75500  1.0000
