data_image0
_chemical_formula_structural       Mg3Ni2Os2
_chemical_formula_sum              "Mg3 Ni2 Os2"
_cell_length_a       7.48494
_cell_length_b       7.48494
_cell_length_c       7.48494
_cell_angle_alpha    33.0493
_cell_angle_beta     33.0493
_cell_angle_gamma    33.0493

_space_group_name_H-M_alt    "P 1"
_space_group_IT_number       1

loop_
  _space_group_symop_operation_xyz
  'x, y, z'

loop_
  _atom_site_type_symbol
  _atom_site_label
  _atom_site_symmetry_multiplicity
  _atom_site_fract_x
  _atom_site_fract_y
  _atom_site_fract_z
  _atom_site_occupancy
  Mg  Mg1       1.0  0.34900  0.34900  0.34900  1.0000
  Mg  Mg2       1.0  0.61000  0.61000  0.61000  1.0000
  Mg  Mg3       1.0  0.86800  0.86800  0.86800  1.0000
  Ni  Ni1       1.0  0.22200  0.22200  0.22200  1.0000
  Ni  Ni2       1.0  0.74300  0.74300  0.74300  1.0000
  Os  Os1       1.0  0.10800  0.10800  0.10800  1.0000
  Os  Os2       1.0  0.47500  0.47500  0.47500  1.0000
