data_image0
_chemical_formula_structural       Be3Cd2W2
_chemical_formula_sum              "Be3 Cd2 W2"
_cell_length_a       7.09315
_cell_length_b       7.09315
_cell_length_c       7.09315
_cell_angle_alpha    33.9613
_cell_angle_beta     33.9613
_cell_angle_gamma    33.9613

_space_group_name_H-M_alt    "P 1"
_space_group_IT_number       1

loop_
  _space_group_symop_operation_xyz
  'x, y, z'

loop_
  _atom_site_type_symbol
  _atom_site_label
  _atom_site_symmetry_multiplicity
  _atom_site_fract_x
  _atom_site_fract_y
  _atom_site_fract_z
  _atom_site_occupancy
  Be  Be1       1.0  0.37400  0.37400  0.37400  1.0000
  Be  Be2       1.0  0.62500  0.62500  0.62500  1.0000
  Be  Be3       1.0  0.87700  0.87700  0.87700  1.0000
  Cd  Cd1       1.0  0.24600  0.24600  0.24600  1.0000
  Cd  Cd2       1.0  0.75400  0.75400  0.75400  1.0000
  W   W1        1.0  0.00394  0.00394  0.00394  1.0000
  W   W2        1.0  0.49600  0.49600  0.49600  1.0000
