data_image0
_chemical_formula_structural       Be3Cr2Zn2
_chemical_formula_sum              "Be3 Cr2 Zn2"
_cell_length_a       6.68358
_cell_length_b       6.68358
_cell_length_c       6.68358
_cell_angle_alpha    33.7467
_cell_angle_beta     33.7467
_cell_angle_gamma    33.7467

_space_group_name_H-M_alt    "P 1"
_space_group_IT_number       1

loop_
  _space_group_symop_operation_xyz
  'x, y, z'

loop_
  _atom_site_type_symbol
  _atom_site_label
  _atom_site_symmetry_multiplicity
  _atom_site_fract_x
  _atom_site_fract_y
  _atom_site_fract_z
  _atom_site_occupancy
  Be  Be1       1.0  0.37000  0.37000  0.37000  1.0000
  Be  Be2       1.0  0.62300  0.62300  0.62300  1.0000
  Be  Be3       1.0  0.88000  0.88000  0.88000  1.0000
  Cr  Cr1       1.0  0.00852  0.00852  0.00852  1.0000
  Cr  Cr2       1.0  0.49400  0.49400  0.49400  1.0000
  Zn  Zn1       1.0  0.24600  0.24600  0.24600  1.0000
  Zn  Zn2       1.0  0.75300  0.75300  0.75300  1.0000
