data_image0
_chemical_formula_structural       Cd2Cr2Mg3
_chemical_formula_sum              "Cd2 Cr2 Mg3"
_cell_length_a       7.40032
_cell_length_b       7.40032
_cell_length_c       7.40032
_cell_angle_alpha    37.7789
_cell_angle_beta     37.7789
_cell_angle_gamma    37.7789

_space_group_name_H-M_alt    "P 1"
_space_group_IT_number       1

loop_
  _space_group_symop_operation_xyz
  'x, y, z'

loop_
  _atom_site_type_symbol
  _atom_site_label
  _atom_site_symmetry_multiplicity
  _atom_site_fract_x
  _atom_site_fract_y
  _atom_site_fract_z
  _atom_site_occupancy
  Cd  Cd1       1.0  0.05600  0.05600  0.05600  1.0000
  Cd  Cd2       1.0  0.48500  0.48500  0.48500  1.0000
  Cr  Cr1       1.0  0.19800  0.19800  0.19800  1.0000
  Cr  Cr2       1.0  0.76500  0.76500  0.76500  1.0000
  Mg  Mg1       1.0  0.34300  0.34300  0.34300  1.0000
  Mg  Mg2       1.0  0.62300  0.62300  0.62300  1.0000
  Mg  Mg3       1.0  0.90400  0.90400  0.90400  1.0000
