data_image0
_chemical_formula_structural       Be3Cd2Mo2
_chemical_formula_sum              "Be3 Cd2 Mo2"
_cell_length_a       7.13248
_cell_length_b       7.13248
_cell_length_c       7.13248
_cell_angle_alpha    33.6841
_cell_angle_beta     33.6841
_cell_angle_gamma    33.6841

_space_group_name_H-M_alt    "P 1"
_space_group_IT_number       1

loop_
  _space_group_symop_operation_xyz
  'x, y, z'

loop_
  _atom_site_type_symbol
  _atom_site_label
  _atom_site_symmetry_multiplicity
  _atom_site_fract_x
  _atom_site_fract_y
  _atom_site_fract_z
  _atom_site_occupancy
  Be  Be1       1.0  0.37500  0.37500  0.37500  1.0000
  Be  Be2       1.0  0.62500  0.62500  0.62500  1.0000
  Be  Be3       1.0  0.87600  0.87600  0.87600  1.0000
  Cd  Cd1       1.0  0.24600  0.24600  0.24600  1.0000
  Cd  Cd2       1.0  0.75300  0.75300  0.75300  1.0000
  Mo  Mo1       1.0  0.00322  0.00322  0.00322  1.0000
  Mo  Mo2       1.0  0.49700  0.49700  0.49700  1.0000
