data_image0
_chemical_formula_structural       Mg3Ni2Ru2
_chemical_formula_sum              "Mg3 Ni2 Ru2"
_cell_length_a       6.70898
_cell_length_b       6.70898
_cell_length_c       6.70898
_cell_angle_alpha    37.7935
_cell_angle_beta     37.7935
_cell_angle_gamma    37.7935

_space_group_name_H-M_alt    "P 1"
_space_group_IT_number       1

loop_
  _space_group_symop_operation_xyz
  'x, y, z'

loop_
  _atom_site_type_symbol
  _atom_site_label
  _atom_site_symmetry_multiplicity
  _atom_site_fract_x
  _atom_site_fract_y
  _atom_site_fract_z
  _atom_site_occupancy
  Mg  Mg1       1.0  0.34500  0.34500  0.34500  1.0000
  Mg  Mg2       1.0  0.62500  0.62500  0.62500  1.0000
  Mg  Mg3       1.0  0.89700  0.89700  0.89700  1.0000
  Ni  Ni1       1.0  0.19900  0.19900  0.19900  1.0000
  Ni  Ni2       1.0  0.76100  0.76100  0.76100  1.0000
  Ru  Ru1       1.0  0.06690  0.06690  0.06690  1.0000
  Ru  Ru2       1.0  0.48100  0.48100  0.48100  1.0000
