data_image0
_chemical_formula_structural       Be3Os2Pd2
_chemical_formula_sum              "Be3 Os2 Pd2"
_cell_length_a       6.71148
_cell_length_b       6.71148
_cell_length_c       6.71148
_cell_angle_alpha    34.1372
_cell_angle_beta     34.1372
_cell_angle_gamma    34.1372

_space_group_name_H-M_alt    "P 1"
_space_group_IT_number       1

loop_
  _space_group_symop_operation_xyz
  'x, y, z'

loop_
  _atom_site_type_symbol
  _atom_site_label
  _atom_site_symmetry_multiplicity
  _atom_site_fract_x
  _atom_site_fract_y
  _atom_site_fract_z
  _atom_site_occupancy
  Be  Be1       1.0  0.37300  0.37300  0.37300  1.0000
  Be  Be2       1.0  0.62500  0.62500  0.62500  1.0000
  Be  Be3       1.0  0.87700  0.87700  0.87700  1.0000
  Os  Os1       1.0  0.24700  0.24700  0.24700  1.0000
  Os  Os2       1.0  0.75300  0.75300  0.75300  1.0000
  Pd  Pd1       1.0  0.00308  0.00308  0.00308  1.0000
  Pd  Pd2       1.0  0.49600  0.49600  0.49600  1.0000
