data_image0
_chemical_formula_structural       Cr2Mg3Zn2
_chemical_formula_sum              "Cr2 Mg3 Zn2"
_cell_length_a       7.1523
_cell_length_b       7.1523
_cell_length_c       7.1523
_cell_angle_alpha    37.3093
_cell_angle_beta     37.3093
_cell_angle_gamma    37.3093

_space_group_name_H-M_alt    "P 1"
_space_group_IT_number       1

loop_
  _space_group_symop_operation_xyz
  'x, y, z'

loop_
  _atom_site_type_symbol
  _atom_site_label
  _atom_site_symmetry_multiplicity
  _atom_site_fract_x
  _atom_site_fract_y
  _atom_site_fract_z
  _atom_site_occupancy
  Cr  Cr1       1.0  0.05850  0.05850  0.05850  1.0000
  Cr  Cr2       1.0  0.48500  0.48500  0.48500  1.0000
  Mg  Mg1       1.0  0.34600  0.34600  0.34600  1.0000
  Mg  Mg2       1.0  0.62800  0.62800  0.62800  1.0000
  Mg  Mg3       1.0  0.90100  0.90100  0.90100  1.0000
  Zn  Zn1       1.0  0.19200  0.19200  0.19200  1.0000
  Zn  Zn2       1.0  0.76400  0.76400  0.76400  1.0000
