data_image0
_chemical_formula_structural       Be3Mo2Zn2
_chemical_formula_sum              "Be3 Mo2 Zn2"
_cell_length_a       6.78269
_cell_length_b       6.78269
_cell_length_c       6.78269
_cell_angle_alpha    33.8733
_cell_angle_beta     33.8733
_cell_angle_gamma    33.8733

_space_group_name_H-M_alt    "P 1"
_space_group_IT_number       1

loop_
  _space_group_symop_operation_xyz
  'x, y, z'

loop_
  _atom_site_type_symbol
  _atom_site_label
  _atom_site_symmetry_multiplicity
  _atom_site_fract_x
  _atom_site_fract_y
  _atom_site_fract_z
  _atom_site_occupancy
  Be  Be1       1.0  0.37300  0.37300  0.37300  1.0000
  Be  Be2       1.0  0.62300  0.62300  0.62300  1.0000
  Be  Be3       1.0  0.87800  0.87800  0.87800  1.0000
  Mo  Mo1       1.0  0.00732  0.00732  0.00732  1.0000
  Mo  Mo2       1.0  0.49400  0.49400  0.49400  1.0000
  Zn  Zn1       1.0  0.24600  0.24600  0.24600  1.0000
  Zn  Zn2       1.0  0.75300  0.75300  0.75300  1.0000
