data_image0
_chemical_formula_structural       Cu2Mg3Re2
_chemical_formula_sum              "Cu2 Mg3 Re2"
_cell_length_a       7.76162
_cell_length_b       7.76162
_cell_length_c       7.76162
_cell_angle_alpha    32.1182
_cell_angle_beta     32.1182
_cell_angle_gamma    32.1182

_space_group_name_H-M_alt    "P 1"
_space_group_IT_number       1

loop_
  _space_group_symop_operation_xyz
  'x, y, z'

loop_
  _atom_site_type_symbol
  _atom_site_label
  _atom_site_symmetry_multiplicity
  _atom_site_fract_x
  _atom_site_fract_y
  _atom_site_fract_z
  _atom_site_occupancy
  Cu  Cu1       1.0  0.02320  0.02320  0.02320  1.0000
  Cu  Cu2       1.0  0.51100  0.51100  0.51100  1.0000
  Mg  Mg1       1.0  0.38800  0.38800  0.38800  1.0000
  Mg  Mg2       1.0  0.64000  0.64000  0.64000  1.0000
  Mg  Mg3       1.0  0.89900  0.89900  0.89900  1.0000
  Re  Re1       1.0  0.13800  0.13800  0.13800  1.0000
  Re  Re2       1.0  0.77700  0.77700  0.77700  1.0000
