data_image0
_chemical_formula_structural       Hg2Mo2Sr3
_chemical_formula_sum              "Hg2 Mo2 Sr3"
_cell_length_a       9.58759
_cell_length_b       9.58759
_cell_length_c       9.58759
_cell_angle_alpha    29.6508
_cell_angle_beta     29.6508
_cell_angle_gamma    29.6508

_space_group_name_H-M_alt    "P 1"
_space_group_IT_number       1

loop_
  _space_group_symop_operation_xyz
  'x, y, z'

loop_
  _atom_site_type_symbol
  _atom_site_label
  _atom_site_symmetry_multiplicity
  _atom_site_fract_x
  _atom_site_fract_y
  _atom_site_fract_z
  _atom_site_occupancy
  Hg  Hg1       1.0  0.22200  0.22200  0.22200  1.0000
  Hg  Hg2       1.0  0.74300  0.74300  0.74300  1.0000
  Mo  Mo1       1.0  0.11800  0.11800  0.11800  1.0000
  Mo  Mo2       1.0  0.46800  0.46800  0.46800  1.0000
  Sr  Sr1       1.0  0.35900  0.35900  0.35900  1.0000
  Sr  Sr2       1.0  0.61200  0.61200  0.61200  1.0000
  Sr  Sr3       1.0  0.85400  0.85400  0.85400  1.0000
