data_image0
_chemical_formula_structural       Ca3Pd2Ru2
_chemical_formula_sum              "Ca3 Pd2 Ru2"
_cell_length_a       8.15147
_cell_length_b       8.15147
_cell_length_c       8.15147
_cell_angle_alpha    33.856
_cell_angle_beta     33.856
_cell_angle_gamma    33.856

_space_group_name_H-M_alt    "P 1"
_space_group_IT_number       1

loop_
  _space_group_symop_operation_xyz
  'x, y, z'

loop_
  _atom_site_type_symbol
  _atom_site_label
  _atom_site_symmetry_multiplicity
  _atom_site_fract_x
  _atom_site_fract_y
  _atom_site_fract_z
  _atom_site_occupancy
  Ca  Ca1       1.0  0.37900  0.37900  0.37900  1.0000
  Ca  Ca2       1.0  0.62500  0.62500  0.62500  1.0000
  Ca  Ca3       1.0  0.87200  0.87200  0.87200  1.0000
  Pd  Pd1       1.0  0.00747  0.00747  0.00747  1.0000
  Pd  Pd2       1.0  0.49800  0.49800  0.49800  1.0000
  Ru  Ru1       1.0  0.24100  0.24100  0.24100  1.0000
  Ru  Ru2       1.0  0.75300  0.75300  0.75300  1.0000
