data_image0
_chemical_formula_structural       Mg3Pt2Ru2
_chemical_formula_sum              "Mg3 Pt2 Ru2"
_cell_length_a       7.36415
_cell_length_b       7.36415
_cell_length_c       7.36415
_cell_angle_alpha    34.3423
_cell_angle_beta     34.3423
_cell_angle_gamma    34.3423

_space_group_name_H-M_alt    "P 1"
_space_group_IT_number       1

loop_
  _space_group_symop_operation_xyz
  'x, y, z'

loop_
  _atom_site_type_symbol
  _atom_site_label
  _atom_site_symmetry_multiplicity
  _atom_site_fract_x
  _atom_site_fract_y
  _atom_site_fract_z
  _atom_site_occupancy
  Mg  Mg1       1.0  0.37200  0.37200  0.37200  1.0000
  Mg  Mg2       1.0  0.62600  0.62600  0.62600  1.0000
  Mg  Mg3       1.0  0.87800  0.87800  0.87800  1.0000
  Pt  Pt1       1.0  0.00654  0.00654  0.00654  1.0000
  Pt  Pt2       1.0  0.49600  0.49600  0.49600  1.0000
  Ru  Ru1       1.0  0.24000  0.24000  0.24000  1.0000
  Ru  Ru2       1.0  0.75700  0.75700  0.75700  1.0000
