data_image0
_chemical_formula_structural       Fe2Mg3Ni2
_chemical_formula_sum              "Fe2 Mg3 Ni2"
_cell_length_a       6.99213
_cell_length_b       6.99213
_cell_length_c       6.99213
_cell_angle_alpha    35.2654
_cell_angle_beta     35.2654
_cell_angle_gamma    35.2654

_space_group_name_H-M_alt    "P 1"
_space_group_IT_number       1

loop_
  _space_group_symop_operation_xyz
  'x, y, z'

loop_
  _atom_site_type_symbol
  _atom_site_label
  _atom_site_symmetry_multiplicity
  _atom_site_fract_x
  _atom_site_fract_y
  _atom_site_fract_z
  _atom_site_occupancy
  Fe  Fe1       1.0  0.15300  0.15300  0.15300  1.0000
  Fe  Fe2       1.0  0.77200  0.77200  0.77200  1.0000
  Mg  Mg1       1.0  0.37700  0.37700  0.37700  1.0000
  Mg  Mg2       1.0  0.63600  0.63600  0.63600  1.0000
  Mg  Mg3       1.0  0.90000  0.90000  0.90000  1.0000
  Ni  Ni1       1.0  0.03380  0.03380  0.03380  1.0000
  Ni  Ni2       1.0  0.50300  0.50300  0.50300  1.0000
