data_image0
_chemical_formula_structural       Hg2La2Ti3
_chemical_formula_sum              "Hg2 La2 Ti3"
_cell_length_a       8.4419
_cell_length_b       8.4419
_cell_length_c       8.4419
_cell_angle_alpha    34.2592
_cell_angle_beta     34.2592
_cell_angle_gamma    34.2592

_space_group_name_H-M_alt    "P 1"
_space_group_IT_number       1

loop_
  _space_group_symop_operation_xyz
  'x, y, z'

loop_
  _atom_site_type_symbol
  _atom_site_label
  _atom_site_symmetry_multiplicity
  _atom_site_fract_x
  _atom_site_fract_y
  _atom_site_fract_z
  _atom_site_occupancy
  Hg  Hg1       1.0  0.04240  0.04240  0.04240  1.0000
  Hg  Hg2       1.0  0.49200  0.49200  0.49200  1.0000
  La  La1       1.0  0.20400  0.20400  0.20400  1.0000
  La  La2       1.0  0.76000  0.76000  0.76000  1.0000
  Ti  Ti1       1.0  0.32700  0.32700  0.32700  1.0000
  Ti  Ti2       1.0  0.61700  0.61700  0.61700  1.0000
  Ti  Ti3       1.0  0.93200  0.93200  0.93200  1.0000
