data_image0
_chemical_formula_structural       Ga2Hg2Ti3
_chemical_formula_sum              "Ga2 Hg2 Ti3"
_cell_length_a       7.81973
_cell_length_b       7.81973
_cell_length_c       7.81973
_cell_angle_alpha    33.9047
_cell_angle_beta     33.9047
_cell_angle_gamma    33.9047

_space_group_name_H-M_alt    "P 1"
_space_group_IT_number       1

loop_
  _space_group_symop_operation_xyz
  'x, y, z'

loop_
  _atom_site_type_symbol
  _atom_site_label
  _atom_site_symmetry_multiplicity
  _atom_site_fract_x
  _atom_site_fract_y
  _atom_site_fract_z
  _atom_site_occupancy
  Ga  Ga1       1.0  0.24400  0.24400  0.24400  1.0000
  Ga  Ga2       1.0  0.75400  0.75400  0.75400  1.0000
  Hg  Hg1       1.0  0.01520  0.01520  0.01520  1.0000
  Hg  Hg2       1.0  0.49200  0.49200  0.49200  1.0000
  Ti  Ti1       1.0  0.36700  0.36700  0.36700  1.0000
  Ti  Ti2       1.0  0.62300  0.62300  0.62300  1.0000
  Ti  Ti3       1.0  0.88000  0.88000  0.88000  1.0000
