data_image0
_chemical_formula_structural       Hg2Ti3Y2
_chemical_formula_sum              "Hg2 Ti3 Y2"
_cell_length_a       8.12935
_cell_length_b       8.12935
_cell_length_c       8.12935
_cell_angle_alpha    34.7724
_cell_angle_beta     34.7724
_cell_angle_gamma    34.7724

_space_group_name_H-M_alt    "P 1"
_space_group_IT_number       1

loop_
  _space_group_symop_operation_xyz
  'x, y, z'

loop_
  _atom_site_type_symbol
  _atom_site_label
  _atom_site_symmetry_multiplicity
  _atom_site_fract_x
  _atom_site_fract_y
  _atom_site_fract_z
  _atom_site_occupancy
  Hg  Hg1       1.0  0.04750  0.04750  0.04750  1.0000
  Hg  Hg2       1.0  0.48800  0.48800  0.48800  1.0000
  Ti  Ti1       1.0  0.33000  0.33000  0.33000  1.0000
  Ti  Ti2       1.0  0.61500  0.61500  0.61500  1.0000
  Ti  Ti3       1.0  0.93100  0.93100  0.93100  1.0000
  Y   Y1        1.0  0.20100  0.20100  0.20100  1.0000
  Y   Y2        1.0  0.76200  0.76200  0.76200  1.0000
