data_image0
_chemical_formula_structural       Cd2Sc2Ti3
_chemical_formula_sum              "Cd2 Sc2 Ti3"
_cell_length_a       7.64061
_cell_length_b       7.64061
_cell_length_c       7.64061
_cell_angle_alpha    36.097
_cell_angle_beta     36.097
_cell_angle_gamma    36.097

_space_group_name_H-M_alt    "P 1"
_space_group_IT_number       1

loop_
  _space_group_symop_operation_xyz
  'x, y, z'

loop_
  _atom_site_type_symbol
  _atom_site_label
  _atom_site_symmetry_multiplicity
  _atom_site_fract_x
  _atom_site_fract_y
  _atom_site_fract_z
  _atom_site_occupancy
  Cd  Cd1       1.0  0.05630  0.05630  0.05630  1.0000
  Cd  Cd2       1.0  0.47900  0.47900  0.47900  1.0000
  Sc  Sc1       1.0  0.20200  0.20200  0.20200  1.0000
  Sc  Sc2       1.0  0.76300  0.76300  0.76300  1.0000
  Ti  Ti1       1.0  0.33200  0.33200  0.33200  1.0000
  Ti  Ti2       1.0  0.61300  0.61300  0.61300  1.0000
  Ti  Ti3       1.0  0.92900  0.92900  0.92900  1.0000
