data_image0
_chemical_formula_structural       Ca3Pt2Ru2
_chemical_formula_sum              "Ca3 Pt2 Ru2"
_cell_length_a       8.11683
_cell_length_b       8.11683
_cell_length_c       8.11683
_cell_angle_alpha    33.7731
_cell_angle_beta     33.7731
_cell_angle_gamma    33.7731

_space_group_name_H-M_alt    "P 1"
_space_group_IT_number       1

loop_
  _space_group_symop_operation_xyz
  'x, y, z'

loop_
  _atom_site_type_symbol
  _atom_site_label
  _atom_site_symmetry_multiplicity
  _atom_site_fract_x
  _atom_site_fract_y
  _atom_site_fract_z
  _atom_site_occupancy
  Ca  Ca1       1.0  0.37700  0.37700  0.37700  1.0000
  Ca  Ca2       1.0  0.62500  0.62500  0.62500  1.0000
  Ca  Ca3       1.0  0.87500  0.87500  0.87500  1.0000
  Pt  Pt1       1.0  0.00478  0.00478  0.00478  1.0000
  Pt  Pt2       1.0  0.49700  0.49700  0.49700  1.0000
  Ru  Ru1       1.0  0.23900  0.23900  0.23900  1.0000
  Ru  Ru2       1.0  0.75800  0.75800  0.75800  1.0000
