data_image0
_chemical_formula_structural       Ag2Ca3Mn2
_chemical_formula_sum              "Ag2 Ca3 Mn2"
_cell_length_a       8.91327
_cell_length_b       8.91327
_cell_length_c       8.91327
_cell_angle_alpha    33.5687
_cell_angle_beta     33.5687
_cell_angle_gamma    33.5687

_space_group_name_H-M_alt    "P 1"
_space_group_IT_number       1

loop_
  _space_group_symop_operation_xyz
  'x, y, z'

loop_
  _atom_site_type_symbol
  _atom_site_label
  _atom_site_symmetry_multiplicity
  _atom_site_fract_x
  _atom_site_fract_y
  _atom_site_fract_z
  _atom_site_occupancy
  Ag  Ag1       1.0  0.00528  0.00528  0.00528  1.0000
  Ag  Ag2       1.0  0.49900  0.49900  0.49900  1.0000
  Ca  Ca1       1.0  0.37900  0.37900  0.37900  1.0000
  Ca  Ca2       1.0  0.62500  0.62500  0.62500  1.0000
  Ca  Ca3       1.0  0.87300  0.87300  0.87300  1.0000
  Mn  Mn1       1.0  0.24000  0.24000  0.24000  1.0000
  Mn  Mn2       1.0  0.75400  0.75400  0.75400  1.0000
