data_image0
_chemical_formula_structural       EuGe3Ni
_chemical_formula_sum              "Eu1 Ge3 Ni1"
_cell_length_a       4.32374
_cell_length_b       4.32374
_cell_length_c       5.81178
_cell_angle_alpha    111.838
_cell_angle_beta     111.838
_cell_angle_gamma    90

_space_group_name_H-M_alt    "P 1"
_space_group_IT_number       1

loop_
  _space_group_symop_operation_xyz
  'x, y, z'

loop_
  _atom_site_type_symbol
  _atom_site_label
  _atom_site_symmetry_multiplicity
  _atom_site_fract_x
  _atom_site_fract_y
  _atom_site_fract_z
  _atom_site_occupancy
  Eu  Eu1       1.0  0.00928  0.00928  0.01860  1.0000
  Ge  Ge1       1.0  0.76400  0.26400  0.52800  1.0000
  Ge  Ge2       1.0  0.26400  0.76400  0.52800  1.0000
  Ge  Ge3       1.0  0.42900  0.42900  0.85900  1.0000
  Ni  Ni1       1.0  0.66300  0.66300  0.32700  1.0000
