data_image0
_chemical_formula_structural       Ca3Cu2Re2
_chemical_formula_sum              "Ca3 Cu2 Re2"
_cell_length_a       7.95397
_cell_length_b       7.95397
_cell_length_c       7.95397
_cell_angle_alpha    35.6389
_cell_angle_beta     35.6389
_cell_angle_gamma    35.6389

_space_group_name_H-M_alt    "P 1"
_space_group_IT_number       1

loop_
  _space_group_symop_operation_xyz
  'x, y, z'

loop_
  _atom_site_type_symbol
  _atom_site_label
  _atom_site_symmetry_multiplicity
  _atom_site_fract_x
  _atom_site_fract_y
  _atom_site_fract_z
  _atom_site_occupancy
  Ca  Ca1       1.0  0.37900  0.37900  0.37900  1.0000
  Ca  Ca2       1.0  0.62700  0.62700  0.62700  1.0000
  Ca  Ca3       1.0  0.87300  0.87300  0.87300  1.0000
  Cu  Cu1       1.0  0.04280  0.04280  0.04280  1.0000
  Cu  Cu2       1.0  0.50600  0.50600  0.50600  1.0000
  Re  Re1       1.0  0.19900  0.19900  0.19900  1.0000
  Re  Re2       1.0  0.74800  0.74800  0.74800  1.0000
