data_image0
_chemical_formula_structural       Pt2Ru2Sr3
_chemical_formula_sum              "Pt2 Ru2 Sr3"
_cell_length_a       8.90084
_cell_length_b       8.90084
_cell_length_c       8.90084
_cell_angle_alpha    33.8756
_cell_angle_beta     33.8756
_cell_angle_gamma    33.8756

_space_group_name_H-M_alt    "P 1"
_space_group_IT_number       1

loop_
  _space_group_symop_operation_xyz
  'x, y, z'

loop_
  _atom_site_type_symbol
  _atom_site_label
  _atom_site_symmetry_multiplicity
  _atom_site_fract_x
  _atom_site_fract_y
  _atom_site_fract_z
  _atom_site_occupancy
  Pt  Pt1       1.0  0.01880  0.01880  0.01880  1.0000
  Pt  Pt2       1.0  0.53000  0.53000  0.53000  1.0000
  Ru  Ru1       1.0  0.16600  0.16600  0.16600  1.0000
  Ru  Ru2       1.0  0.75600  0.75600  0.75600  1.0000
  Sr  Sr1       1.0  0.40200  0.40200  0.40200  1.0000
  Sr  Sr2       1.0  0.63200  0.63200  0.63200  1.0000
  Sr  Sr3       1.0  0.86900  0.86900  0.86900  1.0000
