data_image0
_chemical_formula_structural       Ag2Re2Sr3
_chemical_formula_sum              "Ag2 Re2 Sr3"
_cell_length_a       9.05405
_cell_length_b       9.05405
_cell_length_c       9.05405
_cell_angle_alpha    33.6737
_cell_angle_beta     33.6737
_cell_angle_gamma    33.6737

_space_group_name_H-M_alt    "P 1"
_space_group_IT_number       1

loop_
  _space_group_symop_operation_xyz
  'x, y, z'

loop_
  _atom_site_type_symbol
  _atom_site_label
  _atom_site_symmetry_multiplicity
  _atom_site_fract_x
  _atom_site_fract_y
  _atom_site_fract_z
  _atom_site_occupancy
  Ag  Ag1       1.0  0.00997  0.00997  0.00997  1.0000
  Ag  Ag2       1.0  0.49700  0.49700  0.49700  1.0000
  Re  Re1       1.0  0.24300  0.24300  0.24300  1.0000
  Re  Re2       1.0  0.75100  0.75100  0.75100  1.0000
  Sr  Sr1       1.0  0.37900  0.37900  0.37900  1.0000
  Sr  Sr2       1.0  0.62500  0.62500  0.62500  1.0000
  Sr  Sr3       1.0  0.87100  0.87100  0.87100  1.0000
