data_image0
_chemical_formula_structural       Be3Cu2Re2
_chemical_formula_sum              "Be3 Cu2 Re2"
_cell_length_a       6.46548
_cell_length_b       6.46548
_cell_length_c       6.46548
_cell_angle_alpha    34.8803
_cell_angle_beta     34.8803
_cell_angle_gamma    34.8803

_space_group_name_H-M_alt    "P 1"
_space_group_IT_number       1

loop_
  _space_group_symop_operation_xyz
  'x, y, z'

loop_
  _atom_site_type_symbol
  _atom_site_label
  _atom_site_symmetry_multiplicity
  _atom_site_fract_x
  _atom_site_fract_y
  _atom_site_fract_z
  _atom_site_occupancy
  Be  Be1       1.0  0.37100  0.37100  0.37100  1.0000
  Be  Be2       1.0  0.62700  0.62700  0.62700  1.0000
  Be  Be3       1.0  0.88100  0.88100  0.88100  1.0000
  Cu  Cu1       1.0  0.00289  0.00289  0.00289  1.0000
  Cu  Cu2       1.0  0.49600  0.49600  0.49600  1.0000
  Re  Re1       1.0  0.23900  0.23900  0.23900  1.0000
  Re  Re2       1.0  0.75800  0.75800  0.75800  1.0000
