data_image0
_chemical_formula_structural       Fe2P4
_chemical_formula_sum              "Fe2 P4"
_cell_length_a       4.95105
_cell_length_b       5.63207
_cell_length_c       2.71163
_cell_angle_alpha    90
_cell_angle_beta     90
_cell_angle_gamma    90

_space_group_name_H-M_alt    "P 1"
_space_group_IT_number       1

loop_
  _space_group_symop_operation_xyz
  'x, y, z'

loop_
  _atom_site_type_symbol
  _atom_site_label
  _atom_site_symmetry_multiplicity
  _atom_site_fract_x
  _atom_site_fract_y
  _atom_site_fract_z
  _atom_site_occupancy
  Fe  Fe1       1.0  0.00000  0.00000  0.00000  1.0000
  Fe  Fe2       1.0  0.50000  0.50000  0.50000  1.0000
  P   P1        1.0  0.17000  0.36800  0.00000  1.0000
  P   P2        1.0  0.83000  0.63200  0.00000  1.0000
  P   P3        1.0  0.67000  0.13200  0.50000  1.0000
  P   P4        1.0  0.33000  0.86800  0.50000  1.0000
