data_image0
_chemical_formula_structural       Cu2Mn2Sr3
_chemical_formula_sum              "Cu2 Mn2 Sr3"
_cell_length_a       9.02994
_cell_length_b       9.02994
_cell_length_c       9.02994
_cell_angle_alpha    33.8554
_cell_angle_beta     33.8554
_cell_angle_gamma    33.8554

_space_group_name_H-M_alt    "P 1"
_space_group_IT_number       1

loop_
  _space_group_symop_operation_xyz
  'x, y, z'

loop_
  _atom_site_type_symbol
  _atom_site_label
  _atom_site_symmetry_multiplicity
  _atom_site_fract_x
  _atom_site_fract_y
  _atom_site_fract_z
  _atom_site_occupancy
  Cu  Cu1       1.0  0.00352  0.00352  0.00352  1.0000
  Cu  Cu2       1.0  0.50800  0.50800  0.50800  1.0000
  Mn  Mn1       1.0  0.23200  0.23200  0.23200  1.0000
  Mn  Mn2       1.0  0.75100  0.75100  0.75100  1.0000
  Sr  Sr1       1.0  0.38500  0.38500  0.38500  1.0000
  Sr  Sr2       1.0  0.62700  0.62700  0.62700  1.0000
  Sr  Sr3       1.0  0.86900  0.86900  0.86900  1.0000
