data_image0
_chemical_formula_structural       Al2Cd2Ti3
_chemical_formula_sum              "Al2 Cd2 Ti3"
_cell_length_a       7.4224
_cell_length_b       7.4224
_cell_length_c       7.4224
_cell_angle_alpha    35.6814
_cell_angle_beta     35.6814
_cell_angle_gamma    35.6814

_space_group_name_H-M_alt    "P 1"
_space_group_IT_number       1

loop_
  _space_group_symop_operation_xyz
  'x, y, z'

loop_
  _atom_site_type_symbol
  _atom_site_label
  _atom_site_symmetry_multiplicity
  _atom_site_fract_x
  _atom_site_fract_y
  _atom_site_fract_z
  _atom_site_occupancy
  Al  Al1       1.0  0.21200  0.21200  0.21200  1.0000
  Al  Al2       1.0  0.76200  0.76200  0.76200  1.0000
  Cd  Cd1       1.0  0.04780  0.04780  0.04780  1.0000
  Cd  Cd2       1.0  0.48500  0.48500  0.48500  1.0000
  Ti  Ti1       1.0  0.33600  0.33600  0.33600  1.0000
  Ti  Ti2       1.0  0.62400  0.62400  0.62400  1.0000
  Ti  Ti3       1.0  0.91000  0.91000  0.91000  1.0000
