data_image0
_chemical_formula_structural       Ag2Mn2Sr3
_chemical_formula_sum              "Ag2 Mn2 Sr3"
_cell_length_a       9.24349
_cell_length_b       9.24349
_cell_length_c       9.24349
_cell_angle_alpha    33.8981
_cell_angle_beta     33.8981
_cell_angle_gamma    33.8981

_space_group_name_H-M_alt    "P 1"
_space_group_IT_number       1

loop_
  _space_group_symop_operation_xyz
  'x, y, z'

loop_
  _atom_site_type_symbol
  _atom_site_label
  _atom_site_symmetry_multiplicity
  _atom_site_fract_x
  _atom_site_fract_y
  _atom_site_fract_z
  _atom_site_occupancy
  Ag  Ag1       1.0  0.00794  0.00794  0.00794  1.0000
  Ag  Ag2       1.0  0.50500  0.50500  0.50500  1.0000
  Mn  Mn1       1.0  0.23400  0.23400  0.23400  1.0000
  Mn  Mn2       1.0  0.74900  0.74900  0.74900  1.0000
  Sr  Sr1       1.0  0.38300  0.38300  0.38300  1.0000
  Sr  Sr2       1.0  0.62600  0.62600  0.62600  1.0000
  Sr  Sr3       1.0  0.86900  0.86900  0.86900  1.0000
