data_image0
_chemical_formula_structural       Hg2In2Ti3
_chemical_formula_sum              "Hg2 In2 Ti3"
_cell_length_a       7.89098
_cell_length_b       7.89098
_cell_length_c       7.89098
_cell_angle_alpha    34.9537
_cell_angle_beta     34.9537
_cell_angle_gamma    34.9537

_space_group_name_H-M_alt    "P 1"
_space_group_IT_number       1

loop_
  _space_group_symop_operation_xyz
  'x, y, z'

loop_
  _atom_site_type_symbol
  _atom_site_label
  _atom_site_symmetry_multiplicity
  _atom_site_fract_x
  _atom_site_fract_y
  _atom_site_fract_z
  _atom_site_occupancy
  Hg  Hg1       1.0  0.02240  0.02240  0.02240  1.0000
  Hg  Hg2       1.0  0.48900  0.48900  0.48900  1.0000
  In  In1       1.0  0.22900  0.22900  0.22900  1.0000
  In  In2       1.0  0.76000  0.76000  0.76000  1.0000
  Ti  Ti1       1.0  0.35500  0.35500  0.35500  1.0000
  Ti  Ti2       1.0  0.62300  0.62300  0.62300  1.0000
  Ti  Ti3       1.0  0.89700  0.89700  0.89700  1.0000
