data_image0
_chemical_formula_structural       Au2Re2Sr3
_chemical_formula_sum              "Au2 Re2 Sr3"
_cell_length_a       8.95656
_cell_length_b       8.95656
_cell_length_c       8.95656
_cell_angle_alpha    33.8014
_cell_angle_beta     33.8014
_cell_angle_gamma    33.8014

_space_group_name_H-M_alt    "P 1"
_space_group_IT_number       1

loop_
  _space_group_symop_operation_xyz
  'x, y, z'

loop_
  _atom_site_type_symbol
  _atom_site_label
  _atom_site_symmetry_multiplicity
  _atom_site_fract_x
  _atom_site_fract_y
  _atom_site_fract_z
  _atom_site_occupancy
  Au  Au1       1.0  0.01080  0.01080  0.01080  1.0000
  Au  Au2       1.0  0.50200  0.50200  0.50200  1.0000
  Re  Re1       1.0  0.23600  0.23600  0.23600  1.0000
  Re  Re2       1.0  0.75000  0.75000  0.75000  1.0000
  Sr  Sr1       1.0  0.38100  0.38100  0.38100  1.0000
  Sr  Sr2       1.0  0.62500  0.62500  0.62500  1.0000
  Sr  Sr3       1.0  0.87000  0.87000  0.87000  1.0000
