data_image0
_chemical_formula_structural       Ag2Ba3Re2
_chemical_formula_sum              "Ag2 Ba3 Re2"
_cell_length_a       9.51285
_cell_length_b       9.51285
_cell_length_c       9.51285
_cell_angle_alpha    33.5047
_cell_angle_beta     33.5047
_cell_angle_gamma    33.5047

_space_group_name_H-M_alt    "P 1"
_space_group_IT_number       1

loop_
  _space_group_symop_operation_xyz
  'x, y, z'

loop_
  _atom_site_type_symbol
  _atom_site_label
  _atom_site_symmetry_multiplicity
  _atom_site_fract_x
  _atom_site_fract_y
  _atom_site_fract_z
  _atom_site_occupancy
  Ag  Ag1       1.0  0.01430  0.01430  0.01430  1.0000
  Ag  Ag2       1.0  0.50200  0.50200  0.50200  1.0000
  Ba  Ba1       1.0  0.38300  0.38300  0.38300  1.0000
  Ba  Ba2       1.0  0.62500  0.62500  0.62500  1.0000
  Ba  Ba3       1.0  0.86600  0.86600  0.86600  1.0000
  Re  Re1       1.0  0.24100  0.24100  0.24100  1.0000
  Re  Re2       1.0  0.74500  0.74500  0.74500  1.0000
