data_image0
_chemical_formula_structural       Ba3Cu2Re2
_chemical_formula_sum              "Ba3 Cu2 Re2"
_cell_length_a       9.38664
_cell_length_b       9.38664
_cell_length_c       9.38664
_cell_angle_alpha    32.6367
_cell_angle_beta     32.6367
_cell_angle_gamma    32.6367

_space_group_name_H-M_alt    "P 1"
_space_group_IT_number       1

loop_
  _space_group_symop_operation_xyz
  'x, y, z'

loop_
  _atom_site_type_symbol
  _atom_site_label
  _atom_site_symmetry_multiplicity
  _atom_site_fract_x
  _atom_site_fract_y
  _atom_site_fract_z
  _atom_site_occupancy
  Ba  Ba1       1.0  0.39200  0.39200  0.39200  1.0000
  Ba  Ba2       1.0  0.62700  0.62700  0.62700  1.0000
  Ba  Ba3       1.0  0.85200  0.85200  0.85200  1.0000
  Cu  Cu1       1.0  0.02130  0.02130  0.02130  1.0000
  Cu  Cu2       1.0  0.51900  0.51900  0.51900  1.0000
  Re  Re1       1.0  0.23200  0.23200  0.23200  1.0000
  Re  Re2       1.0  0.73200  0.73200  0.73200  1.0000
