data_image0
_chemical_formula_structural       BaCa2MgO8Si2
_chemical_formula_sum              "Ba1 Ca2 Mg1 O8 Si2"
_cell_length_a       5.41286
_cell_length_b       5.41286
_cell_length_c       6.78786
_cell_angle_alpha    90
_cell_angle_beta     90
_cell_angle_gamma    120

_space_group_name_H-M_alt    "P 1"
_space_group_IT_number       1

loop_
  _space_group_symop_operation_xyz
  'x, y, z'

loop_
  _atom_site_type_symbol
  _atom_site_label
  _atom_site_symmetry_multiplicity
  _atom_site_fract_x
  _atom_site_fract_y
  _atom_site_fract_z
  _atom_site_occupancy
  Ba  Ba1       1.0  0.00000  0.00000  0.50000  1.0000
  Ca  Ca1       1.0  0.66700  0.33300  0.15600  1.0000
  Ca  Ca2       1.0  0.33300  0.66700  0.84400  1.0000
  Mg  Mg1       1.0  0.00000  0.00000  0.00000  1.0000
  O   O1        1.0  0.23900  0.35300  0.17400  1.0000
  O   O2        1.0  0.11400  0.76100  0.17400  1.0000
  O   O3        1.0  0.64700  0.88600  0.17400  1.0000
  O   O4        1.0  0.66700  0.33300  0.48900  1.0000
  O   O5        1.0  0.33300  0.66700  0.51100  1.0000
  O   O6        1.0  0.35300  0.11400  0.82600  1.0000
  O   O7        1.0  0.88600  0.23900  0.82600  1.0000
  O   O8        1.0  0.76100  0.64700  0.82600  1.0000
  Si  Si1       1.0  0.33300  0.66700  0.27400  1.0000
  Si  Si2       1.0  0.66700  0.33300  0.72600  1.0000
