data_image0
_chemical_formula_structural       Ba3Fe2Ni2
_chemical_formula_sum              "Ba3 Fe2 Ni2"
_cell_length_a       9.10199
_cell_length_b       9.10199
_cell_length_c       9.10199
_cell_angle_alpha    33.388
_cell_angle_beta     33.388
_cell_angle_gamma    33.388

_space_group_name_H-M_alt    "P 1"
_space_group_IT_number       1

loop_
  _space_group_symop_operation_xyz
  'x, y, z'

loop_
  _atom_site_type_symbol
  _atom_site_label
  _atom_site_symmetry_multiplicity
  _atom_site_fract_x
  _atom_site_fract_y
  _atom_site_fract_z
  _atom_site_occupancy
  Ba  Ba1       1.0  0.38500  0.38500  0.38500  1.0000
  Ba  Ba2       1.0  0.62600  0.62600  0.62600  1.0000
  Ba  Ba3       1.0  0.86600  0.86600  0.86600  1.0000
  Fe  Fe1       1.0  0.24000  0.24000  0.24000  1.0000
  Fe  Fe2       1.0  0.75500  0.75500  0.75500  1.0000
  Ni  Ni1       1.0  0.00282  0.00282  0.00282  1.0000
  Ni  Ni2       1.0  0.50100  0.50100  0.50100  1.0000
