data_image0
_chemical_formula_structural       Au2Ba3Mn2
_chemical_formula_sum              "Au2 Ba3 Mn2"
_cell_length_a       9.67295
_cell_length_b       9.67295
_cell_length_c       9.67295
_cell_angle_alpha    33.5945
_cell_angle_beta     33.5945
_cell_angle_gamma    33.5945

_space_group_name_H-M_alt    "P 1"
_space_group_IT_number       1

loop_
  _space_group_symop_operation_xyz
  'x, y, z'

loop_
  _atom_site_type_symbol
  _atom_site_label
  _atom_site_symmetry_multiplicity
  _atom_site_fract_x
  _atom_site_fract_y
  _atom_site_fract_z
  _atom_site_occupancy
  Au  Au1       1.0  0.50800  0.50800  0.50800  1.0000
  Au  Au2       1.0  1.00000  0.00000  0.00000  1.0000
  Ba  Ba1       1.0  0.38600  0.38600  0.38600  1.0000
  Ba  Ba2       1.0  0.62700  0.62700  0.62700  1.0000
  Ba  Ba3       1.0  0.86700  0.86700  0.86700  1.0000
  Mn  Mn1       1.0  0.23600  0.23600  0.23600  1.0000
  Mn  Mn2       1.0  0.75100  0.75100  0.75100  1.0000
