data_image0
_chemical_formula_structural       Ba3Pd2Ru2
_chemical_formula_sum              "Ba3 Pd2 Ru2"
_cell_length_a       11.6993
_cell_length_b       11.6993
_cell_length_c       11.6993
_cell_angle_alpha    22.5927
_cell_angle_beta     22.5927
_cell_angle_gamma    22.5927

_space_group_name_H-M_alt    "P 1"
_space_group_IT_number       1

loop_
  _space_group_symop_operation_xyz
  'x, y, z'

loop_
  _atom_site_type_symbol
  _atom_site_label
  _atom_site_symmetry_multiplicity
  _atom_site_fract_x
  _atom_site_fract_y
  _atom_site_fract_z
  _atom_site_occupancy
  Ba  Ba1       1.0  0.42000  0.42000  0.42000  1.0000
  Ba  Ba2       1.0  0.62800  0.62800  0.62800  1.0000
  Ba  Ba3       1.0  0.82900  0.82900  0.82900  1.0000
  Pd  Pd1       1.0  0.03020  0.03020  0.03020  1.0000
  Pd  Pd2       1.0  0.54400  0.54400  0.54400  1.0000
  Ru  Ru1       1.0  0.21600  0.21600  0.21600  1.0000
  Ru  Ru2       1.0  0.70800  0.70800  0.70800  1.0000
