data_image0
_chemical_formula_structural       Ca3Cu2Mn2
_chemical_formula_sum              "Ca3 Cu2 Mn2"
_cell_length_a       8.65265
_cell_length_b       8.65265
_cell_length_c       8.65265
_cell_angle_alpha    33.7933
_cell_angle_beta     33.7933
_cell_angle_gamma    33.7933

_space_group_name_H-M_alt    "P 1"
_space_group_IT_number       1

loop_
  _space_group_symop_operation_xyz
  'x, y, z'

loop_
  _atom_site_type_symbol
  _atom_site_label
  _atom_site_symmetry_multiplicity
  _atom_site_fract_x
  _atom_site_fract_y
  _atom_site_fract_z
  _atom_site_occupancy
  Ca  Ca1       1.0  0.38100  0.38100  0.38100  1.0000
  Ca  Ca2       1.0  0.62700  0.62700  0.62700  1.0000
  Ca  Ca3       1.0  0.87200  0.87200  0.87200  1.0000
  Cu  Cu1       1.0  0.00412  0.00412  0.00412  1.0000
  Cu  Cu2       1.0  0.50400  0.50400  0.50400  1.0000
  Mn  Mn1       1.0  0.23300  0.23300  0.23300  1.0000
  Mn  Mn2       1.0  0.75400  0.75400  0.75400  1.0000
