data_image0
_chemical_formula_structural       Au2Be3Mn2
_chemical_formula_sum              "Au2 Be3 Mn2"
_cell_length_a       6.88597
_cell_length_b       6.88597
_cell_length_c       6.88597
_cell_angle_alpha    33.664
_cell_angle_beta     33.664
_cell_angle_gamma    33.664

_space_group_name_H-M_alt    "P 1"
_space_group_IT_number       1

loop_
  _space_group_symop_operation_xyz
  'x, y, z'

loop_
  _atom_site_type_symbol
  _atom_site_label
  _atom_site_symmetry_multiplicity
  _atom_site_fract_x
  _atom_site_fract_y
  _atom_site_fract_z
  _atom_site_occupancy
  Au  Au1       1.0  0.00147  0.00147  0.00147  1.0000
  Au  Au2       1.0  0.49900  0.49900  0.49900  1.0000
  Be  Be1       1.0  0.37400  0.37400  0.37400  1.0000
  Be  Be2       1.0  0.62600  0.62600  0.62600  1.0000
  Be  Be3       1.0  0.87700  0.87700  0.87700  1.0000
  Mn  Mn1       1.0  0.24400  0.24400  0.24400  1.0000
  Mn  Mn2       1.0  0.75400  0.75400  0.75400  1.0000
