data_image0
_chemical_formula_structural       Ti3Y2Zn2
_chemical_formula_sum              "Ti3 Y2 Zn2"
_cell_length_a       7.70714
_cell_length_b       7.70714
_cell_length_c       7.70714
_cell_angle_alpha    35.938
_cell_angle_beta     35.938
_cell_angle_gamma    35.938

_space_group_name_H-M_alt    "P 1"
_space_group_IT_number       1

loop_
  _space_group_symop_operation_xyz
  'x, y, z'

loop_
  _atom_site_type_symbol
  _atom_site_label
  _atom_site_symmetry_multiplicity
  _atom_site_fract_x
  _atom_site_fract_y
  _atom_site_fract_z
  _atom_site_occupancy
  Ti  Ti1       1.0  0.33600  0.33600  0.33600  1.0000
  Ti  Ti2       1.0  0.61100  0.61100  0.61100  1.0000
  Ti  Ti3       1.0  0.93800  0.93800  0.93800  1.0000
  Y   Y1        1.0  0.19900  0.19900  0.19900  1.0000
  Y   Y2        1.0  0.75900  0.75900  0.75900  1.0000
  Zn  Zn1       1.0  0.05590  0.05590  0.05590  1.0000
  Zn  Zn2       1.0  0.47600  0.47600  0.47600  1.0000
