data_image0
_chemical_formula_structural       Al2Hg2Ti3
_chemical_formula_sum              "Al2 Hg2 Ti3"
_cell_length_a       7.52676
_cell_length_b       7.52676
_cell_length_c       7.52676
_cell_angle_alpha    35.3353
_cell_angle_beta     35.3353
_cell_angle_gamma    35.3353

_space_group_name_H-M_alt    "P 1"
_space_group_IT_number       1

loop_
  _space_group_symop_operation_xyz
  'x, y, z'

loop_
  _atom_site_type_symbol
  _atom_site_label
  _atom_site_symmetry_multiplicity
  _atom_site_fract_x
  _atom_site_fract_y
  _atom_site_fract_z
  _atom_site_occupancy
  Al  Al1       1.0  0.22100  0.22100  0.22100  1.0000
  Al  Al2       1.0  0.76100  0.76100  0.76100  1.0000
  Hg  Hg1       1.0  0.03730  0.03730  0.03730  1.0000
  Hg  Hg2       1.0  0.48600  0.48600  0.48600  1.0000
  Ti  Ti1       1.0  0.34400  0.34400  0.34400  1.0000
  Ti  Ti2       1.0  0.62200  0.62200  0.62200  1.0000
  Ti  Ti3       1.0  0.90400  0.90400  0.90400  1.0000
