data_image0
_chemical_formula_structural       Au2Mn2Sr3
_chemical_formula_sum              "Au2 Mn2 Sr3"
_cell_length_a       10.6419
_cell_length_b       10.6419
_cell_length_c       10.6419
_cell_angle_alpha    25.7809
_cell_angle_beta     25.7809
_cell_angle_gamma    25.7809

_space_group_name_H-M_alt    "P 1"
_space_group_IT_number       1

loop_
  _space_group_symop_operation_xyz
  'x, y, z'

loop_
  _atom_site_type_symbol
  _atom_site_label
  _atom_site_symmetry_multiplicity
  _atom_site_fract_x
  _atom_site_fract_y
  _atom_site_fract_z
  _atom_site_occupancy
  Au  Au1       1.0  0.01310  0.01310  0.01310  1.0000
  Au  Au2       1.0  0.49600  0.49600  0.49600  1.0000
  Mn  Mn1       1.0  0.15000  0.15000  0.15000  1.0000
  Mn  Mn2       1.0  0.79200  0.79200  0.79200  1.0000
  Sr  Sr1       1.0  0.39700  0.39700  0.39700  1.0000
  Sr  Sr2       1.0  0.63900  0.63900  0.63900  1.0000
  Sr  Sr3       1.0  0.88800  0.88800  0.88800  1.0000
