data_image0
_chemical_formula_structural       Ba3Ni2Ru2
_chemical_formula_sum              "Ba3 Ni2 Ru2"
_cell_length_a       12.6046
_cell_length_b       12.6046
_cell_length_c       12.6046
_cell_angle_alpha    19.2319
_cell_angle_beta     19.2319
_cell_angle_gamma    19.2319

_space_group_name_H-M_alt    "P 1"
_space_group_IT_number       1

loop_
  _space_group_symop_operation_xyz
  'x, y, z'

loop_
  _atom_site_type_symbol
  _atom_site_label
  _atom_site_symmetry_multiplicity
  _atom_site_fract_x
  _atom_site_fract_y
  _atom_site_fract_z
  _atom_site_occupancy
  Ba  Ba1       1.0  0.41700  0.41700  0.41700  1.0000
  Ba  Ba2       1.0  0.62400  0.62400  0.62400  1.0000
  Ba  Ba3       1.0  0.83200  0.83200  0.83200  1.0000
  Ni  Ni1       1.0  0.22400  0.22400  0.22400  1.0000
  Ni  Ni2       1.0  0.70000  0.70000  0.70000  1.0000
  Ru  Ru1       1.0  0.02770  0.02770  0.02770  1.0000
  Ru  Ru2       1.0  0.55000  0.55000  0.55000  1.0000
