data_image0
_chemical_formula_structural       Ba3Mo2Zn2
_chemical_formula_sum              "Ba3 Mo2 Zn2"
_cell_length_a       12.1767
_cell_length_b       12.1767
_cell_length_c       12.1767
_cell_angle_alpha    22.1912
_cell_angle_beta     22.1912
_cell_angle_gamma    22.1912

_space_group_name_H-M_alt    "P 1"
_space_group_IT_number       1

loop_
  _space_group_symop_operation_xyz
  'x, y, z'

loop_
  _atom_site_type_symbol
  _atom_site_label
  _atom_site_symmetry_multiplicity
  _atom_site_fract_x
  _atom_site_fract_y
  _atom_site_fract_z
  _atom_site_occupancy
  Ba  Ba1       1.0  0.37300  0.37300  0.37300  1.0000
  Ba  Ba2       1.0  0.60600  0.60600  0.60600  1.0000
  Ba  Ba3       1.0  0.87000  0.87000  0.87000  1.0000
  Mo  Mo1       1.0  0.11200  0.11200  0.11200  1.0000
  Mo  Mo2       1.0  0.46200  0.46200  0.46200  1.0000
  Zn  Zn1       1.0  0.17900  0.17900  0.17900  1.0000
  Zn  Zn2       1.0  0.77300  0.77300  0.77300  1.0000
