data_image0
_chemical_formula_structural       Ba3Fe2Pt2
_chemical_formula_sum              "Ba3 Fe2 Pt2"
_cell_length_a       11.3282
_cell_length_b       11.3282
_cell_length_c       11.3282
_cell_angle_alpha    22.9929
_cell_angle_beta     22.9929
_cell_angle_gamma    22.9929

_space_group_name_H-M_alt    "P 1"
_space_group_IT_number       1

loop_
  _space_group_symop_operation_xyz
  'x, y, z'

loop_
  _atom_site_type_symbol
  _atom_site_label
  _atom_site_symmetry_multiplicity
  _atom_site_fract_x
  _atom_site_fract_y
  _atom_site_fract_z
  _atom_site_occupancy
  Ba  Ba1       1.0  0.39900  0.39900  0.39900  1.0000
  Ba  Ba2       1.0  0.63500  0.63500  0.63500  1.0000
  Ba  Ba3       1.0  0.88600  0.88600  0.88600  1.0000
  Fe  Fe1       1.0  0.15000  0.15000  0.15000  1.0000
  Fe  Fe2       1.0  0.80200  0.80200  0.80200  1.0000
  Pt  Pt1       1.0  0.01200  0.01200  0.01200  1.0000
  Pt  Pt2       1.0  0.49200  0.49200  0.49200  1.0000
