data_image0
_chemical_formula_structural       Sc2Ti3Zn2
_chemical_formula_sum              "Sc2 Ti3 Zn2"
_cell_length_a       7.34121
_cell_length_b       7.34121
_cell_length_c       7.34121
_cell_angle_alpha    36.5057
_cell_angle_beta     36.5057
_cell_angle_gamma    36.5057

_space_group_name_H-M_alt    "P 1"
_space_group_IT_number       1

loop_
  _space_group_symop_operation_xyz
  'x, y, z'

loop_
  _atom_site_type_symbol
  _atom_site_label
  _atom_site_symmetry_multiplicity
  _atom_site_fract_x
  _atom_site_fract_y
  _atom_site_fract_z
  _atom_site_occupancy
  Sc  Sc1       1.0  0.19800  0.19800  0.19800  1.0000
  Sc  Sc2       1.0  0.76300  0.76300  0.76300  1.0000
  Ti  Ti1       1.0  0.33700  0.33700  0.33700  1.0000
  Ti  Ti2       1.0  0.61000  0.61000  0.61000  1.0000
  Ti  Ti3       1.0  0.93300  0.93300  0.93300  1.0000
  Zn  Zn1       1.0  0.05850  0.05850  0.05850  1.0000
  Zn  Zn2       1.0  0.47600  0.47600  0.47600  1.0000
