data_image0
_chemical_formula_structural       Ga2Ti3Zn2
_chemical_formula_sum              "Ga2 Ti3 Zn2"
_cell_length_a       7.60864
_cell_length_b       7.60864
_cell_length_c       7.60864
_cell_angle_alpha    33.3281
_cell_angle_beta     33.3281
_cell_angle_gamma    33.3281

_space_group_name_H-M_alt    "P 1"
_space_group_IT_number       1

loop_
  _space_group_symop_operation_xyz
  'x, y, z'

loop_
  _atom_site_type_symbol
  _atom_site_label
  _atom_site_symmetry_multiplicity
  _atom_site_fract_x
  _atom_site_fract_y
  _atom_site_fract_z
  _atom_site_occupancy
  Ga  Ga1       1.0  0.00603  0.00603  0.00603  1.0000
  Ga  Ga2       1.0  0.49600  0.49600  0.49600  1.0000
  Ti  Ti1       1.0  0.37500  0.37500  0.37500  1.0000
  Ti  Ti2       1.0  0.62500  0.62500  0.62500  1.0000
  Ti  Ti3       1.0  0.87600  0.87600  0.87600  1.0000
  Zn  Zn1       1.0  0.24200  0.24200  0.24200  1.0000
  Zn  Zn2       1.0  0.75500  0.75500  0.75500  1.0000
