data_image0
_chemical_formula_structural       K2Mn2P2
_chemical_formula_sum              "K2 Mn2 P2"
_cell_length_a       3.83835
_cell_length_b       3.83835
_cell_length_c       8.35107
_cell_angle_alpha    90
_cell_angle_beta     90
_cell_angle_gamma    90

_space_group_name_H-M_alt    "P 1"
_space_group_IT_number       1

loop_
  _space_group_symop_operation_xyz
  'x, y, z'

loop_
  _atom_site_type_symbol
  _atom_site_label
  _atom_site_symmetry_multiplicity
  _atom_site_fract_x
  _atom_site_fract_y
  _atom_site_fract_z
  _atom_site_occupancy
  K   K1        1.0  0.50000  0.00000  0.34200  1.0000
  K   K2        1.0  0.00000  0.50000  0.65800  1.0000
  Mn  Mn1       1.0  0.00000  0.00000  0.00000  1.0000
  Mn  Mn2       1.0  0.50000  0.50000  0.00000  1.0000
  P   P1        1.0  0.00000  0.50000  0.14900  1.0000
  P   P2        1.0  0.50000  0.00000  0.85100  1.0000
