data_image0
_chemical_formula_structural       Cd2Ga2Ti3
_chemical_formula_sum              "Cd2 Ga2 Ti3"
_cell_length_a       7.56491
_cell_length_b       7.56491
_cell_length_c       7.56491
_cell_angle_alpha    35.0136
_cell_angle_beta     35.0136
_cell_angle_gamma    35.0136

_space_group_name_H-M_alt    "P 1"
_space_group_IT_number       1

loop_
  _space_group_symop_operation_xyz
  'x, y, z'

loop_
  _atom_site_type_symbol
  _atom_site_label
  _atom_site_symmetry_multiplicity
  _atom_site_fract_x
  _atom_site_fract_y
  _atom_site_fract_z
  _atom_site_occupancy
  Cd  Cd1       1.0  0.20900  0.20900  0.20900  1.0000
  Cd  Cd2       1.0  0.76500  0.76500  0.76500  1.0000
  Ga  Ga1       1.0  0.02480  0.02480  0.02480  1.0000
  Ga  Ga2       1.0  0.49200  0.49200  0.49200  1.0000
  Ti  Ti1       1.0  0.35200  0.35200  0.35200  1.0000
  Ti  Ti2       1.0  0.62700  0.62700  0.62700  1.0000
  Ti  Ti3       1.0  0.90600  0.90600  0.90600  1.0000
