data_image0
_chemical_formula_structural       B2Zn2Zr3
_chemical_formula_sum              "B2 Zn2 Zr3"
_cell_length_a       7.76965
_cell_length_b       7.76965
_cell_length_c       7.76965
_cell_angle_alpha    32.2891
_cell_angle_beta     32.2891
_cell_angle_gamma    32.2891

_space_group_name_H-M_alt    "P 1"
_space_group_IT_number       1

loop_
  _space_group_symop_operation_xyz
  'x, y, z'

loop_
  _atom_site_type_symbol
  _atom_site_label
  _atom_site_symmetry_multiplicity
  _atom_site_fract_x
  _atom_site_fract_y
  _atom_site_fract_z
  _atom_site_occupancy
  B   B1        1.0  0.50800  0.50800  0.50800  1.0000
  B   B2        1.0  0.99500  0.99500  0.99500  1.0000
  Zn  Zn1       1.0  0.24300  0.24300  0.24300  1.0000
  Zn  Zn2       1.0  0.75000  0.75000  0.75000  1.0000
  Zr  Zr1       1.0  0.38700  0.38700  0.38700  1.0000
  Zr  Zr2       1.0  0.62700  0.62700  0.62700  1.0000
  Zr  Zr3       1.0  0.86400  0.86400  0.86400  1.0000
