data_image0
_chemical_formula_structural       La2Ti3Zn2
_chemical_formula_sum              "La2 Ti3 Zn2"
_cell_length_a       7.81388
_cell_length_b       7.81388
_cell_length_c       7.81388
_cell_angle_alpha    36.6672
_cell_angle_beta     36.6672
_cell_angle_gamma    36.6672

_space_group_name_H-M_alt    "P 1"
_space_group_IT_number       1

loop_
  _space_group_symop_operation_xyz
  'x, y, z'

loop_
  _atom_site_type_symbol
  _atom_site_label
  _atom_site_symmetry_multiplicity
  _atom_site_fract_x
  _atom_site_fract_y
  _atom_site_fract_z
  _atom_site_occupancy
  La  La1       1.0  0.20000  0.20000  0.20000  1.0000
  La  La2       1.0  0.75800  0.75800  0.75800  1.0000
  Ti  Ti1       1.0  0.33500  0.33500  0.33500  1.0000
  Ti  Ti2       1.0  0.61500  0.61500  0.61500  1.0000
  Ti  Ti3       1.0  0.93400  0.93400  0.93400  1.0000
  Zn  Zn1       1.0  0.04850  0.04850  0.04850  1.0000
  Zn  Zn2       1.0  0.48400  0.48400  0.48400  1.0000
