data_image0
_chemical_formula_structural       Ca3Os2Pd2
_chemical_formula_sum              "Ca3 Os2 Pd2"
_cell_length_a       8.45157
_cell_length_b       8.45157
_cell_length_c       8.45157
_cell_angle_alpha    31.2065
_cell_angle_beta     31.2065
_cell_angle_gamma    31.2065

_space_group_name_H-M_alt    "P 1"
_space_group_IT_number       1

loop_
  _space_group_symop_operation_xyz
  'x, y, z'

loop_
  _atom_site_type_symbol
  _atom_site_label
  _atom_site_symmetry_multiplicity
  _atom_site_fract_x
  _atom_site_fract_y
  _atom_site_fract_z
  _atom_site_occupancy
  Ca  Ca1       1.0  0.39200  0.39200  0.39200  1.0000
  Ca  Ca2       1.0  0.64100  0.64100  0.64100  1.0000
  Ca  Ca3       1.0  0.89300  0.89300  0.89300  1.0000
  Os  Os1       1.0  0.13700  0.13700  0.13700  1.0000
  Os  Os2       1.0  0.78200  0.78200  0.78200  1.0000
  Pd  Pd1       1.0  0.02240  0.02240  0.02240  1.0000
  Pd  Pd2       1.0  0.50800  0.50800  0.50800  1.0000
