data_image0
_chemical_formula_structural       Ca3Fe2Ni2
_chemical_formula_sum              "Ca3 Fe2 Ni2"
_cell_length_a       8.01312
_cell_length_b       8.01312
_cell_length_c       8.01312
_cell_angle_alpha    34.3021
_cell_angle_beta     34.3021
_cell_angle_gamma    34.3021

_space_group_name_H-M_alt    "P 1"
_space_group_IT_number       1

loop_
  _space_group_symop_operation_xyz
  'x, y, z'

loop_
  _atom_site_type_symbol
  _atom_site_label
  _atom_site_symmetry_multiplicity
  _atom_site_fract_x
  _atom_site_fract_y
  _atom_site_fract_z
  _atom_site_occupancy
  Ca  Ca1       1.0  0.38000  0.38000  0.38000  1.0000
  Ca  Ca2       1.0  0.62700  0.62700  0.62700  1.0000
  Ca  Ca3       1.0  0.87000  0.87000  0.87000  1.0000
  Fe  Fe1       1.0  0.23800  0.23800  0.23800  1.0000
  Fe  Fe2       1.0  0.75500  0.75500  0.75500  1.0000
  Ni  Ni1       1.0  0.00627  0.00627  0.00627  1.0000
  Ni  Ni2       1.0  0.49900  0.49900  0.49900  1.0000
