data_image0
_chemical_formula_structural       Be3Fe2Pt2
_chemical_formula_sum              "Be3 Fe2 Pt2"
_cell_length_a       6.59249
_cell_length_b       6.59249
_cell_length_c       6.59249
_cell_angle_alpha    33.8251
_cell_angle_beta     33.8251
_cell_angle_gamma    33.8251

_space_group_name_H-M_alt    "P 1"
_space_group_IT_number       1

loop_
  _space_group_symop_operation_xyz
  'x, y, z'

loop_
  _atom_site_type_symbol
  _atom_site_label
  _atom_site_symmetry_multiplicity
  _atom_site_fract_x
  _atom_site_fract_y
  _atom_site_fract_z
  _atom_site_occupancy
  Be  Be1       1.0  0.37600  0.37600  0.37600  1.0000
  Be  Be2       1.0  0.62800  0.62800  0.62800  1.0000
  Be  Be3       1.0  0.87300  0.87300  0.87300  1.0000
  Fe  Fe1       1.0  0.24500  0.24500  0.24500  1.0000
  Fe  Fe2       1.0  0.75300  0.75300  0.75300  1.0000
  Pt  Pt1       1.0  0.49900  0.49900  0.49900  1.0000
  Pt  Pt2       1.0  1.00000  1.00000  0.00000  1.0000
