data_image0
_chemical_formula_structural       Fe2Pd2Sr3
_chemical_formula_sum              "Fe2 Pd2 Sr3"
_cell_length_a       11.6221
_cell_length_b       11.6221
_cell_length_c       11.6221
_cell_angle_alpha    21.5174
_cell_angle_beta     21.5174
_cell_angle_gamma    21.5174

_space_group_name_H-M_alt    "P 1"
_space_group_IT_number       1

loop_
  _space_group_symop_operation_xyz
  'x, y, z'

loop_
  _atom_site_type_symbol
  _atom_site_label
  _atom_site_symmetry_multiplicity
  _atom_site_fract_x
  _atom_site_fract_y
  _atom_site_fract_z
  _atom_site_occupancy
  Fe  Fe1       1.0  0.14400  0.14400  0.14400  1.0000
  Fe  Fe2       1.0  0.79800  0.79800  0.79800  1.0000
  Pd  Pd1       1.0  0.01700  0.01700  0.01700  1.0000
  Pd  Pd2       1.0  0.49200  0.49200  0.49200  1.0000
  Sr  Sr1       1.0  0.40200  0.40200  0.40200  1.0000
  Sr  Sr2       1.0  0.63900  0.63900  0.63900  1.0000
  Sr  Sr3       1.0  0.88200  0.88200  0.88200  1.0000
