data_image0
_chemical_formula_structural       Ba3Cu2Mn2
_chemical_formula_sum              "Ba3 Cu2 Mn2"
_cell_length_a       9.39899
_cell_length_b       9.39899
_cell_length_c       9.39899
_cell_angle_alpha    34.014
_cell_angle_beta     34.014
_cell_angle_gamma    34.014

_space_group_name_H-M_alt    "P 1"
_space_group_IT_number       1

loop_
  _space_group_symop_operation_xyz
  'x, y, z'

loop_
  _atom_site_type_symbol
  _atom_site_label
  _atom_site_symmetry_multiplicity
  _atom_site_fract_x
  _atom_site_fract_y
  _atom_site_fract_z
  _atom_site_occupancy
  Ba  Ba1       1.0  0.38400  0.38400  0.38400  1.0000
  Ba  Ba2       1.0  0.62700  0.62700  0.62700  1.0000
  Ba  Ba3       1.0  0.86900  0.86900  0.86900  1.0000
  Cu  Cu1       1.0  0.00313  0.00313  0.00313  1.0000
  Cu  Cu2       1.0  0.50700  0.50700  0.50700  1.0000
  Mn  Mn1       1.0  0.23500  0.23500  0.23500  1.0000
  Mn  Mn2       1.0  0.75100  0.75100  0.75100  1.0000
