data_image0
_chemical_formula_structural       Cl4NRe
_chemical_formula_sum              "Cl4 N1 Re1"
_cell_length_a       4.09765
_cell_length_b       6.26804
_cell_length_c       6.26804
_cell_angle_alpha    96.1334
_cell_angle_beta     70.9212
_cell_angle_gamma    109.079

_space_group_name_H-M_alt    "P 1"
_space_group_IT_number       1

loop_
  _space_group_symop_operation_xyz
  'x, y, z'

loop_
  _atom_site_type_symbol
  _atom_site_label
  _atom_site_symmetry_multiplicity
  _atom_site_fract_x
  _atom_site_fract_y
  _atom_site_fract_z
  _atom_site_occupancy
  Cl  Cl1       1.0  0.99900  0.33300  0.19100  1.0000
  Cl  Cl2       1.0  0.66600  0.80900  0.33300  1.0000
  Cl  Cl3       1.0  0.19000  0.19100  0.66700  1.0000
  Cl  Cl4       1.0  0.85700  0.66700  0.80900  1.0000
  N   N1        1.0  0.42800  0.00000  0.00000  1.0000
  Re  Re1       1.0  0.01490  0.00000  0.00000  1.0000
