data_image0
_chemical_formula_structural       Ag2Ca3Re2
_chemical_formula_sum              "Ag2 Ca3 Re2"
_cell_length_a       9.54799
_cell_length_b       9.54799
_cell_length_c       9.54799
_cell_angle_alpha    27.4469
_cell_angle_beta     27.4469
_cell_angle_gamma    27.4469

_space_group_name_H-M_alt    "P 1"
_space_group_IT_number       1

loop_
  _space_group_symop_operation_xyz
  'x, y, z'

loop_
  _atom_site_type_symbol
  _atom_site_label
  _atom_site_symmetry_multiplicity
  _atom_site_fract_x
  _atom_site_fract_y
  _atom_site_fract_z
  _atom_site_occupancy
  Ag  Ag1       1.0  0.02280  0.02280  0.02280  1.0000
  Ag  Ag2       1.0  0.50700  0.50700  0.50700  1.0000
  Ca  Ca1       1.0  0.39800  0.39800  0.39800  1.0000
  Ca  Ca2       1.0  0.63900  0.63900  0.63900  1.0000
  Ca  Ca3       1.0  0.89000  0.89000  0.89000  1.0000
  Re  Re1       1.0  0.13200  0.13200  0.13200  1.0000
  Re  Re2       1.0  0.78700  0.78700  0.78700  1.0000
