data_image0
_chemical_formula_structural       Be3Fe2Pd2
_chemical_formula_sum              "Be3 Fe2 Pd2"
_cell_length_a       6.48082
_cell_length_b       6.48082
_cell_length_c       6.48082
_cell_angle_alpha    34.241
_cell_angle_beta     34.241
_cell_angle_gamma    34.241

_space_group_name_H-M_alt    "P 1"
_space_group_IT_number       1

loop_
  _space_group_symop_operation_xyz
  'x, y, z'

loop_
  _atom_site_type_symbol
  _atom_site_label
  _atom_site_symmetry_multiplicity
  _atom_site_fract_x
  _atom_site_fract_y
  _atom_site_fract_z
  _atom_site_occupancy
  Be  Be1       1.0  0.37100  0.37100  0.37100  1.0000
  Be  Be2       1.0  0.62400  0.62400  0.62400  1.0000
  Be  Be3       1.0  0.87900  0.87900  0.87900  1.0000
  Fe  Fe1       1.0  0.24600  0.24600  0.24600  1.0000
  Fe  Fe2       1.0  0.75400  0.75400  0.75400  1.0000
  Pd  Pd1       1.0  0.00510  0.00510  0.00510  1.0000
  Pd  Pd2       1.0  0.49500  0.49500  0.49500  1.0000
