data_image0
_chemical_formula_structural       Hg2Y2Zr3
_chemical_formula_sum              "Hg2 Y2 Zr3"
_cell_length_a       8.20001
_cell_length_b       8.20001
_cell_length_c       8.20001
_cell_angle_alpha    36.2484
_cell_angle_beta     36.2484
_cell_angle_gamma    36.2484

_space_group_name_H-M_alt    "P 1"
_space_group_IT_number       1

loop_
  _space_group_symop_operation_xyz
  'x, y, z'

loop_
  _atom_site_type_symbol
  _atom_site_label
  _atom_site_symmetry_multiplicity
  _atom_site_fract_x
  _atom_site_fract_y
  _atom_site_fract_z
  _atom_site_occupancy
  Hg  Hg1       1.0  0.05750  0.05750  0.05750  1.0000
  Hg  Hg2       1.0  0.47900  0.47900  0.47900  1.0000
  Y   Y1        1.0  0.19700  0.19700  0.19700  1.0000
  Y   Y2        1.0  0.76300  0.76300  0.76300  1.0000
  Zr  Zr1       1.0  0.33600  0.33600  0.33600  1.0000
  Zr  Zr2       1.0  0.61100  0.61100  0.61100  1.0000
  Zr  Zr3       1.0  0.93200  0.93200  0.93200  1.0000
