data_image0
_chemical_formula_structural       Fe2Ni2Sr3
_chemical_formula_sum              "Fe2 Ni2 Sr3"
_cell_length_a       11.7815
_cell_length_b       11.7815
_cell_length_c       11.7815
_cell_angle_alpha    20.3129
_cell_angle_beta     20.3129
_cell_angle_gamma    20.3129

_space_group_name_H-M_alt    "P 1"
_space_group_IT_number       1

loop_
  _space_group_symop_operation_xyz
  'x, y, z'

loop_
  _atom_site_type_symbol
  _atom_site_label
  _atom_site_symmetry_multiplicity
  _atom_site_fract_x
  _atom_site_fract_y
  _atom_site_fract_z
  _atom_site_occupancy
  Fe  Fe1       1.0  0.14800  0.14800  0.14800  1.0000
  Fe  Fe2       1.0  0.79900  0.79900  0.79900  1.0000
  Ni  Ni1       1.0  0.01700  0.01700  0.01700  1.0000
  Ni  Ni2       1.0  0.48800  0.48800  0.48800  1.0000
  Sr  Sr1       1.0  0.40200  0.40200  0.40200  1.0000
  Sr  Sr2       1.0  0.64000  0.64000  0.64000  1.0000
  Sr  Sr3       1.0  0.88100  0.88100  0.88100  1.0000
