data_image0
_chemical_formula_structural       Ga2Hg2Zr3
_chemical_formula_sum              "Ga2 Hg2 Zr3"
_cell_length_a       8.4154
_cell_length_b       8.4154
_cell_length_c       8.4154
_cell_angle_alpha    32.8248
_cell_angle_beta     32.8248
_cell_angle_gamma    32.8248

_space_group_name_H-M_alt    "P 1"
_space_group_IT_number       1

loop_
  _space_group_symop_operation_xyz
  'x, y, z'

loop_
  _atom_site_type_symbol
  _atom_site_label
  _atom_site_symmetry_multiplicity
  _atom_site_fract_x
  _atom_site_fract_y
  _atom_site_fract_z
  _atom_site_occupancy
  Ga  Ga1       1.0  0.24800  0.24800  0.24800  1.0000
  Ga  Ga2       1.0  0.75300  0.75300  0.75300  1.0000
  Hg  Hg1       1.0  0.00981  0.00981  0.00981  1.0000
  Hg  Hg2       1.0  0.49300  0.49300  0.49300  1.0000
  Zr  Zr1       1.0  0.37500  0.37500  0.37500  1.0000
  Zr  Zr2       1.0  0.62300  0.62300  0.62300  1.0000
  Zr  Zr3       1.0  0.87300  0.87300  0.87300  1.0000
