data_image0
_chemical_formula_structural       Ca3Fe2Pd2
_chemical_formula_sum              "Ca3 Fe2 Pd2"
_cell_length_a       8.56787
_cell_length_b       8.56787
_cell_length_c       8.56787
_cell_angle_alpha    31.0296
_cell_angle_beta     31.0296
_cell_angle_gamma    31.0296

_space_group_name_H-M_alt    "P 1"
_space_group_IT_number       1

loop_
  _space_group_symop_operation_xyz
  'x, y, z'

loop_
  _atom_site_type_symbol
  _atom_site_label
  _atom_site_symmetry_multiplicity
  _atom_site_fract_x
  _atom_site_fract_y
  _atom_site_fract_z
  _atom_site_occupancy
  Ca  Ca1       1.0  0.39500  0.39500  0.39500  1.0000
  Ca  Ca2       1.0  0.64200  0.64200  0.64200  1.0000
  Ca  Ca3       1.0  0.89000  0.89000  0.89000  1.0000
  Fe  Fe1       1.0  0.13800  0.13800  0.13800  1.0000
  Fe  Fe2       1.0  0.78000  0.78000  0.78000  1.0000
  Pd  Pd1       1.0  0.02570  0.02570  0.02570  1.0000
  Pd  Pd2       1.0  0.50500  0.50500  0.50500  1.0000
