data_image0
_chemical_formula_structural       Al2Zn2Zr3
_chemical_formula_sum              "Al2 Zn2 Zr3"
_cell_length_a       8.15871
_cell_length_b       8.15871
_cell_length_c       8.15871
_cell_angle_alpha    32.9993
_cell_angle_beta     32.9993
_cell_angle_gamma    32.9993

_space_group_name_H-M_alt    "P 1"
_space_group_IT_number       1

loop_
  _space_group_symop_operation_xyz
  'x, y, z'

loop_
  _atom_site_type_symbol
  _atom_site_label
  _atom_site_symmetry_multiplicity
  _atom_site_fract_x
  _atom_site_fract_y
  _atom_site_fract_z
  _atom_site_occupancy
  Al  Al1       1.0  0.24600  0.24600  0.24600  1.0000
  Al  Al2       1.0  0.75200  0.75200  0.75200  1.0000
  Zn  Zn1       1.0  0.00694  0.00694  0.00694  1.0000
  Zn  Zn2       1.0  0.49600  0.49600  0.49600  1.0000
  Zr  Zr1       1.0  0.37800  0.37800  0.37800  1.0000
  Zr  Zr2       1.0  0.62500  0.62500  0.62500  1.0000
  Zr  Zr3       1.0  0.87100  0.87100  0.87100  1.0000
