data_image0
_chemical_formula_structural       Al2Hg2Zr3
_chemical_formula_sum              "Al2 Hg2 Zr3"
_cell_length_a       8.3709
_cell_length_b       8.3709
_cell_length_c       8.3709
_cell_angle_alpha    33.2821
_cell_angle_beta     33.2821
_cell_angle_gamma    33.2821

_space_group_name_H-M_alt    "P 1"
_space_group_IT_number       1

loop_
  _space_group_symop_operation_xyz
  'x, y, z'

loop_
  _atom_site_type_symbol
  _atom_site_label
  _atom_site_symmetry_multiplicity
  _atom_site_fract_x
  _atom_site_fract_y
  _atom_site_fract_z
  _atom_site_occupancy
  Al  Al1       1.0  0.24700  0.24700  0.24700  1.0000
  Al  Al2       1.0  0.75200  0.75200  0.75200  1.0000
  Hg  Hg1       1.0  0.01320  0.01320  0.01320  1.0000
  Hg  Hg2       1.0  0.49200  0.49200  0.49200  1.0000
  Zr  Zr1       1.0  0.37300  0.37300  0.37300  1.0000
  Zr  Zr2       1.0  0.62300  0.62300  0.62300  1.0000
  Zr  Zr3       1.0  0.87500  0.87500  0.87500  1.0000
