data_image0
_chemical_formula_structural       B2Ti3Zn2
_chemical_formula_sum              "B2 Ti3 Zn2"
_cell_length_a       7.18018
_cell_length_b       7.18018
_cell_length_c       7.18018
_cell_angle_alpha    32.8265
_cell_angle_beta     32.8265
_cell_angle_gamma    32.8265

_space_group_name_H-M_alt    "P 1"
_space_group_IT_number       1

loop_
  _space_group_symop_operation_xyz
  'x, y, z'

loop_
  _atom_site_type_symbol
  _atom_site_label
  _atom_site_symmetry_multiplicity
  _atom_site_fract_x
  _atom_site_fract_y
  _atom_site_fract_z
  _atom_site_occupancy
  B   B1        1.0  0.50500  0.50500  0.50500  1.0000
  B   B2        1.0  0.99600  0.99600  0.99600  1.0000
  Ti  Ti1       1.0  0.38000  0.38000  0.38000  1.0000
  Ti  Ti2       1.0  0.62800  0.62800  0.62800  1.0000
  Ti  Ti3       1.0  0.87100  0.87100  0.87100  1.0000
  Zn  Zn1       1.0  0.23800  0.23800  0.23800  1.0000
  Zn  Zn2       1.0  0.75600  0.75600  0.75600  1.0000
