data_image0
_chemical_formula_structural       Ni2Ru2Sr3
_chemical_formula_sum              "Ni2 Ru2 Sr3"
_cell_length_a       11.7512
_cell_length_b       11.7512
_cell_length_c       11.7512
_cell_angle_alpha    20.5312
_cell_angle_beta     20.5312
_cell_angle_gamma    20.5312

_space_group_name_H-M_alt    "P 1"
_space_group_IT_number       1

loop_
  _space_group_symop_operation_xyz
  'x, y, z'

loop_
  _atom_site_type_symbol
  _atom_site_label
  _atom_site_symmetry_multiplicity
  _atom_site_fract_x
  _atom_site_fract_y
  _atom_site_fract_z
  _atom_site_occupancy
  Ni  Ni1       1.0  0.22200  0.22200  0.22200  1.0000
  Ni  Ni2       1.0  0.70400  0.70400  0.70400  1.0000
  Ru  Ru1       1.0  0.02890  0.02890  0.02890  1.0000
  Ru  Ru2       1.0  0.54600  0.54600  0.54600  1.0000
  Sr  Sr1       1.0  0.41800  0.41800  0.41800  1.0000
  Sr  Sr2       1.0  0.62500  0.62500  0.62500  1.0000
  Sr  Sr3       1.0  0.83200  0.83200  0.83200  1.0000
