data_image0
_chemical_formula_structural       Fe2Pt2Sr3
_chemical_formula_sum              "Fe2 Pt2 Sr3"
_cell_length_a       12.6127
_cell_length_b       12.6127
_cell_length_c       12.6127
_cell_angle_alpha    19.5883
_cell_angle_beta     19.5883
_cell_angle_gamma    19.5883

_space_group_name_H-M_alt    "P 1"
_space_group_IT_number       1

loop_
  _space_group_symop_operation_xyz
  'x, y, z'

loop_
  _atom_site_type_symbol
  _atom_site_label
  _atom_site_symmetry_multiplicity
  _atom_site_fract_x
  _atom_site_fract_y
  _atom_site_fract_z
  _atom_site_occupancy
  Fe  Fe1       1.0  0.14500  0.14500  0.14500  1.0000
  Fe  Fe2       1.0  0.79900  0.79900  0.79900  1.0000
  Pt  Pt1       1.0  0.01970  0.01970  0.01970  1.0000
  Pt  Pt2       1.0  0.48800  0.48800  0.48800  1.0000
  Sr  Sr1       1.0  0.40200  0.40200  0.40200  1.0000
  Sr  Sr2       1.0  0.64300  0.64300  0.64300  1.0000
  Sr  Sr3       1.0  0.87900  0.87900  0.87900  1.0000
