data_image0
_chemical_formula_structural       Ga2Zn2Zr3
_chemical_formula_sum              "Ga2 Zn2 Zr3"
_cell_length_a       8.14361
_cell_length_b       8.14361
_cell_length_c       8.14361
_cell_angle_alpha    32.8163
_cell_angle_beta     32.8163
_cell_angle_gamma    32.8163

_space_group_name_H-M_alt    "P 1"
_space_group_IT_number       1

loop_
  _space_group_symop_operation_xyz
  'x, y, z'

loop_
  _atom_site_type_symbol
  _atom_site_label
  _atom_site_symmetry_multiplicity
  _atom_site_fract_x
  _atom_site_fract_y
  _atom_site_fract_z
  _atom_site_occupancy
  Ga  Ga1       1.0  0.00302  0.00302  0.00302  1.0000
  Ga  Ga2       1.0  0.49800  0.49800  0.49800  1.0000
  Zn  Zn1       1.0  0.24400  0.24400  0.24400  1.0000
  Zn  Zn2       1.0  0.75400  0.75400  0.75400  1.0000
  Zr  Zr1       1.0  0.38000  0.38000  0.38000  1.0000
  Zr  Zr2       1.0  0.62500  0.62500  0.62500  1.0000
  Zr  Zr3       1.0  0.87100  0.87100  0.87100  1.0000
