data_image0
_chemical_formula_structural       Cd2Ga2Hf3
_chemical_formula_sum              "Cd2 Ga2 Hf3"
_cell_length_a       8.22882
_cell_length_b       8.22882
_cell_length_c       8.22882
_cell_angle_alpha    33.3278
_cell_angle_beta     33.3278
_cell_angle_gamma    33.3278

_space_group_name_H-M_alt    "P 1"
_space_group_IT_number       1

loop_
  _space_group_symop_operation_xyz
  'x, y, z'

loop_
  _atom_site_type_symbol
  _atom_site_label
  _atom_site_symmetry_multiplicity
  _atom_site_fract_x
  _atom_site_fract_y
  _atom_site_fract_z
  _atom_site_occupancy
  Cd  Cd1       1.0  0.23900  0.23900  0.23900  1.0000
  Cd  Cd2       1.0  0.75700  0.75700  0.75700  1.0000
  Ga  Ga1       1.0  0.00402  0.00402  0.00402  1.0000
  Ga  Ga2       1.0  0.49700  0.49700  0.49700  1.0000
  Hf  Hf1       1.0  0.37500  0.37500  0.37500  1.0000
  Hf  Hf2       1.0  0.62600  0.62600  0.62600  1.0000
  Hf  Hf3       1.0  0.87700  0.87700  0.87700  1.0000
