data_image0
_chemical_formula_structural       Tl2Zn2Zr3
_chemical_formula_sum              "Tl2 Zn2 Zr3"
_cell_length_a       8.46491
_cell_length_b       8.46491
_cell_length_c       8.46491
_cell_angle_alpha    32.9938
_cell_angle_beta     32.9938
_cell_angle_gamma    32.9938

_space_group_name_H-M_alt    "P 1"
_space_group_IT_number       1

loop_
  _space_group_symop_operation_xyz
  'x, y, z'

loop_
  _atom_site_type_symbol
  _atom_site_label
  _atom_site_symmetry_multiplicity
  _atom_site_fract_x
  _atom_site_fract_y
  _atom_site_fract_z
  _atom_site_occupancy
  Tl  Tl1       1.0  0.24100  0.24100  0.24100  1.0000
  Tl  Tl2       1.0  0.75600  0.75600  0.75600  1.0000
  Zn  Zn1       1.0  0.00469  0.00469  0.00469  1.0000
  Zn  Zn2       1.0  0.49600  0.49600  0.49600  1.0000
  Zr  Zr1       1.0  0.37400  0.37400  0.37400  1.0000
  Zr  Zr2       1.0  0.62700  0.62700  0.62700  1.0000
  Zr  Zr3       1.0  0.87600  0.87600  0.87600  1.0000
