data_image0
_chemical_formula_structural       Hf3Hg2In2
_chemical_formula_sum              "Hf3 Hg2 In2"
_cell_length_a       8.41811
_cell_length_b       8.41811
_cell_length_c       8.41811
_cell_angle_alpha    33.7342
_cell_angle_beta     33.7342
_cell_angle_gamma    33.7342

_space_group_name_H-M_alt    "P 1"
_space_group_IT_number       1

loop_
  _space_group_symop_operation_xyz
  'x, y, z'

loop_
  _atom_site_type_symbol
  _atom_site_label
  _atom_site_symmetry_multiplicity
  _atom_site_fract_x
  _atom_site_fract_y
  _atom_site_fract_z
  _atom_site_occupancy
  Hf  Hf1       1.0  0.36900  0.36900  0.36900  1.0000
  Hf  Hf2       1.0  0.62500  0.62500  0.62500  1.0000
  Hf  Hf3       1.0  0.88000  0.88000  0.88000  1.0000
  Hg  Hg1       1.0  0.01250  0.01250  0.01250  1.0000
  Hg  Hg2       1.0  0.49200  0.49200  0.49200  1.0000
  In  In1       1.0  0.24200  0.24200  0.24200  1.0000
  In  In2       1.0  0.75600  0.75600  0.75600  1.0000
