data_image0
_chemical_formula_structural       Ca3Ni2Os2
_chemical_formula_sum              "Ca3 Ni2 Os2"
_cell_length_a       7.99756
_cell_length_b       7.99756
_cell_length_c       7.99756
_cell_angle_alpha    31.7704
_cell_angle_beta     31.7704
_cell_angle_gamma    31.7704

_space_group_name_H-M_alt    "P 1"
_space_group_IT_number       1

loop_
  _space_group_symop_operation_xyz
  'x, y, z'

loop_
  _atom_site_type_symbol
  _atom_site_label
  _atom_site_symmetry_multiplicity
  _atom_site_fract_x
  _atom_site_fract_y
  _atom_site_fract_z
  _atom_site_occupancy
  Ca  Ca1       1.0  0.34600  0.34600  0.34600  1.0000
  Ca  Ca2       1.0  0.62000  0.62000  0.62000  1.0000
  Ca  Ca3       1.0  0.87600  0.87600  0.87600  1.0000
  Ni  Ni1       1.0  0.21000  0.21000  0.21000  1.0000
  Ni  Ni2       1.0  0.75600  0.75600  0.75600  1.0000
  Os  Os1       1.0  0.10200  0.10200  0.10200  1.0000
  Os  Os2       1.0  0.46400  0.46400  0.46400  1.0000
