data_image0
_chemical_formula_structural       Al2Hg2Si3
_chemical_formula_sum              "Al2 Hg2 Si3"
_cell_length_a       9.46638
_cell_length_b       9.46638
_cell_length_c       9.46638
_cell_angle_alpha    25.7277
_cell_angle_beta     25.7277
_cell_angle_gamma    25.7277

_space_group_name_H-M_alt    "P 1"
_space_group_IT_number       1

loop_
  _space_group_symop_operation_xyz
  'x, y, z'

loop_
  _atom_site_type_symbol
  _atom_site_label
  _atom_site_symmetry_multiplicity
  _atom_site_fract_x
  _atom_site_fract_y
  _atom_site_fract_z
  _atom_site_occupancy
  Al  Al1       1.0  0.28100  0.28100  0.28100  1.0000
  Al  Al2       1.0  0.75700  0.75700  0.75700  1.0000
  Hg  Hg1       1.0  0.00499  0.00499  0.00499  1.0000
  Hg  Hg2       1.0  0.48500  0.48500  0.48500  1.0000
  Si  Si1       1.0  0.39000  0.39000  0.39000  1.0000
  Si  Si2       1.0  0.58100  0.58100  0.58100  1.0000
  Si  Si3       1.0  0.87700  0.87700  0.87700  1.0000
