data_image0
_chemical_formula_structural       Ca3Fe2Pt2
_chemical_formula_sum              "Ca3 Fe2 Pt2"
_cell_length_a       9.30154
_cell_length_b       9.30154
_cell_length_c       9.30154
_cell_angle_alpha    27.5595
_cell_angle_beta     27.5595
_cell_angle_gamma    27.5595

_space_group_name_H-M_alt    "P 1"
_space_group_IT_number       1

loop_
  _space_group_symop_operation_xyz
  'x, y, z'

loop_
  _atom_site_type_symbol
  _atom_site_label
  _atom_site_symmetry_multiplicity
  _atom_site_fract_x
  _atom_site_fract_y
  _atom_site_fract_z
  _atom_site_occupancy
  Ca  Ca1       1.0  0.39500  0.39500  0.39500  1.0000
  Ca  Ca2       1.0  0.63900  0.63900  0.63900  1.0000
  Ca  Ca3       1.0  0.89200  0.89200  0.89200  1.0000
  Fe  Fe1       1.0  0.14500  0.14500  0.14500  1.0000
  Fe  Fe2       1.0  0.79200  0.79200  0.79200  1.0000
  Pt  Pt1       1.0  0.01340  0.01340  0.01340  1.0000
  Pt  Pt2       1.0  0.49900  0.49900  0.49900  1.0000
