data_image0
_chemical_formula_structural       Cd2In2Ti3
_chemical_formula_sum              "Cd2 In2 Ti3"
_cell_length_a       7.78591
_cell_length_b       7.78591
_cell_length_c       7.78591
_cell_angle_alpha    35.3664
_cell_angle_beta     35.3664
_cell_angle_gamma    35.3664

_space_group_name_H-M_alt    "P 1"
_space_group_IT_number       1

loop_
  _space_group_symop_operation_xyz
  'x, y, z'

loop_
  _atom_site_type_symbol
  _atom_site_label
  _atom_site_symmetry_multiplicity
  _atom_site_fract_x
  _atom_site_fract_y
  _atom_site_fract_z
  _atom_site_occupancy
  Cd  Cd1       1.0  0.21600  0.21600  0.21600  1.0000
  Cd  Cd2       1.0  0.76300  0.76300  0.76300  1.0000
  In  In1       1.0  0.03210  0.03210  0.03210  1.0000
  In  In2       1.0  0.48800  0.48800  0.48800  1.0000
  Ti  Ti1       1.0  0.34400  0.34400  0.34400  1.0000
  Ti  Ti2       1.0  0.62600  0.62600  0.62600  1.0000
  Ti  Ti3       1.0  0.90600  0.90600  0.90600  1.0000
