data_image0
_chemical_formula_structural       In2Si3Zn2
_chemical_formula_sum              "In2 Si3 Zn2"
_cell_length_a       7.66948
_cell_length_b       7.66948
_cell_length_c       7.66948
_cell_angle_alpha    36.1762
_cell_angle_beta     36.1762
_cell_angle_gamma    36.1762

_space_group_name_H-M_alt    "P 1"
_space_group_IT_number       1

loop_
  _space_group_symop_operation_xyz
  'x, y, z'

loop_
  _atom_site_type_symbol
  _atom_site_label
  _atom_site_symmetry_multiplicity
  _atom_site_fract_x
  _atom_site_fract_y
  _atom_site_fract_z
  _atom_site_occupancy
  In  In1       1.0  0.01560  0.01560  0.01560  1.0000
  In  In2       1.0  0.49400  0.49400  0.49400  1.0000
  Si  Si1       1.0  0.35800  0.35800  0.35800  1.0000
  Si  Si2       1.0  0.63900  0.63900  0.63900  1.0000
  Si  Si3       1.0  0.87400  0.87400  0.87400  1.0000
  Zn  Zn1       1.0  0.23600  0.23600  0.23600  1.0000
  Zn  Zn2       1.0  0.75800  0.75800  0.75800  1.0000
