data_image0
_chemical_formula_structural       Al2Cd2Hf3
_chemical_formula_sum              "Al2 Cd2 Hf3"
_cell_length_a       7.73582
_cell_length_b       7.73582
_cell_length_c       7.73582
_cell_angle_alpha    35.9415
_cell_angle_beta     35.9415
_cell_angle_gamma    35.9415

_space_group_name_H-M_alt    "P 1"
_space_group_IT_number       1

loop_
  _space_group_symop_operation_xyz
  'x, y, z'

loop_
  _atom_site_type_symbol
  _atom_site_label
  _atom_site_symmetry_multiplicity
  _atom_site_fract_x
  _atom_site_fract_y
  _atom_site_fract_z
  _atom_site_occupancy
  Al  Al1       1.0  0.21200  0.21200  0.21200  1.0000
  Al  Al2       1.0  0.76100  0.76100  0.76100  1.0000
  Cd  Cd1       1.0  0.05020  0.05020  0.05020  1.0000
  Cd  Cd2       1.0  0.48400  0.48400  0.48400  1.0000
  Hf  Hf1       1.0  0.34100  0.34100  0.34100  1.0000
  Hf  Hf2       1.0  0.62500  0.62500  0.62500  1.0000
  Hf  Hf3       1.0  0.90200  0.90200  0.90200  1.0000
