data_image0
_chemical_formula_structural       Os2Pt2Sr3
_chemical_formula_sum              "Os2 Pt2 Sr3"
_cell_length_a       8.86767
_cell_length_b       8.86767
_cell_length_c       8.86767
_cell_angle_alpha    30.4993
_cell_angle_beta     30.4993
_cell_angle_gamma    30.4993

_space_group_name_H-M_alt    "P 1"
_space_group_IT_number       1

loop_
  _space_group_symop_operation_xyz
  'x, y, z'

loop_
  _atom_site_type_symbol
  _atom_site_label
  _atom_site_symmetry_multiplicity
  _atom_site_fract_x
  _atom_site_fract_y
  _atom_site_fract_z
  _atom_site_occupancy
  Os  Os1       1.0  0.13600  0.13600  0.13600  1.0000
  Os  Os2       1.0  0.78800  0.78800  0.78800  1.0000
  Pt  Pt1       1.0  0.02160  0.02160  0.02160  1.0000
  Pt  Pt2       1.0  0.50500  0.50500  0.50500  1.0000
  Sr  Sr1       1.0  0.39100  0.39100  0.39100  1.0000
  Sr  Sr2       1.0  0.63900  0.63900  0.63900  1.0000
  Sr  Sr3       1.0  0.89500  0.89500  0.89500  1.0000
