data_image0
_chemical_formula_structural       Ag2Ba3Mn2
_chemical_formula_sum              "Ag2 Ba3 Mn2"
_cell_length_a       9.72392
_cell_length_b       9.72392
_cell_length_c       9.72392
_cell_angle_alpha    33.7616
_cell_angle_beta     33.7616
_cell_angle_gamma    33.7616

_space_group_name_H-M_alt    "P 1"
_space_group_IT_number       1

loop_
  _space_group_symop_operation_xyz
  'x, y, z'

loop_
  _atom_site_type_symbol
  _atom_site_label
  _atom_site_symmetry_multiplicity
  _atom_site_fract_x
  _atom_site_fract_y
  _atom_site_fract_z
  _atom_site_occupancy
  Ag  Ag1       1.0  0.00430  0.00430  0.00430  1.0000
  Ag  Ag2       1.0  0.50700  0.50700  0.50700  1.0000
  Ba  Ba1       1.0  0.38500  0.38500  0.38500  1.0000
  Ba  Ba2       1.0  0.62700  0.62700  0.62700  1.0000
  Ba  Ba3       1.0  0.86700  0.86700  0.86700  1.0000
  Mn  Mn1       1.0  0.23700  0.23700  0.23700  1.0000
  Mn  Mn2       1.0  0.74800  0.74800  0.74800  1.0000
