data_image0
_chemical_formula_structural       Ga2Hg2Si3
_chemical_formula_sum              "Ga2 Hg2 Si3"
_cell_length_a       9.78086
_cell_length_b       9.78086
_cell_length_c       9.78086
_cell_angle_alpha    25.5957
_cell_angle_beta     25.5957
_cell_angle_gamma    25.5957

_space_group_name_H-M_alt    "P 1"
_space_group_IT_number       1

loop_
  _space_group_symop_operation_xyz
  'x, y, z'

loop_
  _atom_site_type_symbol
  _atom_site_label
  _atom_site_symmetry_multiplicity
  _atom_site_fract_x
  _atom_site_fract_y
  _atom_site_fract_z
  _atom_site_occupancy
  Ga  Ga1       1.0  0.28300  0.28300  0.28300  1.0000
  Ga  Ga2       1.0  0.75000  0.75000  0.75000  1.0000
  Hg  Hg1       1.0  0.00934  0.00934  0.00934  1.0000
  Hg  Hg2       1.0  0.47600  0.47600  0.47600  1.0000
  Si  Si1       1.0  0.38200  0.38200  0.38200  1.0000
  Si  Si2       1.0  0.56300  0.56300  0.56300  1.0000
  Si  Si3       1.0  0.91200  0.91200  0.91200  1.0000
