data_image0
_chemical_formula_structural       Au2Be3Re2
_chemical_formula_sum              "Au2 Be3 Re2"
_cell_length_a       6.9134
_cell_length_b       6.9134
_cell_length_c       6.9134
_cell_angle_alpha    33.9271
_cell_angle_beta     33.9271
_cell_angle_gamma    33.9271

_space_group_name_H-M_alt    "P 1"
_space_group_IT_number       1

loop_
  _space_group_symop_operation_xyz
  'x, y, z'

loop_
  _atom_site_type_symbol
  _atom_site_label
  _atom_site_symmetry_multiplicity
  _atom_site_fract_x
  _atom_site_fract_y
  _atom_site_fract_z
  _atom_site_occupancy
  Au  Au1       1.0  0.00193  0.00193  0.00193  1.0000
  Au  Au2       1.0  0.49700  0.49700  0.49700  1.0000
  Be  Be1       1.0  0.37500  0.37500  0.37500  1.0000
  Be  Be2       1.0  0.62600  0.62600  0.62600  1.0000
  Be  Be3       1.0  0.87500  0.87500  0.87500  1.0000
  Re  Re1       1.0  0.24600  0.24600  0.24600  1.0000
  Re  Re2       1.0  0.75400  0.75400  0.75400  1.0000
