data_image0
_chemical_formula_structural       Hg2In2Si3
_chemical_formula_sum              "Hg2 In2 Si3"
_cell_length_a       8.15831
_cell_length_b       8.15831
_cell_length_c       8.15831
_cell_angle_alpha    34.7768
_cell_angle_beta     34.7768
_cell_angle_gamma    34.7768

_space_group_name_H-M_alt    "P 1"
_space_group_IT_number       1

loop_
  _space_group_symop_operation_xyz
  'x, y, z'

loop_
  _atom_site_type_symbol
  _atom_site_label
  _atom_site_symmetry_multiplicity
  _atom_site_fract_x
  _atom_site_fract_y
  _atom_site_fract_z
  _atom_site_occupancy
  Hg  Hg1       1.0  0.01070  0.01070  0.01070  1.0000
  Hg  Hg2       1.0  0.49200  0.49200  0.49200  1.0000
  In  In1       1.0  0.24300  0.24300  0.24300  1.0000
  In  In2       1.0  0.75500  0.75500  0.75500  1.0000
  Si  Si1       1.0  0.37000  0.37000  0.37000  1.0000
  Si  Si2       1.0  0.62400  0.62400  0.62400  1.0000
  Si  Si3       1.0  0.87900  0.87900  0.87900  1.0000
