data_image0
_chemical_formula_structural       La2Si3Zn2
_chemical_formula_sum              "La2 Si3 Zn2"
_cell_length_a       10.2061
_cell_length_b       10.2061
_cell_length_c       10.2061
_cell_angle_alpha    24.0668
_cell_angle_beta     24.0668
_cell_angle_gamma    24.0668

_space_group_name_H-M_alt    "P 1"
_space_group_IT_number       1

loop_
  _space_group_symop_operation_xyz
  'x, y, z'

loop_
  _atom_site_type_symbol
  _atom_site_label
  _atom_site_symmetry_multiplicity
  _atom_site_fract_x
  _atom_site_fract_y
  _atom_site_fract_z
  _atom_site_occupancy
  La  La1       1.0  0.25000  0.25000  0.25000  1.0000
  La  La2       1.0  0.75400  0.75400  0.75400  1.0000
  Si  Si1       1.0  0.35700  0.35700  0.35700  1.0000
  Si  Si2       1.0  0.64900  0.64900  0.64900  1.0000
  Si  Si3       1.0  0.85500  0.85500  0.85500  1.0000
  Zn  Zn1       1.0  0.00451  0.00451  0.00451  1.0000
  Zn  Zn2       1.0  0.50500  0.50500  0.50500  1.0000
