data_image0
_chemical_formula_structural       Ca3Mo2Zn2
_chemical_formula_sum              "Ca3 Mo2 Zn2"
_cell_length_a       9.28362
_cell_length_b       9.28362
_cell_length_c       9.28362
_cell_angle_alpha    29.3522
_cell_angle_beta     29.3522
_cell_angle_gamma    29.3522

_space_group_name_H-M_alt    "P 1"
_space_group_IT_number       1

loop_
  _space_group_symop_operation_xyz
  'x, y, z'

loop_
  _atom_site_type_symbol
  _atom_site_label
  _atom_site_symmetry_multiplicity
  _atom_site_fract_x
  _atom_site_fract_y
  _atom_site_fract_z
  _atom_site_occupancy
  Ca  Ca1       1.0  0.35900  0.35900  0.35900  1.0000
  Ca  Ca2       1.0  0.60500  0.60500  0.60500  1.0000
  Ca  Ca3       1.0  0.85900  0.85900  0.85900  1.0000
  Mo  Mo1       1.0  0.11800  0.11800  0.11800  1.0000
  Mo  Mo2       1.0  0.46900  0.46900  0.46900  1.0000
  Zn  Zn1       1.0  0.21700  0.21700  0.21700  1.0000
  Zn  Zn2       1.0  0.74900  0.74900  0.74900  1.0000
