data_image0
_chemical_formula_structural       Cd2La2Si3
_chemical_formula_sum              "Cd2 La2 Si3"
_cell_length_a       8.75514
_cell_length_b       8.75514
_cell_length_c       8.75514
_cell_angle_alpha    32.1822
_cell_angle_beta     32.1822
_cell_angle_gamma    32.1822

_space_group_name_H-M_alt    "P 1"
_space_group_IT_number       1

loop_
  _space_group_symop_operation_xyz
  'x, y, z'

loop_
  _atom_site_type_symbol
  _atom_site_label
  _atom_site_symmetry_multiplicity
  _atom_site_fract_x
  _atom_site_fract_y
  _atom_site_fract_z
  _atom_site_occupancy
  Cd  Cd1       1.0  0.50000  0.50000  0.50000  1.0000
  Cd  Cd2       1.0  1.00000  1.00000  0.00000  1.0000
  La  La1       1.0  0.25200  0.25200  0.25200  1.0000
  La  La2       1.0  0.74800  0.74800  0.74800  1.0000
  Si  Si1       1.0  0.38100  0.38100  0.38100  1.0000
  Si  Si2       1.0  0.62900  0.62900  0.62900  1.0000
  Si  Si3       1.0  0.86500  0.86500  0.86500  1.0000
