data_image0
_chemical_formula_structural       Cd2Ga2Si3
_chemical_formula_sum              "Cd2 Ga2 Si3"
_cell_length_a       8.28111
_cell_length_b       8.28111
_cell_length_c       8.28111
_cell_angle_alpha    31.9451
_cell_angle_beta     31.9451
_cell_angle_gamma    31.9451

_space_group_name_H-M_alt    "P 1"
_space_group_IT_number       1

loop_
  _space_group_symop_operation_xyz
  'x, y, z'

loop_
  _atom_site_type_symbol
  _atom_site_label
  _atom_site_symmetry_multiplicity
  _atom_site_fract_x
  _atom_site_fract_y
  _atom_site_fract_z
  _atom_site_occupancy
  Cd  Cd1       1.0  0.23900  0.23900  0.23900  1.0000
  Cd  Cd2       1.0  0.76200  0.76200  0.76200  1.0000
  Ga  Ga1       1.0  0.49600  0.49600  0.49600  1.0000
  Ga  Ga2       1.0  0.98600  0.98600  0.98600  1.0000
  Si  Si1       1.0  0.36700  0.36700  0.36700  1.0000
  Si  Si2       1.0  0.65300  0.65300  0.65300  1.0000
  Si  Si3       1.0  0.87200  0.87200  0.87200  1.0000
