data_image0
_chemical_formula_structural       Ca3Cd2Mo2
_chemical_formula_sum              "Ca3 Cd2 Mo2"
_cell_length_a       9.19207
_cell_length_b       9.19207
_cell_length_c       9.19207
_cell_angle_alpha    30.1512
_cell_angle_beta     30.1512
_cell_angle_gamma    30.1512

_space_group_name_H-M_alt    "P 1"
_space_group_IT_number       1

loop_
  _space_group_symop_operation_xyz
  'x, y, z'

loop_
  _atom_site_type_symbol
  _atom_site_label
  _atom_site_symmetry_multiplicity
  _atom_site_fract_x
  _atom_site_fract_y
  _atom_site_fract_z
  _atom_site_occupancy
  Ca  Ca1       1.0  0.35800  0.35800  0.35800  1.0000
  Ca  Ca2       1.0  0.61100  0.61100  0.61100  1.0000
  Ca  Ca3       1.0  0.85400  0.85400  0.85400  1.0000
  Cd  Cd1       1.0  0.22400  0.22400  0.22400  1.0000
  Cd  Cd2       1.0  0.74200  0.74200  0.74200  1.0000
  Mo  Mo1       1.0  0.11700  0.11700  0.11700  1.0000
  Mo  Mo2       1.0  0.46900  0.46900  0.46900  1.0000
