data_image0
_chemical_formula_structural       Cd2Hf3Y2
_chemical_formula_sum              "Cd2 Hf3 Y2"
_cell_length_a       8.1449
_cell_length_b       8.1449
_cell_length_c       8.1449
_cell_angle_alpha    36.3597
_cell_angle_beta     36.3597
_cell_angle_gamma    36.3597

_space_group_name_H-M_alt    "P 1"
_space_group_IT_number       1

loop_
  _space_group_symop_operation_xyz
  'x, y, z'

loop_
  _atom_site_type_symbol
  _atom_site_label
  _atom_site_symmetry_multiplicity
  _atom_site_fract_x
  _atom_site_fract_y
  _atom_site_fract_z
  _atom_site_occupancy
  Cd  Cd1       1.0  0.05960  0.05960  0.05960  1.0000
  Cd  Cd2       1.0  0.47500  0.47500  0.47500  1.0000
  Hf  Hf1       1.0  0.33500  0.33500  0.33500  1.0000
  Hf  Hf2       1.0  0.61000  0.61000  0.61000  1.0000
  Hf  Hf3       1.0  0.93400  0.93400  0.93400  1.0000
  Y   Y1        1.0  0.20000  0.20000  0.20000  1.0000
  Y   Y2        1.0  0.76200  0.76200  0.76200  1.0000
