data_image0
_chemical_formula_structural       Hg2La2Si3
_chemical_formula_sum              "Hg2 La2 Si3"
_cell_length_a       9.48998
_cell_length_b       9.48998
_cell_length_c       9.48998
_cell_angle_alpha    28.2698
_cell_angle_beta     28.2698
_cell_angle_gamma    28.2698

_space_group_name_H-M_alt    "P 1"
_space_group_IT_number       1

loop_
  _space_group_symop_operation_xyz
  'x, y, z'

loop_
  _atom_site_type_symbol
  _atom_site_label
  _atom_site_symmetry_multiplicity
  _atom_site_fract_x
  _atom_site_fract_y
  _atom_site_fract_z
  _atom_site_occupancy
  Hg  Hg1       1.0  0.00125  0.00125  0.00125  1.0000
  Hg  Hg2       1.0  0.50000  0.50000  0.50000  1.0000
  La  La1       1.0  0.24900  0.24900  0.24900  1.0000
  La  La2       1.0  0.75100  0.75100  0.75100  1.0000
  Si  Si1       1.0  0.37500  0.37500  0.37500  1.0000
  Si  Si2       1.0  0.63900  0.63900  0.63900  1.0000
  Si  Si3       1.0  0.85900  0.85900  0.85900  1.0000
