data_image0
_chemical_formula_structural       Hf3Hg2Sc2
_chemical_formula_sum              "Hf3 Hg2 Sc2"
_cell_length_a       7.87249
_cell_length_b       7.87249
_cell_length_c       7.87249
_cell_angle_alpha    36.4127
_cell_angle_beta     36.4127
_cell_angle_gamma    36.4127

_space_group_name_H-M_alt    "P 1"
_space_group_IT_number       1

loop_
  _space_group_symop_operation_xyz
  'x, y, z'

loop_
  _atom_site_type_symbol
  _atom_site_label
  _atom_site_symmetry_multiplicity
  _atom_site_fract_x
  _atom_site_fract_y
  _atom_site_fract_z
  _atom_site_occupancy
  Hf  Hf1       1.0  0.33600  0.33600  0.33600  1.0000
  Hf  Hf2       1.0  0.61100  0.61100  0.61100  1.0000
  Hf  Hf3       1.0  0.92700  0.92700  0.92700  1.0000
  Hg  Hg1       1.0  0.05840  0.05840  0.05840  1.0000
  Hg  Hg2       1.0  0.47900  0.47900  0.47900  1.0000
  Sc  Sc1       1.0  0.19800  0.19800  0.19800  1.0000
  Sc  Sc2       1.0  0.76600  0.76600  0.76600  1.0000
