data_image0
_chemical_formula_structural       Cd2La2Zr3
_chemical_formula_sum              "Cd2 La2 Zr3"
_cell_length_a       8.33283
_cell_length_b       8.33283
_cell_length_c       8.33283
_cell_angle_alpha    36.8741
_cell_angle_beta     36.8741
_cell_angle_gamma    36.8741

_space_group_name_H-M_alt    "P 1"
_space_group_IT_number       1

loop_
  _space_group_symop_operation_xyz
  'x, y, z'

loop_
  _atom_site_type_symbol
  _atom_site_label
  _atom_site_symmetry_multiplicity
  _atom_site_fract_x
  _atom_site_fract_y
  _atom_site_fract_z
  _atom_site_occupancy
  Cd  Cd1       1.0  0.05620  0.05620  0.05620  1.0000
  Cd  Cd2       1.0  0.47700  0.47700  0.47700  1.0000
  La  La1       1.0  0.20000  0.20000  0.20000  1.0000
  La  La2       1.0  0.75900  0.75900  0.75900  1.0000
  Zr  Zr1       1.0  0.33600  0.33600  0.33600  1.0000
  Zr  Zr2       1.0  0.61300  0.61300  0.61300  1.0000
  Zr  Zr3       1.0  0.93500  0.93500  0.93500  1.0000
