data_image0
_chemical_formula_structural       B2Hf3Hg2
_chemical_formula_sum              "B2 Hf3 Hg2"
_cell_length_a       12.553
_cell_length_b       12.553
_cell_length_c       12.553
_cell_angle_alpha    16.0372
_cell_angle_beta     16.0372
_cell_angle_gamma    16.0372

_space_group_name_H-M_alt    "P 1"
_space_group_IT_number       1

loop_
  _space_group_symop_operation_xyz
  'x, y, z'

loop_
  _atom_site_type_symbol
  _atom_site_label
  _atom_site_symmetry_multiplicity
  _atom_site_fract_x
  _atom_site_fract_y
  _atom_site_fract_z
  _atom_site_occupancy
  B   B1        1.0  0.00020  0.00020  0.00020  1.0000
  B   B2        1.0  0.53500  0.53500  0.53500  1.0000
  Hf  Hf1       1.0  0.36600  0.36600  0.36600  1.0000
  Hf  Hf2       1.0  0.63200  0.63200  0.63200  1.0000
  Hf  Hf3       1.0  0.84100  0.84100  0.84100  1.0000
  Hg  Hg1       1.0  0.23900  0.23900  0.23900  1.0000
  Hg  Hg2       1.0  0.76200  0.76200  0.76200  1.0000
