data_image0
_chemical_formula_structural       Ba3Ni2Os2
_chemical_formula_sum              "Ba3 Ni2 Os2"
_cell_length_a       9.29189
_cell_length_b       9.29189
_cell_length_c       9.29189
_cell_angle_alpha    31.4581
_cell_angle_beta     31.4581
_cell_angle_gamma    31.4581

_space_group_name_H-M_alt    "P 1"
_space_group_IT_number       1

loop_
  _space_group_symop_operation_xyz
  'x, y, z'

loop_
  _atom_site_type_symbol
  _atom_site_label
  _atom_site_symmetry_multiplicity
  _atom_site_fract_x
  _atom_site_fract_y
  _atom_site_fract_z
  _atom_site_occupancy
  Ba  Ba1       1.0  0.40300  0.40300  0.40300  1.0000
  Ba  Ba2       1.0  0.63300  0.63300  0.63300  1.0000
  Ba  Ba3       1.0  0.85800  0.85800  0.85800  1.0000
  Ni  Ni1       1.0  0.15800  0.15800  0.15800  1.0000
  Ni  Ni2       1.0  0.73900  0.73900  0.73900  1.0000
  Os  Os1       1.0  0.06910  0.06910  0.06910  1.0000
  Os  Os2       1.0  0.51500  0.51500  0.51500  1.0000
