data_image0
_chemical_formula_structural       Al2Ti3Zn2
_chemical_formula_sum              "Al2 Ti3 Zn2"
_cell_length_a       7.05297
_cell_length_b       7.05297
_cell_length_c       7.05297
_cell_angle_alpha    36.5672
_cell_angle_beta     36.5672
_cell_angle_gamma    36.5672

_space_group_name_H-M_alt    "P 1"
_space_group_IT_number       1

loop_
  _space_group_symop_operation_xyz
  'x, y, z'

loop_
  _atom_site_type_symbol
  _atom_site_label
  _atom_site_symmetry_multiplicity
  _atom_site_fract_x
  _atom_site_fract_y
  _atom_site_fract_z
  _atom_site_occupancy
  Al  Al1       1.0  0.20200  0.20200  0.20200  1.0000
  Al  Al2       1.0  0.76600  0.76600  0.76600  1.0000
  Ti  Ti1       1.0  0.34000  0.34000  0.34000  1.0000
  Ti  Ti2       1.0  0.62400  0.62400  0.62400  1.0000
  Ti  Ti3       1.0  0.91200  0.91200  0.91200  1.0000
  Zn  Zn1       1.0  0.04680  0.04680  0.04680  1.0000
  Zn  Zn2       1.0  0.48500  0.48500  0.48500  1.0000
