data_image0
_chemical_formula_structural       B2Cd2Ti3
_chemical_formula_sum              "B2 Cd2 Ti3"
_cell_length_a       9.48482
_cell_length_b       9.48482
_cell_length_c       9.48482
_cell_angle_alpha    22.5285
_cell_angle_beta     22.5285
_cell_angle_gamma    22.5285

_space_group_name_H-M_alt    "P 1"
_space_group_IT_number       1

loop_
  _space_group_symop_operation_xyz
  'x, y, z'

loop_
  _atom_site_type_symbol
  _atom_site_label
  _atom_site_symmetry_multiplicity
  _atom_site_fract_x
  _atom_site_fract_y
  _atom_site_fract_z
  _atom_site_occupancy
  B   B1        1.0  0.54600  0.54600  0.54600  1.0000
  B   B2        1.0  0.99500  0.99500  0.99500  1.0000
  Cd  Cd1       1.0  0.16800  0.16800  0.16800  1.0000
  Cd  Cd2       1.0  0.76500  0.76500  0.76500  1.0000
  Ti  Ti1       1.0  0.36200  0.36200  0.36200  1.0000
  Ti  Ti2       1.0  0.63500  0.63500  0.63500  1.0000
  Ti  Ti3       1.0  0.90400  0.90400  0.90400  1.0000
