data_image0
_chemical_formula_structural       Hf3Hg2La2
_chemical_formula_sum              "Hf3 Hg2 La2"
_cell_length_a       8.4081
_cell_length_b       8.4081
_cell_length_c       8.4081
_cell_angle_alpha    36.03
_cell_angle_beta     36.03
_cell_angle_gamma    36.03

_space_group_name_H-M_alt    "P 1"
_space_group_IT_number       1

loop_
  _space_group_symop_operation_xyz
  'x, y, z'

loop_
  _atom_site_type_symbol
  _atom_site_label
  _atom_site_symmetry_multiplicity
  _atom_site_fract_x
  _atom_site_fract_y
  _atom_site_fract_z
  _atom_site_occupancy
  Hf  Hf1       1.0  0.33300  0.33300  0.33300  1.0000
  Hf  Hf2       1.0  0.61100  0.61100  0.61100  1.0000
  Hf  Hf3       1.0  0.93800  0.93800  0.93800  1.0000
  Hg  Hg1       1.0  0.05660  0.05660  0.05660  1.0000
  Hg  Hg2       1.0  0.47900  0.47900  0.47900  1.0000
  La  La1       1.0  0.20000  0.20000  0.20000  1.0000
  La  La2       1.0  0.75800  0.75800  0.75800  1.0000
