data_image0
_chemical_formula_structural       Hf3Sc2Zn2
_chemical_formula_sum              "Hf3 Sc2 Zn2"
_cell_length_a       7.59978
_cell_length_b       7.59978
_cell_length_c       7.59978
_cell_angle_alpha    37.0088
_cell_angle_beta     37.0088
_cell_angle_gamma    37.0088

_space_group_name_H-M_alt    "P 1"
_space_group_IT_number       1

loop_
  _space_group_symop_operation_xyz
  'x, y, z'

loop_
  _atom_site_type_symbol
  _atom_site_label
  _atom_site_symmetry_multiplicity
  _atom_site_fract_x
  _atom_site_fract_y
  _atom_site_fract_z
  _atom_site_occupancy
  Hf  Hf1       1.0  0.34000  0.34000  0.34000  1.0000
  Hf  Hf2       1.0  0.60700  0.60700  0.60700  1.0000
  Hf  Hf3       1.0  0.93100  0.93100  0.93100  1.0000
  Sc  Sc1       1.0  0.19600  0.19600  0.19600  1.0000
  Sc  Sc2       1.0  0.76600  0.76600  0.76600  1.0000
  Zn  Zn1       1.0  0.06230  0.06230  0.06230  1.0000
  Zn  Zn2       1.0  0.47400  0.47400  0.47400  1.0000
