data_image0
_chemical_formula_structural       Au2Ca3Re2
_chemical_formula_sum              "Au2 Ca3 Re2"
_cell_length_a       8.48984
_cell_length_b       8.48984
_cell_length_c       8.48984
_cell_angle_alpha    31.6738
_cell_angle_beta     31.6738
_cell_angle_gamma    31.6738

_space_group_name_H-M_alt    "P 1"
_space_group_IT_number       1

loop_
  _space_group_symop_operation_xyz
  'x, y, z'

loop_
  _atom_site_type_symbol
  _atom_site_label
  _atom_site_symmetry_multiplicity
  _atom_site_fract_x
  _atom_site_fract_y
  _atom_site_fract_z
  _atom_site_occupancy
  Au  Au1       1.0  0.02150  0.02150  0.02150  1.0000
  Au  Au2       1.0  0.51200  0.51200  0.51200  1.0000
  Ca  Ca1       1.0  0.39200  0.39200  0.39200  1.0000
  Ca  Ca2       1.0  0.63900  0.63900  0.63900  1.0000
  Ca  Ca3       1.0  0.89400  0.89400  0.89400  1.0000
  Re  Re1       1.0  0.13500  0.13500  0.13500  1.0000
  Re  Re2       1.0  0.78100  0.78100  0.78100  1.0000
