data_image0
_chemical_formula_structural       Hf3La2Zn2
_chemical_formula_sum              "Hf3 La2 Zn2"
_cell_length_a       8.05592
_cell_length_b       8.05592
_cell_length_c       8.05592
_cell_angle_alpha    36.915
_cell_angle_beta     36.915
_cell_angle_gamma    36.915

_space_group_name_H-M_alt    "P 1"
_space_group_IT_number       1

loop_
  _space_group_symop_operation_xyz
  'x, y, z'

loop_
  _atom_site_type_symbol
  _atom_site_label
  _atom_site_symmetry_multiplicity
  _atom_site_fract_x
  _atom_site_fract_y
  _atom_site_fract_z
  _atom_site_occupancy
  Hf  Hf1       1.0  0.33900  0.33900  0.33900  1.0000
  Hf  Hf2       1.0  0.61100  0.61100  0.61100  1.0000
  Hf  Hf3       1.0  0.93700  0.93700  0.93700  1.0000
  La  La1       1.0  0.19600  0.19600  0.19600  1.0000
  La  La2       1.0  0.75900  0.75900  0.75900  1.0000
  Zn  Zn1       1.0  0.05580  0.05580  0.05580  1.0000
  Zn  Zn2       1.0  0.47600  0.47600  0.47600  1.0000
