data_image0
_chemical_formula_structural       Be3Ni2Ru2
_chemical_formula_sum              "Be3 Ni2 Ru2"
_cell_length_a       6.39366
_cell_length_b       6.39366
_cell_length_c       6.39366
_cell_angle_alpha    34.289
_cell_angle_beta     34.289
_cell_angle_gamma    34.289

_space_group_name_H-M_alt    "P 1"
_space_group_IT_number       1

loop_
  _space_group_symop_operation_xyz
  'x, y, z'

loop_
  _atom_site_type_symbol
  _atom_site_label
  _atom_site_symmetry_multiplicity
  _atom_site_fract_x
  _atom_site_fract_y
  _atom_site_fract_z
  _atom_site_occupancy
  Be  Be1       1.0  0.37000  0.37000  0.37000  1.0000
  Be  Be2       1.0  0.62300  0.62300  0.62300  1.0000
  Be  Be3       1.0  0.87900  0.87900  0.87900  1.0000
  Ni  Ni1       1.0  0.24700  0.24700  0.24700  1.0000
  Ni  Ni2       1.0  0.75500  0.75500  0.75500  1.0000
  Ru  Ru1       1.0  0.00750  0.00750  0.00750  1.0000
  Ru  Ru2       1.0  0.49400  0.49400  0.49400  1.0000
