data_image0
_chemical_formula_structural       Cd2Sc2Zr3
_chemical_formula_sum              "Cd2 Sc2 Zr3"
_cell_length_a       7.9053
_cell_length_b       7.9053
_cell_length_c       7.9053
_cell_angle_alpha    36.6748
_cell_angle_beta     36.6748
_cell_angle_gamma    36.6748

_space_group_name_H-M_alt    "P 1"
_space_group_IT_number       1

loop_
  _space_group_symop_operation_xyz
  'x, y, z'

loop_
  _atom_site_type_symbol
  _atom_site_label
  _atom_site_symmetry_multiplicity
  _atom_site_fract_x
  _atom_site_fract_y
  _atom_site_fract_z
  _atom_site_occupancy
  Cd  Cd1       1.0  0.06000  0.06000  0.06000  1.0000
  Cd  Cd2       1.0  0.47700  0.47700  0.47700  1.0000
  Sc  Sc1       1.0  0.19800  0.19800  0.19800  1.0000
  Sc  Sc2       1.0  0.76600  0.76600  0.76600  1.0000
  Zr  Zr1       1.0  0.33700  0.33700  0.33700  1.0000
  Zr  Zr2       1.0  0.61100  0.61100  0.61100  1.0000
  Zr  Zr3       1.0  0.92600  0.92600  0.92600  1.0000
