data_image0
_chemical_formula_structural       Cd2Ga2Zr3
_chemical_formula_sum              "Cd2 Ga2 Zr3"
_cell_length_a       8.32934
_cell_length_b       8.32934
_cell_length_c       8.32934
_cell_angle_alpha    33.1811
_cell_angle_beta     33.1811
_cell_angle_gamma    33.1811

_space_group_name_H-M_alt    "P 1"
_space_group_IT_number       1

loop_
  _space_group_symop_operation_xyz
  'x, y, z'

loop_
  _atom_site_type_symbol
  _atom_site_label
  _atom_site_symmetry_multiplicity
  _atom_site_fract_x
  _atom_site_fract_y
  _atom_site_fract_z
  _atom_site_occupancy
  Cd  Cd1       1.0  0.24000  0.24000  0.24000  1.0000
  Cd  Cd2       1.0  0.75600  0.75600  0.75600  1.0000
  Ga  Ga1       1.0  0.00294  0.00294  0.00294  1.0000
  Ga  Ga2       1.0  0.49800  0.49800  0.49800  1.0000
  Zr  Zr1       1.0  0.37600  0.37600  0.37600  1.0000
  Zr  Zr2       1.0  0.62600  0.62600  0.62600  1.0000
  Zr  Zr3       1.0  0.87500  0.87500  0.87500  1.0000
