data_image0
_chemical_formula_structural       Al2Si3Zn2
_chemical_formula_sum              "Al2 Si3 Zn2"
_cell_length_a       8.26403
_cell_length_b       8.26403
_cell_length_c       8.26403
_cell_angle_alpha    29.1499
_cell_angle_beta     29.1499
_cell_angle_gamma    29.1499

_space_group_name_H-M_alt    "P 1"
_space_group_IT_number       1

loop_
  _space_group_symop_operation_xyz
  'x, y, z'

loop_
  _atom_site_type_symbol
  _atom_site_label
  _atom_site_symmetry_multiplicity
  _atom_site_fract_x
  _atom_site_fract_y
  _atom_site_fract_z
  _atom_site_occupancy
  Al  Al1       1.0  0.24700  0.24700  0.24700  1.0000
  Al  Al2       1.0  0.75600  0.75600  0.75600  1.0000
  Si  Si1       1.0  0.38200  0.38200  0.38200  1.0000
  Si  Si2       1.0  0.62800  0.62800  0.62800  1.0000
  Si  Si3       1.0  0.86400  0.86400  0.86400  1.0000
  Zn  Zn1       1.0  0.00713  0.00713  0.00713  1.0000
  Zn  Zn2       1.0  0.49100  0.49100  0.49100  1.0000
