data_image0
_chemical_formula_structural       Cu2Re2Sr3
_chemical_formula_sum              "Cu2 Re2 Sr3"
_cell_length_a       12.7332
_cell_length_b       12.7332
_cell_length_c       12.7332
_cell_angle_alpha    19.4883
_cell_angle_beta     19.4883
_cell_angle_gamma    19.4883

_space_group_name_H-M_alt    "P 1"
_space_group_IT_number       1

loop_
  _space_group_symop_operation_xyz
  'x, y, z'

loop_
  _atom_site_type_symbol
  _atom_site_label
  _atom_site_symmetry_multiplicity
  _atom_site_fract_x
  _atom_site_fract_y
  _atom_site_fract_z
  _atom_site_occupancy
  Cu  Cu1       1.0  0.01970  0.01970  0.01970  1.0000
  Cu  Cu2       1.0  0.49300  0.49300  0.49300  1.0000
  Re  Re1       1.0  0.13900  0.13900  0.13900  1.0000
  Re  Re2       1.0  0.79800  0.79800  0.79800  1.0000
  Sr  Sr1       1.0  0.40600  0.40600  0.40600  1.0000
  Sr  Sr2       1.0  0.64000  0.64000  0.64000  1.0000
  Sr  Sr3       1.0  0.87900  0.87900  0.87900  1.0000
