data_image0
_chemical_formula_structural       Ba10Cl2Mn6O24
_chemical_formula_sum              "Ba10 Cl2 Mn6 O24"
_cell_length_a       10.4482
_cell_length_b       10.4481
_cell_length_c       7.75786
_cell_angle_alpha    90
_cell_angle_beta     90
_cell_angle_gamma    120

_space_group_name_H-M_alt    "P 1"
_space_group_IT_number       1

loop_
  _space_group_symop_operation_xyz
  'x, y, z'

loop_
  _atom_site_type_symbol
  _atom_site_label
  _atom_site_symmetry_multiplicity
  _atom_site_fract_x
  _atom_site_fract_y
  _atom_site_fract_z
  _atom_site_occupancy
  Ba  Ba1       1.0  0.33300  0.66700  0.00122  1.0000
  Ba  Ba2       1.0  0.25600  0.01340  0.25000  1.0000
  Ba  Ba3       1.0  0.98700  0.24200  0.25000  1.0000
  Ba  Ba4       1.0  0.75800  0.74400  0.25000  1.0000
  Ba  Ba5       1.0  0.33300  0.66700  0.49900  1.0000
  Ba  Ba6       1.0  0.66700  0.33300  0.50100  1.0000
  Ba  Ba7       1.0  0.24200  0.25600  0.75000  1.0000
  Ba  Ba8       1.0  0.01340  0.75800  0.75000  1.0000
  Ba  Ba9       1.0  0.74400  0.98700  0.75000  1.0000
  Ba  Ba10      1.0  0.66700  0.33300  0.99900  1.0000
  Cl  Cl1       1.0  0.00000  0.00000  0.00000  1.0000
  Cl  Cl2       1.0  0.00000  0.00000  0.50000  1.0000
  Mn  Mn1       1.0  0.37100  0.40400  0.25000  1.0000
  Mn  Mn2       1.0  0.03340  0.62900  0.25000  1.0000
  Mn  Mn3       1.0  0.59600  0.96700  0.25000  1.0000
  Mn  Mn4       1.0  0.40400  0.03340  0.75000  1.0000
  Mn  Mn5       1.0  0.96700  0.37100  0.75000  1.0000
  Mn  Mn6       1.0  0.62900  0.59600  0.75000  1.0000
  O   O1        1.0  0.09770  0.74300  0.07400  1.0000
  O   O2        1.0  0.64500  0.90200  0.07400  1.0000
  O   O3        1.0  0.25700  0.35500  0.07400  1.0000
  O   O4        1.0  0.67600  0.15500  0.25000  1.0000
  O   O5        1.0  0.47900  0.32400  0.25000  1.0000
  O   O6        1.0  0.84500  0.52100  0.25000  1.0000
  O   O7        1.0  0.12300  0.52900  0.25000  1.0000
  O   O8        1.0  0.47100  0.59400  0.25000  1.0000
  O   O9        1.0  0.40600  0.87700  0.25000  1.0000
  O   O10       1.0  0.25700  0.35500  0.42600  1.0000
  O   O11       1.0  0.64500  0.90200  0.42600  1.0000
  O   O12       1.0  0.09770  0.74300  0.42600  1.0000
  O   O13       1.0  0.90200  0.25700  0.57400  1.0000
  O   O14       1.0  0.35500  0.09770  0.57400  1.0000
  O   O15       1.0  0.74300  0.64500  0.57400  1.0000
  O   O16       1.0  0.59400  0.12300  0.75000  1.0000
  O   O17       1.0  0.52900  0.40600  0.75000  1.0000
  O   O18       1.0  0.87700  0.47100  0.75000  1.0000
  O   O19       1.0  0.15500  0.47900  0.75000  1.0000
  O   O20       1.0  0.52100  0.67600  0.75000  1.0000
  O   O21       1.0  0.32400  0.84500  0.75000  1.0000
  O   O22       1.0  0.74300  0.64500  0.92600  1.0000
  O   O23       1.0  0.35500  0.09770  0.92600  1.0000
  O   O24       1.0  0.90200  0.25700  0.92600  1.0000
