data_image0
_chemical_formula_structural       I8S32Sn2
_chemical_formula_sum              "I8 S32 Sn2"
_cell_length_a       11.7171
_cell_length_b       12.2495
_cell_length_c       12.641
_cell_angle_alpha    102.806
_cell_angle_beta     62.3895
_cell_angle_gamma    118.572

_space_group_name_H-M_alt    "P 1"
_space_group_IT_number       1

loop_
  _space_group_symop_operation_xyz
  'x, y, z'

loop_
  _atom_site_type_symbol
  _atom_site_label
  _atom_site_symmetry_multiplicity
  _atom_site_fract_x
  _atom_site_fract_y
  _atom_site_fract_z
  _atom_site_occupancy
  I   I1        1.0  0.76600  0.79100  0.00225  1.0000
  I   I2        1.0  0.03590  0.00612  0.19900  1.0000
  I   I3        1.0  0.48500  0.50600  0.30100  1.0000
  I   I4        1.0  0.01850  0.29100  0.49800  1.0000
  I   I5        1.0  0.22500  0.70900  0.50200  1.0000
  I   I6        1.0  0.28000  0.49400  0.69900  1.0000
  I   I7        1.0  0.22900  0.99400  0.80100  1.0000
  I   I8        1.0  0.97700  0.20900  0.99800  1.0000
  S   S1        1.0  0.46600  0.21100  0.01090  1.0000
  S   S2        1.0  0.38300  0.32600  0.01240  1.0000
  S   S3        1.0  0.65800  0.31600  0.02490  1.0000
  S   S4        1.0  0.33400  0.65500  0.14300  1.0000
  S   S5        1.0  0.91300  0.64000  0.16100  1.0000
  S   S6        1.0  0.54600  0.00537  0.18600  1.0000
  S   S7        1.0  0.16600  0.48300  0.20600  1.0000
  S   S8        1.0  0.86700  0.47200  0.21700  1.0000
  S   S9        1.0  0.33400  0.97200  0.28300  1.0000
  S   S10       1.0  0.62200  0.98300  0.29400  1.0000
  S   S11       1.0  0.98200  0.50500  0.31400  1.0000
  S   S12       1.0  0.32400  0.14000  0.33900  1.0000
  S   S13       1.0  0.72800  0.15500  0.35700  1.0000
  S   S14       1.0  0.93300  0.81600  0.47500  1.0000
  S   S15       1.0  0.64500  0.82600  0.48800  1.0000
  S   S16       1.0  0.72700  0.71100  0.48900  1.0000
  S   S17       1.0  0.50500  0.28900  0.51100  1.0000
  S   S18       1.0  0.30600  0.17400  0.51200  1.0000
  S   S19       1.0  0.59200  0.18400  0.52500  1.0000
  S   S20       1.0  0.92900  0.84500  0.64300  1.0000
  S   S21       1.0  0.52400  0.86000  0.66100  1.0000
  S   S22       1.0  0.79100  0.49500  0.68600  1.0000
  S   S23       1.0  0.93300  0.01660  0.70600  1.0000
  S   S24       1.0  0.64600  0.02820  0.71700  1.0000
  S   S25       1.0  0.61300  0.52800  0.78300  1.0000
  S   S26       1.0  0.88800  0.51700  0.79400  1.0000
  S   S27       1.0  0.72700  0.99500  0.81400  1.0000
  S   S28       1.0  0.43500  0.36000  0.83900  1.0000
  S   S29       1.0  0.82300  0.34500  0.85700  1.0000
  S   S30       1.0  0.36700  0.68400  0.97500  1.0000
  S   S31       1.0  0.06840  0.67400  0.98800  1.0000
  S   S32       1.0  0.26600  0.78900  0.98900  1.0000
  Sn  Sn1       1.0  0.00074  0.00000  0.00000  1.0000
  Sn  Sn2       1.0  0.25100  0.50000  0.50000  1.0000
