data_image0
_chemical_formula_structural       Bi10Cu8Pb2S22
_chemical_formula_sum              "Bi10 Cu8 Pb2 S22"
_cell_length_a       9.1313
_cell_length_b       27.3161
_cell_length_c       3.91778
_cell_angle_alpha    90
_cell_angle_beta     102.388
_cell_angle_gamma    92.2934

_space_group_name_H-M_alt    "P 1"
_space_group_IT_number       1

loop_
  _space_group_symop_operation_xyz
  'x, y, z'

loop_
  _atom_site_type_symbol
  _atom_site_label
  _atom_site_symmetry_multiplicity
  _atom_site_fract_x
  _atom_site_fract_y
  _atom_site_fract_z
  _atom_site_occupancy
  Bi  Bi1       1.0  0.11200  0.65600  0.05620  1.0000
  Bi  Bi2       1.0  0.25600  0.89900  0.12800  1.0000
  Bi  Bi3       1.0  0.33800  0.29400  0.16900  1.0000
  Bi  Bi4       1.0  0.63200  0.44600  0.31600  1.0000
  Bi  Bi5       1.0  0.74800  0.85300  0.37400  1.0000
  Bi  Bi6       1.0  0.25200  0.14700  0.62600  1.0000
  Bi  Bi7       1.0  0.36800  0.55400  0.68400  1.0000
  Bi  Bi8       1.0  0.66200  0.70600  0.83100  1.0000
  Bi  Bi9       1.0  0.74400  0.10100  0.87200  1.0000
  Bi  Bi10      1.0  0.88800  0.34400  0.94400  1.0000
  Cu  Cu1       1.0  0.41100  0.02390  0.20500  1.0000
  Cu  Cu2       1.0  0.60200  0.21700  0.30100  1.0000
  Cu  Cu3       1.0  0.73900  0.57700  0.36900  1.0000
  Cu  Cu4       1.0  0.98200  0.23000  0.49100  1.0000
  Cu  Cu5       1.0  0.01760  0.77000  0.50900  1.0000
  Cu  Cu6       1.0  0.26100  0.42300  0.63100  1.0000
  Cu  Cu7       1.0  0.39800  0.78300  0.69900  1.0000
  Cu  Cu8       1.0  0.58900  0.97600  0.79500  1.0000
  Pb  Pb1       1.0  0.00000  0.50000  0.00000  1.0000
  Pb  Pb2       1.0  0.00000  0.00000  0.50000  1.0000
  S   S1        1.0  0.02380  0.07970  0.01190  1.0000
  S   S2        1.0  0.12000  0.22700  0.05990  1.0000
  S   S3        1.0  0.30800  0.46700  0.15400  1.0000
  S   S4        1.0  0.39800  0.62300  0.19900  1.0000
  S   S5        1.0  0.41600  0.10800  0.20800  1.0000
  S   S6        1.0  0.53500  0.77900  0.26800  1.0000
  S   S7        1.0  0.67800  0.01330  0.33900  1.0000
  S   S8        1.0  0.78600  0.28400  0.39300  1.0000
  S   S9        1.0  0.80100  0.16600  0.40000  1.0000
  S   S10       1.0  0.80800  0.65700  0.40400  1.0000
  S   S11       1.0  0.92300  0.42600  0.46200  1.0000
  S   S12       1.0  0.07680  0.57400  0.53800  1.0000
  S   S13       1.0  0.19200  0.34300  0.59600  1.0000
  S   S14       1.0  0.19900  0.83400  0.60000  1.0000
  S   S15       1.0  0.21400  0.71600  0.60700  1.0000
  S   S16       1.0  0.32200  0.98700  0.66100  1.0000
  S   S17       1.0  0.46500  0.22100  0.73200  1.0000
  S   S18       1.0  0.58400  0.89200  0.79200  1.0000
  S   S19       1.0  0.60200  0.37700  0.80100  1.0000
  S   S20       1.0  0.69200  0.53300  0.84600  1.0000
  S   S21       1.0  0.88000  0.77300  0.94000  1.0000
  S   S22       1.0  0.97600  0.92000  0.98800  1.0000
