data_image0
_chemical_formula_structural       Al2Ge3Hg2
_chemical_formula_sum              "Al2 Ge3 Hg2"
_cell_length_a       9.5336
_cell_length_b       9.5336
_cell_length_c       9.5336
_cell_angle_alpha    26.277
_cell_angle_beta     26.277
_cell_angle_gamma    26.277

_space_group_name_H-M_alt    "P 1"
_space_group_IT_number       1

loop_
  _space_group_symop_operation_xyz
  'x, y, z'

loop_
  _atom_site_type_symbol
  _atom_site_label
  _atom_site_symmetry_multiplicity
  _atom_site_fract_x
  _atom_site_fract_y
  _atom_site_fract_z
  _atom_site_occupancy
  Al  Al1       1.0  0.23600  0.23600  0.23600  1.0000
  Al  Al2       1.0  0.77000  0.77000  0.77000  1.0000
  Ge  Ge1       1.0  0.33300  0.33300  0.33300  1.0000
  Ge  Ge2       1.0  0.62500  0.62500  0.62500  1.0000
  Ge  Ge3       1.0  0.87600  0.87600  0.87600  1.0000
  Hg  Hg1       1.0  0.05430  0.05430  0.05430  1.0000
  Hg  Hg2       1.0  0.48100  0.48100  0.48100  1.0000
