data_image0
_chemical_formula_structural       Cd2Hf3La2
_chemical_formula_sum              "Cd2 Hf3 La2"
_cell_length_a       8.33194
_cell_length_b       8.33194
_cell_length_c       8.33194
_cell_angle_alpha    36.518
_cell_angle_beta     36.518
_cell_angle_gamma    36.518

_space_group_name_H-M_alt    "P 1"
_space_group_IT_number       1

loop_
  _space_group_symop_operation_xyz
  'x, y, z'

loop_
  _atom_site_type_symbol
  _atom_site_label
  _atom_site_symmetry_multiplicity
  _atom_site_fract_x
  _atom_site_fract_y
  _atom_site_fract_z
  _atom_site_occupancy
  Cd  Cd1       1.0  0.05610  0.05610  0.05610  1.0000
  Cd  Cd2       1.0  0.47700  0.47700  0.47700  1.0000
  Hf  Hf1       1.0  0.33500  0.33500  0.33500  1.0000
  Hf  Hf2       1.0  0.61200  0.61200  0.61200  1.0000
  Hf  Hf3       1.0  0.93600  0.93600  0.93600  1.0000
  La  La1       1.0  0.20100  0.20100  0.20100  1.0000
  La  La2       1.0  0.75900  0.75900  0.75900  1.0000
