data_image0
_chemical_formula_structural       N12O16S14
_chemical_formula_sum              "N12 O16 S14"
_cell_length_a       11.3847
_cell_length_b       11.3847
_cell_length_c       4.8023
_cell_angle_alpha    90
_cell_angle_beta     90
_cell_angle_gamma    90

_space_group_name_H-M_alt    "P 1"
_space_group_IT_number       1

loop_
  _space_group_symop_operation_xyz
  'x, y, z'

loop_
  _atom_site_type_symbol
  _atom_site_label
  _atom_site_symmetry_multiplicity
  _atom_site_fract_x
  _atom_site_fract_y
  _atom_site_fract_z
  _atom_site_occupancy
  N   N1        1.0  0.41800  0.08190  0.21600  1.0000
  N   N2        1.0  0.58200  0.91800  0.21600  1.0000
  N   N3        1.0  0.19400  0.14000  0.24400  1.0000
  N   N4        1.0  0.36000  0.30600  0.24400  1.0000
  N   N5        1.0  0.64000  0.69400  0.24400  1.0000
  N   N6        1.0  0.80600  0.86000  0.24400  1.0000
  N   N7        1.0  0.86000  0.19400  0.75600  1.0000
  N   N8        1.0  0.69400  0.36000  0.75600  1.0000
  N   N9        1.0  0.30600  0.64000  0.75600  1.0000
  N   N10       1.0  0.14000  0.80600  0.75600  1.0000
  N   N11       1.0  0.91800  0.41800  0.78400  1.0000
  N   N12       1.0  0.08190  0.58200  0.78400  1.0000
  O   O1        1.0  0.95400  0.27400  0.18600  1.0000
  O   O2        1.0  0.77400  0.45400  0.18600  1.0000
  O   O3        1.0  0.22600  0.54600  0.18600  1.0000
  O   O4        1.0  0.04640  0.72600  0.18600  1.0000
  O   O5        1.0  0.74500  0.06950  0.24900  1.0000
  O   O6        1.0  0.57000  0.24500  0.24900  1.0000
  O   O7        1.0  0.43000  0.75500  0.24900  1.0000
  O   O8        1.0  0.25500  0.93000  0.24900  1.0000
  O   O9        1.0  0.06950  0.25500  0.75100  1.0000
  O   O10       1.0  0.24500  0.43000  0.75100  1.0000
  O   O11       1.0  0.75500  0.57000  0.75100  1.0000
  O   O12       1.0  0.93000  0.74500  0.75100  1.0000
  O   O13       1.0  0.27400  0.04640  0.81400  1.0000
  O   O14       1.0  0.45400  0.22600  0.81400  1.0000
  O   O15       1.0  0.54600  0.77400  0.81400  1.0000
  O   O16       1.0  0.72600  0.95400  0.81400  1.0000
  S   S1        1.0  0.27900  0.03870  0.11200  1.0000
  S   S2        1.0  0.46100  0.22100  0.11200  1.0000
  S   S3        1.0  0.53900  0.77900  0.11200  1.0000
  S   S4        1.0  0.72100  0.96100  0.11200  1.0000
  S   S5        1.0  0.23100  0.26900  0.30000  1.0000
  S   S6        1.0  0.76900  0.73100  0.30000  1.0000
  S   S7        1.0  0.50000  0.00000  0.43200  1.0000
  S   S8        1.0  0.00000  0.50000  0.56800  1.0000
  S   S9        1.0  0.73100  0.23100  0.70000  1.0000
  S   S10       1.0  0.26900  0.76900  0.70000  1.0000
  S   S11       1.0  0.96100  0.27900  0.88800  1.0000
  S   S12       1.0  0.77900  0.46100  0.88800  1.0000
  S   S13       1.0  0.22100  0.53900  0.88800  1.0000
  S   S14       1.0  0.03870  0.72100  0.88800  1.0000
