data_image0
_chemical_formula_structural       Nb4O30P8
_chemical_formula_sum              "Nb4 O30 P8"
_cell_length_a       6.6193
_cell_length_b       8.39779
_cell_length_c       10.8507
_cell_angle_alpha    105.961
_cell_angle_beta     90.945
_cell_angle_gamma    89.6007

_space_group_name_H-M_alt    "P 1"
_space_group_IT_number       1

loop_
  _space_group_symop_operation_xyz
  'x, y, z'

loop_
  _atom_site_type_symbol
  _atom_site_label
  _atom_site_symmetry_multiplicity
  _atom_site_fract_x
  _atom_site_fract_y
  _atom_site_fract_z
  _atom_site_occupancy
  Nb  Nb1       1.0  0.74200  0.70000  0.14500  1.0000
  Nb  Nb2       1.0  0.22700  0.29100  0.34600  1.0000
  Nb  Nb3       1.0  0.77300  0.70900  0.65400  1.0000
  Nb  Nb4       1.0  0.25800  0.30000  0.85500  1.0000
  O   O1        1.0  0.50000  0.00000  0.00000  1.0000
  O   O2        1.0  0.56800  0.66200  0.01860  1.0000
  O   O3        1.0  0.99300  0.67200  0.03660  1.0000
  O   O4        1.0  0.79500  0.15800  0.05550  1.0000
  O   O5        1.0  0.81100  0.46700  0.16300  1.0000
  O   O6        1.0  0.10600  0.27400  0.17300  1.0000
  O   O7        1.0  0.72900  0.95200  0.17400  1.0000
  O   O8        1.0  0.51000  0.21000  0.22100  1.0000
  O   O9        1.0  0.55400  0.71500  0.28900  1.0000
  O   O10       1.0  0.00000  0.77800  0.29100  1.0000
  O   O11       1.0  0.21700  0.03880  0.32200  1.0000
  O   O12       1.0  0.30000  0.53000  0.34900  1.0000
  O   O13       1.0  0.00863  0.32700  0.43500  1.0000
  O   O14       1.0  0.29900  0.84000  0.45000  1.0000
  O   O15       1.0  0.43400  0.32500  0.48900  1.0000
  O   O16       1.0  0.00000  0.00000  0.50000  1.0000
  O   O17       1.0  0.56600  0.67500  0.51100  1.0000
  O   O18       1.0  0.70100  0.16000  0.55000  1.0000
  O   O19       1.0  0.99100  0.67300  0.56500  1.0000
  O   O20       1.0  0.70000  0.47000  0.65100  1.0000
  O   O21       1.0  0.78300  0.96100  0.67800  1.0000
  O   O22       1.0  0.00031  0.22200  0.70900  1.0000
  O   O23       1.0  0.44600  0.28500  0.71100  1.0000
  O   O24       1.0  0.49000  0.79000  0.77900  1.0000
  O   O25       1.0  0.27100  0.04830  0.82600  1.0000
  O   O26       1.0  0.89400  0.72600  0.82700  1.0000
  O   O27       1.0  0.18900  0.53300  0.83700  1.0000
  O   O28       1.0  0.20500  0.84200  0.94500  1.0000
  O   O29       1.0  0.00675  0.32800  0.96300  1.0000
  O   O30       1.0  0.43200  0.33800  0.98100  1.0000
  P   P1        1.0  0.93400  0.31800  0.09290  1.0000
  P   P2        1.0  0.62500  0.08460  0.12400  1.0000
  P   P3        1.0  0.12100  0.91000  0.37800  1.0000
  P   P4        1.0  0.43400  0.67900  0.39700  1.0000
  P   P5        1.0  0.56600  0.32100  0.60300  1.0000
  P   P6        1.0  0.87900  0.08960  0.62200  1.0000
  P   P7        1.0  0.37500  0.91500  0.87600  1.0000
  P   P8        1.0  0.06580  0.68200  0.90700  1.0000
