data_image0
_chemical_formula_structural       Ag4C8Ca2H8N8O4S8
_chemical_formula_sum              "Ag4 C8 Ca2 H8 N8 O4 S8"
_cell_length_a       7.56049
_cell_length_b       7.73851
_cell_length_c       12.0595
_cell_angle_alpha    98.6757
_cell_angle_beta     108.268
_cell_angle_gamma    90

_space_group_name_H-M_alt    "P 1"
_space_group_IT_number       1

loop_
  _space_group_symop_operation_xyz
  'x, y, z'

loop_
  _atom_site_type_symbol
  _atom_site_label
  _atom_site_symmetry_multiplicity
  _atom_site_fract_x
  _atom_site_fract_y
  _atom_site_fract_z
  _atom_site_occupancy
  Ag  Ag1       1.0  0.63100  0.72800  0.42600  1.0000
  Ag  Ag2       1.0  0.79500  0.22800  0.42600  1.0000
  Ag  Ag3       1.0  0.36900  0.27200  0.57400  1.0000
  Ag  Ag4       1.0  0.20500  0.77200  0.57400  1.0000
  C   C1        1.0  0.64900  0.91600  0.19600  1.0000
  C   C2        1.0  0.54700  0.41600  0.19600  1.0000
  C   C3        1.0  0.19800  0.67000  0.28900  1.0000
  C   C4        1.0  0.09050  0.17000  0.28900  1.0000
  C   C5        1.0  0.90900  0.83000  0.71100  1.0000
  C   C6        1.0  0.80200  0.33000  0.71100  1.0000
  C   C7        1.0  0.35100  0.08400  0.80400  1.0000
  C   C8        1.0  0.45300  0.58400  0.80400  1.0000
  Ca  Ca1       1.0  0.08300  0.25000  0.00000  1.0000
  Ca  Ca2       1.0  0.91700  0.75000  0.00000  1.0000
  H   H1        1.0  0.28300  0.56000  0.00925  1.0000
  H   H2        1.0  0.72600  0.06040  0.00925  1.0000
  H   H3        1.0  0.28400  0.96200  0.12500  1.0000
  H   H4        1.0  0.84200  0.46200  0.12500  1.0000
  H   H5        1.0  0.15800  0.53800  0.87500  1.0000
  H   H6        1.0  0.71600  0.03750  0.87500  1.0000
  H   H7        1.0  0.27400  0.94000  0.99100  1.0000
  H   H8        1.0  0.71700  0.44000  0.99100  1.0000
  N   N1        1.0  0.72200  0.86800  0.12400  1.0000
  N   N2        1.0  0.40200  0.36800  0.12400  1.0000
  N   N3        1.0  0.11900  0.71500  0.19800  1.0000
  N   N4        1.0  0.07880  0.21500  0.19800  1.0000
  N   N5        1.0  0.92100  0.78500  0.80200  1.0000
  N   N6        1.0  0.88100  0.28500  0.80200  1.0000
  N   N7        1.0  0.27800  0.13200  0.87600  1.0000
  N   N8        1.0  0.59800  0.63200  0.87600  1.0000
  O   O1        1.0  0.19800  0.95300  0.04340  1.0000
  O   O2        1.0  0.84600  0.45300  0.04340  1.0000
  O   O3        1.0  0.80200  0.04700  0.95700  1.0000
  O   O4        1.0  0.15400  0.54700  0.95700  1.0000
  S   S1        1.0  0.54300  0.98300  0.29300  1.0000
  S   S2        1.0  0.75000  0.48300  0.29300  1.0000
  S   S3        1.0  0.31300  0.60200  0.41400  1.0000
  S   S4        1.0  0.10200  0.10200  0.41400  1.0000
  S   S5        1.0  0.89800  0.89800  0.58600  1.0000
  S   S6        1.0  0.68700  0.39800  0.58600  1.0000
  S   S7        1.0  0.45700  0.01710  0.70700  1.0000
  S   S8        1.0  0.25000  0.51700  0.70700  1.0000
