data_image0
_chemical_formula_structural       Cd2Ge3La2
_chemical_formula_sum              "Cd2 Ge3 La2"
_cell_length_a       8.83097
_cell_length_b       8.83097
_cell_length_c       8.83097
_cell_angle_alpha    32.6911
_cell_angle_beta     32.6911
_cell_angle_gamma    32.6911

_space_group_name_H-M_alt    "P 1"
_space_group_IT_number       1

loop_
  _space_group_symop_operation_xyz
  'x, y, z'

loop_
  _atom_site_type_symbol
  _atom_site_label
  _atom_site_symmetry_multiplicity
  _atom_site_fract_x
  _atom_site_fract_y
  _atom_site_fract_z
  _atom_site_occupancy
  Cd  Cd1       1.0  0.00056  0.00056  0.00056  1.0000
  Cd  Cd2       1.0  0.50000  0.50000  0.50000  1.0000
  Ge  Ge1       1.0  0.38200  0.38200  0.38200  1.0000
  Ge  Ge2       1.0  0.62600  0.62600  0.62600  1.0000
  Ge  Ge3       1.0  0.86700  0.86700  0.86700  1.0000
  La  La1       1.0  0.25200  0.25200  0.25200  1.0000
  La  La2       1.0  0.74700  0.74700  0.74700  1.0000
