data_image0
_chemical_formula_structural       Ti3Tl2Zn2
_chemical_formula_sum              "Ti3 Tl2 Zn2"
_cell_length_a       7.68918
_cell_length_b       7.68918
_cell_length_c       7.68918
_cell_angle_alpha    35.115
_cell_angle_beta     35.115
_cell_angle_gamma    35.115

_space_group_name_H-M_alt    "P 1"
_space_group_IT_number       1

loop_
  _space_group_symop_operation_xyz
  'x, y, z'

loop_
  _atom_site_type_symbol
  _atom_site_label
  _atom_site_symmetry_multiplicity
  _atom_site_fract_x
  _atom_site_fract_y
  _atom_site_fract_z
  _atom_site_occupancy
  Ti  Ti1       1.0  0.35200  0.35200  0.35200  1.0000
  Ti  Ti2       1.0  0.62800  0.62800  0.62800  1.0000
  Ti  Ti3       1.0  0.90300  0.90300  0.90300  1.0000
  Tl  Tl1       1.0  0.21800  0.21800  0.21800  1.0000
  Tl  Tl2       1.0  0.76400  0.76400  0.76400  1.0000
  Zn  Zn1       1.0  0.02090  0.02090  0.02090  1.0000
  Zn  Zn2       1.0  0.49000  0.49000  0.49000  1.0000
