data_image0
_chemical_formula_structural       Hf3Y2Zn2
_chemical_formula_sum              "Hf3 Y2 Zn2"
_cell_length_a       7.90844
_cell_length_b       7.90844
_cell_length_c       7.90844
_cell_angle_alpha    36.5891
_cell_angle_beta     36.5891
_cell_angle_gamma    36.5891

_space_group_name_H-M_alt    "P 1"
_space_group_IT_number       1

loop_
  _space_group_symop_operation_xyz
  'x, y, z'

loop_
  _atom_site_type_symbol
  _atom_site_label
  _atom_site_symmetry_multiplicity
  _atom_site_fract_x
  _atom_site_fract_y
  _atom_site_fract_z
  _atom_site_occupancy
  Hf  Hf1       1.0  0.34000  0.34000  0.34000  1.0000
  Hf  Hf2       1.0  0.60800  0.60800  0.60800  1.0000
  Hf  Hf3       1.0  0.93600  0.93600  0.93600  1.0000
  Y   Y1        1.0  0.19600  0.19600  0.19600  1.0000
  Y   Y2        1.0  0.76200  0.76200  0.76200  1.0000
  Zn  Zn1       1.0  0.06010  0.06010  0.06010  1.0000
  Zn  Zn2       1.0  0.47400  0.47400  0.47400  1.0000
