data_image0
_chemical_formula_structural       Li12O24Se6
_chemical_formula_sum              "Li12 O24 Se6"
_cell_length_a       9.02276
_cell_length_b       9.02275
_cell_length_c       9.02275
_cell_angle_alpha    107.786
_cell_angle_beta     107.786
_cell_angle_gamma    107.786

_space_group_name_H-M_alt    "P 1"
_space_group_IT_number       1

loop_
  _space_group_symop_operation_xyz
  'x, y, z'

loop_
  _atom_site_type_symbol
  _atom_site_label
  _atom_site_symmetry_multiplicity
  _atom_site_fract_x
  _atom_site_fract_y
  _atom_site_fract_z
  _atom_site_occupancy
  Li  Li1       1.0  0.44000  0.89300  0.06090  1.0000
  Li  Li2       1.0  0.93900  0.56000  0.10700  1.0000
  Li  Li3       1.0  0.35700  0.52300  0.17800  1.0000
  Li  Li4       1.0  0.52300  0.17800  0.35700  1.0000
  Li  Li5       1.0  0.89300  0.06090  0.44000  1.0000
  Li  Li6       1.0  0.82200  0.64300  0.47700  1.0000
  Li  Li7       1.0  0.17800  0.35700  0.52300  1.0000
  Li  Li8       1.0  0.10700  0.93900  0.56000  1.0000
  Li  Li9       1.0  0.47700  0.82200  0.64300  1.0000
  Li  Li10      1.0  0.64300  0.47700  0.82200  1.0000
  Li  Li11      1.0  0.06090  0.44000  0.89300  1.0000
  Li  Li12      1.0  0.56000  0.10700  0.93900  1.0000
  O   O1        1.0  0.78700  0.66600  0.05610  1.0000
  O   O2        1.0  0.17300  0.60300  0.14100  1.0000
  O   O3        1.0  0.59800  0.82300  0.15500  1.0000
  O   O4        1.0  0.60300  0.14100  0.17300  1.0000
  O   O5        1.0  0.84500  0.40200  0.17700  1.0000
  O   O6        1.0  0.58100  0.53200  0.20600  1.0000
  O   O7        1.0  0.33400  0.94400  0.21300  1.0000
  O   O8        1.0  0.94400  0.21300  0.33400  1.0000
  O   O9        1.0  0.85900  0.82700  0.39700  1.0000
  O   O10       1.0  0.17700  0.84500  0.40200  1.0000
  O   O11       1.0  0.46800  0.79400  0.41900  1.0000
  O   O12       1.0  0.79400  0.41900  0.46800  1.0000
  O   O13       1.0  0.20600  0.58100  0.53200  1.0000
  O   O14       1.0  0.53200  0.20600  0.58100  1.0000
  O   O15       1.0  0.82300  0.15500  0.59800  1.0000
  O   O16       1.0  0.14100  0.17300  0.60300  1.0000
  O   O17       1.0  0.05610  0.78700  0.66600  1.0000
  O   O18       1.0  0.66600  0.05610  0.78700  1.0000
  O   O19       1.0  0.41900  0.46800  0.79400  1.0000
  O   O20       1.0  0.15500  0.59800  0.82300  1.0000
  O   O21       1.0  0.39700  0.85900  0.82700  1.0000
  O   O22       1.0  0.40200  0.17700  0.84500  1.0000
  O   O23       1.0  0.82700  0.39700  0.85900  1.0000
  O   O24       1.0  0.21300  0.33400  0.94400  1.0000
  Se  Se1       1.0  0.70000  0.70700  0.19400  1.0000
  Se  Se2       1.0  0.80600  0.30000  0.29300  1.0000
  Se  Se3       1.0  0.29300  0.80600  0.30000  1.0000
  Se  Se4       1.0  0.70700  0.19400  0.70000  1.0000
  Se  Se5       1.0  0.19400  0.70000  0.70700  1.0000
  Se  Se6       1.0  0.30000  0.29300  0.80600  1.0000
