data_image0
_chemical_formula_structural       I8K4Mo2O28
_chemical_formula_sum              "I8 K4 Mo2 O28"
_cell_length_a       5.96672
_cell_length_b       7.01057
_cell_length_c       17.4416
_cell_angle_alpha    101.031
_cell_angle_beta     90
_cell_angle_gamma    115.186

_space_group_name_H-M_alt    "P 1"
_space_group_IT_number       1

loop_
  _space_group_symop_operation_xyz
  'x, y, z'

loop_
  _atom_site_type_symbol
  _atom_site_label
  _atom_site_symmetry_multiplicity
  _atom_site_fract_x
  _atom_site_fract_y
  _atom_site_fract_z
  _atom_site_occupancy
  I   I1        1.0  0.60500  0.07250  0.09280  1.0000
  I   I2        1.0  0.25800  0.56400  0.18000  1.0000
  I   I3        1.0  0.69400  0.43600  0.32000  1.0000
  I   I4        1.0  0.53300  0.92700  0.40700  1.0000
  I   I5        1.0  0.46700  0.07250  0.59300  1.0000
  I   I6        1.0  0.30600  0.56400  0.68000  1.0000
  I   I7        1.0  0.74200  0.43600  0.82000  1.0000
  I   I8        1.0  0.39500  0.92700  0.90700  1.0000
  K   K1        1.0  0.81000  0.62800  0.03450  1.0000
  K   K2        1.0  0.18200  0.37200  0.46500  1.0000
  K   K3        1.0  0.81800  0.62800  0.53500  1.0000
  K   K4        1.0  0.19000  0.37200  0.96500  1.0000
  Mo  Mo1       1.0  0.90500  0.00000  0.25000  1.0000
  Mo  Mo2       1.0  0.09480  1.00000  0.75000  1.0000
  O   O1        1.0  0.37800  0.10900  0.00019  1.0000
  O   O2        1.0  0.87900  0.31300  0.08160  1.0000
  O   O3        1.0  0.26400  0.72600  0.10800  1.0000
  O   O4        1.0  0.44400  0.43700  0.13200  1.0000
  O   O5        1.0  0.80700  0.95600  0.14000  1.0000
  O   O6        1.0  0.97300  0.77800  0.24000  1.0000
  O   O7        1.0  0.72300  0.22100  0.24300  1.0000
  O   O8        1.0  0.50300  0.77900  0.25700  1.0000
  O   O9        1.0  0.19600  0.22200  0.26000  1.0000
  O   O10       1.0  0.85100  0.04420  0.36000  1.0000
  O   O11       1.0  0.00631  0.56300  0.36800  1.0000
  O   O12       1.0  0.53800  0.27400  0.39200  1.0000
  O   O13       1.0  0.56600  0.68700  0.41800  1.0000
  O   O14       1.0  0.26900  0.89100  0.50000  1.0000
  O   O15       1.0  0.73100  0.10900  0.50000  1.0000
  O   O16       1.0  0.43400  0.31300  0.58200  1.0000
  O   O17       1.0  0.46200  0.72600  0.60800  1.0000
  O   O18       1.0  0.99400  0.43700  0.63200  1.0000
  O   O19       1.0  0.14900  0.95600  0.64000  1.0000
  O   O20       1.0  0.80400  0.77800  0.74000  1.0000
  O   O21       1.0  0.49700  0.22100  0.74300  1.0000
  O   O22       1.0  0.27700  0.77900  0.75700  1.0000
  O   O23       1.0  0.02650  0.22200  0.76000  1.0000
  O   O24       1.0  0.19300  0.04420  0.86000  1.0000
  O   O25       1.0  0.55600  0.56300  0.86800  1.0000
  O   O26       1.0  0.73600  0.27400  0.89200  1.0000
  O   O27       1.0  0.12100  0.68700  0.91800  1.0000
  O   O28       1.0  0.62200  0.89100  1.00000  1.0000
