data_image0
_chemical_formula_structural       Al2Ge3Zn2
_chemical_formula_sum              "Al2 Ge3 Zn2"
_cell_length_a       8.47207
_cell_length_b       8.47207
_cell_length_c       8.47207
_cell_angle_alpha    29.4557
_cell_angle_beta     29.4557
_cell_angle_gamma    29.4557

_space_group_name_H-M_alt    "P 1"
_space_group_IT_number       1

loop_
  _space_group_symop_operation_xyz
  'x, y, z'

loop_
  _atom_site_type_symbol
  _atom_site_label
  _atom_site_symmetry_multiplicity
  _atom_site_fract_x
  _atom_site_fract_y
  _atom_site_fract_z
  _atom_site_occupancy
  Al  Al1       1.0  0.24600  0.24600  0.24600  1.0000
  Al  Al2       1.0  0.75700  0.75700  0.75700  1.0000
  Ge  Ge1       1.0  0.38500  0.38500  0.38500  1.0000
  Ge  Ge2       1.0  0.62400  0.62400  0.62400  1.0000
  Ge  Ge3       1.0  0.86500  0.86500  0.86500  1.0000
  Zn  Zn1       1.0  0.00493  0.00493  0.00493  1.0000
  Zn  Zn2       1.0  0.49300  0.49300  0.49300  1.0000
