data_image0
_chemical_formula_structural       Hg2Si3Tl2
_chemical_formula_sum              "Hg2 Si3 Tl2"
_cell_length_a       8.73363
_cell_length_b       8.73363
_cell_length_c       8.73363
_cell_angle_alpha    32.523
_cell_angle_beta     32.523
_cell_angle_gamma    32.523

_space_group_name_H-M_alt    "P 1"
_space_group_IT_number       1

loop_
  _space_group_symop_operation_xyz
  'x, y, z'

loop_
  _atom_site_type_symbol
  _atom_site_label
  _atom_site_symmetry_multiplicity
  _atom_site_fract_x
  _atom_site_fract_y
  _atom_site_fract_z
  _atom_site_occupancy
  Hg  Hg1       1.0  0.49400  0.49400  0.49400  1.0000
  Hg  Hg2       1.0  0.99600  0.99600  0.99600  1.0000
  Si  Si1       1.0  0.35600  0.35600  0.35600  1.0000
  Si  Si2       1.0  0.65600  0.65600  0.65600  1.0000
  Si  Si3       1.0  0.87200  0.87200  0.87200  1.0000
  Tl  Tl1       1.0  0.23600  0.23600  0.23600  1.0000
  Tl  Tl2       1.0  0.76400  0.76400  0.76400  1.0000
