data_image0
_chemical_formula_structural       Ge3Sc2Zn2
_chemical_formula_sum              "Ge3 Sc2 Zn2"
_cell_length_a       9.04704
_cell_length_b       9.04704
_cell_length_c       9.04704
_cell_angle_alpha    27.101
_cell_angle_beta     27.101
_cell_angle_gamma    27.101

_space_group_name_H-M_alt    "P 1"
_space_group_IT_number       1

loop_
  _space_group_symop_operation_xyz
  'x, y, z'

loop_
  _atom_site_type_symbol
  _atom_site_label
  _atom_site_symmetry_multiplicity
  _atom_site_fract_x
  _atom_site_fract_y
  _atom_site_fract_z
  _atom_site_occupancy
  Ge  Ge1       1.0  0.38400  0.38400  0.38400  1.0000
  Ge  Ge2       1.0  0.63000  0.63000  0.63000  1.0000
  Ge  Ge3       1.0  0.85800  0.85800  0.85800  1.0000
  Sc  Sc1       1.0  0.24700  0.24700  0.24700  1.0000
  Sc  Sc2       1.0  0.75500  0.75500  0.75500  1.0000
  Zn  Zn1       1.0  0.00592  0.00592  0.00592  1.0000
  Zn  Zn2       1.0  0.49500  0.49500  0.49500  1.0000
