data_image0
_chemical_formula_structural       Cd2Si3Tl2
_chemical_formula_sum              "Cd2 Si3 Tl2"
_cell_length_a       8.94046
_cell_length_b       8.94046
_cell_length_c       8.94046
_cell_angle_alpha    30.9698
_cell_angle_beta     30.9698
_cell_angle_gamma    30.9698

_space_group_name_H-M_alt    "P 1"
_space_group_IT_number       1

loop_
  _space_group_symop_operation_xyz
  'x, y, z'

loop_
  _atom_site_type_symbol
  _atom_site_label
  _atom_site_symmetry_multiplicity
  _atom_site_fract_x
  _atom_site_fract_y
  _atom_site_fract_z
  _atom_site_occupancy
  Cd  Cd1       1.0  0.49400  0.49400  0.49400  1.0000
  Cd  Cd2       1.0  0.98700  0.98700  0.98700  1.0000
  Si  Si1       1.0  0.36500  0.36500  0.36500  1.0000
  Si  Si2       1.0  0.65900  0.65900  0.65900  1.0000
  Si  Si3       1.0  0.86700  0.86700  0.86700  1.0000
  Tl  Tl1       1.0  0.24100  0.24100  0.24100  1.0000
  Tl  Tl2       1.0  0.76300  0.76300  0.76300  1.0000
