data_image0
_chemical_formula_structural       C4F12H4N4O12S6
_chemical_formula_sum              "C4 F12 H4 N4 O12 S6"
_cell_length_a       5.07855
_cell_length_b       5.07855
_cell_length_c       19.9253
_cell_angle_alpha    94.5334
_cell_angle_beta     94.5334
_cell_angle_gamma    62.1355

_space_group_name_H-M_alt    "P 1"
_space_group_IT_number       1

loop_
  _space_group_symop_operation_xyz
  'x, y, z'

loop_
  _atom_site_type_symbol
  _atom_site_label
  _atom_site_symmetry_multiplicity
  _atom_site_fract_x
  _atom_site_fract_y
  _atom_site_fract_z
  _atom_site_occupancy
  C   C1        1.0  0.67400  0.23600  0.06510  1.0000
  C   C2        1.0  0.76400  0.32600  0.43500  1.0000
  C   C3        1.0  0.23600  0.67400  0.56500  1.0000
  C   C4        1.0  0.32600  0.76400  0.93500  1.0000
  F   F1        1.0  0.74100  0.02540  0.01480  1.0000
  F   F2        1.0  0.74700  0.44600  0.04900  1.0000
  F   F3        1.0  0.38200  0.36000  0.07580  1.0000
  F   F4        1.0  0.64000  0.61800  0.42400  1.0000
  F   F5        1.0  0.55400  0.25300  0.45100  1.0000
  F   F6        1.0  0.97500  0.25900  0.48500  1.0000
  F   F7        1.0  0.02540  0.74100  0.51500  1.0000
  F   F8        1.0  0.44600  0.74700  0.54900  1.0000
  F   F9        1.0  0.36000  0.38200  0.57600  1.0000
  F   F10       1.0  0.61800  0.64000  0.92400  1.0000
  F   F11       1.0  0.25300  0.55400  0.95100  1.0000
  F   F12       1.0  0.25900  0.97500  0.98500  1.0000
  H   H1        1.0  0.95900  0.42600  0.20200  1.0000
  H   H2        1.0  0.57400  0.04070  0.29800  1.0000
  H   H3        1.0  0.42600  0.95900  0.70200  1.0000
  H   H4        1.0  0.04070  0.57400  0.79800  1.0000
  N   N1        1.0  0.81400  0.33400  0.19600  1.0000
  N   N2        1.0  0.66600  0.18600  0.30400  1.0000
  N   N3        1.0  0.33400  0.81400  0.69600  1.0000
  N   N4        1.0  0.18600  0.66600  0.80400  1.0000
  O   O1        1.0  0.20400  0.94100  0.12700  1.0000
  O   O2        1.0  0.77200  0.87200  0.16100  1.0000
  O   O3        1.0  0.29200  0.44900  0.21700  1.0000
  O   O4        1.0  0.55100  0.70800  0.28300  1.0000
  O   O5        1.0  0.12800  0.22800  0.33900  1.0000
  O   O6        1.0  0.05940  0.79600  0.37300  1.0000
  O   O7        1.0  0.94100  0.20400  0.62700  1.0000
  O   O8        1.0  0.87200  0.77200  0.66100  1.0000
  O   O9        1.0  0.44900  0.29200  0.71700  1.0000
  O   O10       1.0  0.70800  0.55100  0.78300  1.0000
  O   O11       1.0  0.22800  0.12800  0.83900  1.0000
  O   O12       1.0  0.79600  0.05940  0.87300  1.0000
  S   S1        1.0  0.89900  0.05040  0.14100  1.0000
  S   S2        1.0  0.55200  0.44800  0.25000  1.0000
  S   S3        1.0  0.95000  0.10100  0.35900  1.0000
  S   S4        1.0  0.05040  0.89900  0.64100  1.0000
  S   S5        1.0  0.44800  0.55200  0.75000  1.0000
  S   S6        1.0  0.10100  0.95000  0.85900  1.0000
