data_image0
_chemical_formula_structural       Cd2Hf3Sc2
_chemical_formula_sum              "Cd2 Hf3 Sc2"
_cell_length_a       7.85125
_cell_length_b       7.85125
_cell_length_c       7.85125
_cell_angle_alpha    36.7169
_cell_angle_beta     36.7169
_cell_angle_gamma    36.7169

_space_group_name_H-M_alt    "P 1"
_space_group_IT_number       1

loop_
  _space_group_symop_operation_xyz
  'x, y, z'

loop_
  _atom_site_type_symbol
  _atom_site_label
  _atom_site_symmetry_multiplicity
  _atom_site_fract_x
  _atom_site_fract_y
  _atom_site_fract_z
  _atom_site_occupancy
  Cd  Cd1       1.0  0.06080  0.06080  0.06080  1.0000
  Cd  Cd2       1.0  0.47600  0.47600  0.47600  1.0000
  Hf  Hf1       1.0  0.33500  0.33500  0.33500  1.0000
  Hf  Hf2       1.0  0.61000  0.61000  0.61000  1.0000
  Hf  Hf3       1.0  0.92800  0.92800  0.92800  1.0000
  Sc  Sc1       1.0  0.19900  0.19900  0.19900  1.0000
  Sc  Sc2       1.0  0.76600  0.76600  0.76600  1.0000
