data_image0
_chemical_formula_structural       Cd2Ti3Tl2
_chemical_formula_sum              "Cd2 Ti3 Tl2"
_cell_length_a       7.92507
_cell_length_b       7.92507
_cell_length_c       7.92507
_cell_angle_alpha    35.1316
_cell_angle_beta     35.1316
_cell_angle_gamma    35.1316

_space_group_name_H-M_alt    "P 1"
_space_group_IT_number       1

loop_
  _space_group_symop_operation_xyz
  'x, y, z'

loop_
  _atom_site_type_symbol
  _atom_site_label
  _atom_site_symmetry_multiplicity
  _atom_site_fract_x
  _atom_site_fract_y
  _atom_site_fract_z
  _atom_site_occupancy
  Cd  Cd1       1.0  0.02320  0.02320  0.02320  1.0000
  Cd  Cd2       1.0  0.48900  0.48900  0.48900  1.0000
  Ti  Ti1       1.0  0.35200  0.35200  0.35200  1.0000
  Ti  Ti2       1.0  0.62600  0.62600  0.62600  1.0000
  Ti  Ti3       1.0  0.89800  0.89800  0.89800  1.0000
  Tl  Tl1       1.0  0.22600  0.22600  0.22600  1.0000
  Tl  Tl2       1.0  0.76100  0.76100  0.76100  1.0000
