data_image0
_chemical_formula_structural       Ga2Hf3Hg2
_chemical_formula_sum              "Ga2 Hf3 Hg2"
_cell_length_a       8.30524
_cell_length_b       8.30524
_cell_length_c       8.30524
_cell_angle_alpha    33.0017
_cell_angle_beta     33.0017
_cell_angle_gamma    33.0017

_space_group_name_H-M_alt    "P 1"
_space_group_IT_number       1

loop_
  _space_group_symop_operation_xyz
  'x, y, z'

loop_
  _atom_site_type_symbol
  _atom_site_label
  _atom_site_symmetry_multiplicity
  _atom_site_fract_x
  _atom_site_fract_y
  _atom_site_fract_z
  _atom_site_occupancy
  Ga  Ga1       1.0  0.24700  0.24700  0.24700  1.0000
  Ga  Ga2       1.0  0.75300  0.75300  0.75300  1.0000
  Hf  Hf1       1.0  0.37400  0.37400  0.37400  1.0000
  Hf  Hf2       1.0  0.62300  0.62300  0.62300  1.0000
  Hf  Hf3       1.0  0.87400  0.87400  0.87400  1.0000
  Hg  Hg1       1.0  0.01110  0.01110  0.01110  1.0000
  Hg  Hg2       1.0  0.49200  0.49200  0.49200  1.0000
