data_image0
_chemical_formula_structural       Hg2Sc2Zr3
_chemical_formula_sum              "Hg2 Sc2 Zr3"
_cell_length_a       7.90965
_cell_length_b       7.90965
_cell_length_c       7.90965
_cell_angle_alpha    36.4439
_cell_angle_beta     36.4439
_cell_angle_gamma    36.4439

_space_group_name_H-M_alt    "P 1"
_space_group_IT_number       1

loop_
  _space_group_symop_operation_xyz
  'x, y, z'

loop_
  _atom_site_type_symbol
  _atom_site_label
  _atom_site_symmetry_multiplicity
  _atom_site_fract_x
  _atom_site_fract_y
  _atom_site_fract_z
  _atom_site_occupancy
  Hg  Hg1       1.0  0.05660  0.05660  0.05660  1.0000
  Hg  Hg2       1.0  0.48200  0.48200  0.48200  1.0000
  Sc  Sc1       1.0  0.19600  0.19600  0.19600  1.0000
  Sc  Sc2       1.0  0.76700  0.76700  0.76700  1.0000
  Zr  Zr1       1.0  0.33700  0.33700  0.33700  1.0000
  Zr  Zr2       1.0  0.61400  0.61400  0.61400  1.0000
  Zr  Zr3       1.0  0.92400  0.92400  0.92400  1.0000
