data_image0
_chemical_formula_structural       Au2Ca3Mn2
_chemical_formula_sum              "Au2 Ca3 Mn2"
_cell_length_a       8.81153
_cell_length_b       8.81153
_cell_length_c       8.81153
_cell_angle_alpha    33.4846
_cell_angle_beta     33.4846
_cell_angle_gamma    33.4846

_space_group_name_H-M_alt    "P 1"
_space_group_IT_number       1

loop_
  _space_group_symop_operation_xyz
  'x, y, z'

loop_
  _atom_site_type_symbol
  _atom_site_label
  _atom_site_symmetry_multiplicity
  _atom_site_fract_x
  _atom_site_fract_y
  _atom_site_fract_z
  _atom_site_occupancy
  Au  Au1       1.0  0.00273  0.00273  0.00273  1.0000
  Au  Au2       1.0  0.50400  0.50400  0.50400  1.0000
  Ca  Ca1       1.0  0.38000  0.38000  0.38000  1.0000
  Ca  Ca2       1.0  0.62700  0.62700  0.62700  1.0000
  Ca  Ca3       1.0  0.87300  0.87300  0.87300  1.0000
  Mn  Mn1       1.0  0.23300  0.23300  0.23300  1.0000
  Mn  Mn2       1.0  0.75500  0.75500  0.75500  1.0000
