data_image0
_chemical_formula_structural       Sc2Zn2Zr3
_chemical_formula_sum              "Sc2 Zn2 Zr3"
_cell_length_a       7.72361
_cell_length_b       7.72361
_cell_length_c       7.72361
_cell_angle_alpha    36.492
_cell_angle_beta     36.492
_cell_angle_gamma    36.492

_space_group_name_H-M_alt    "P 1"
_space_group_IT_number       1

loop_
  _space_group_symop_operation_xyz
  'x, y, z'

loop_
  _atom_site_type_symbol
  _atom_site_label
  _atom_site_symmetry_multiplicity
  _atom_site_fract_x
  _atom_site_fract_y
  _atom_site_fract_z
  _atom_site_occupancy
  Sc  Sc1       1.0  0.19300  0.19300  0.19300  1.0000
  Sc  Sc2       1.0  0.76800  0.76800  0.76800  1.0000
  Zn  Zn1       1.0  0.06220  0.06220  0.06220  1.0000
  Zn  Zn2       1.0  0.47400  0.47400  0.47400  1.0000
  Zr  Zr1       1.0  0.34200  0.34200  0.34200  1.0000
  Zr  Zr2       1.0  0.60600  0.60600  0.60600  1.0000
  Zr  Zr3       1.0  0.93000  0.93000  0.93000  1.0000
