data_image0
_chemical_formula_structural       B2Ge3Hg2
_chemical_formula_sum              "B2 Ge3 Hg2"
_cell_length_a       9.74945
_cell_length_b       9.74945
_cell_length_c       9.74945
_cell_angle_alpha    23.379
_cell_angle_beta     23.379
_cell_angle_gamma    23.379

_space_group_name_H-M_alt    "P 1"
_space_group_IT_number       1

loop_
  _space_group_symop_operation_xyz
  'x, y, z'

loop_
  _atom_site_type_symbol
  _atom_site_label
  _atom_site_symmetry_multiplicity
  _atom_site_fract_x
  _atom_site_fract_y
  _atom_site_fract_z
  _atom_site_occupancy
  B   B1        1.0  0.00315  0.00315  0.00315  1.0000
  B   B2        1.0  0.44700  0.44700  0.44700  1.0000
  Ge  Ge1       1.0  0.37300  0.37300  0.37300  1.0000
  Ge  Ge2       1.0  0.64500  0.64500  0.64500  1.0000
  Ge  Ge3       1.0  0.92200  0.92200  0.92200  1.0000
  Hg  Hg1       1.0  0.19600  0.19600  0.19600  1.0000
  Hg  Hg2       1.0  0.78900  0.78900  0.78900  1.0000
