data_image0
_chemical_formula_structural       Sb20Sr22
_chemical_formula_sum              "Sb20 Sr22"
_cell_length_a       12.596
_cell_length_b       12.596
_cell_length_c       12.7839
_cell_angle_alpha    119.515
_cell_angle_beta     119.515
_cell_angle_gamma    90

_space_group_name_H-M_alt    "P 1"
_space_group_IT_number       1

loop_
  _space_group_symop_operation_xyz
  'x, y, z'

loop_
  _atom_site_type_symbol
  _atom_site_label
  _atom_site_symmetry_multiplicity
  _atom_site_fract_x
  _atom_site_fract_y
  _atom_site_fract_z
  _atom_site_occupancy
  Sb  Sb1       1.0  0.35300  0.00000  0.00000  1.0000
  Sb  Sb2       1.0  0.64700  0.00000  0.00000  1.0000
  Sb  Sb3       1.0  0.00000  0.35300  0.00000  1.0000
  Sb  Sb4       1.0  0.38000  0.38000  0.00000  1.0000
  Sb  Sb5       1.0  0.62000  0.38000  0.00000  1.0000
  Sb  Sb6       1.0  0.38000  0.62000  0.00000  1.0000
  Sb  Sb7       1.0  0.62000  0.62000  0.00000  1.0000
  Sb  Sb8       1.0  0.00000  0.64700  0.00000  1.0000
  Sb  Sb9       1.0  0.12300  0.12300  0.24600  1.0000
  Sb  Sb10      1.0  0.47000  0.47000  0.35800  1.0000
  Sb  Sb11      1.0  0.88800  0.47000  0.35800  1.0000
  Sb  Sb12      1.0  0.47000  0.88800  0.35800  1.0000
  Sb  Sb13      1.0  0.88800  0.88800  0.35800  1.0000
  Sb  Sb14      1.0  0.75000  0.25000  0.50000  1.0000
  Sb  Sb15      1.0  0.25000  0.75000  0.50000  1.0000
  Sb  Sb16      1.0  0.11200  0.11200  0.64200  1.0000
  Sb  Sb17      1.0  0.53000  0.11200  0.64200  1.0000
  Sb  Sb18      1.0  0.11200  0.53000  0.64200  1.0000
  Sb  Sb19      1.0  0.53000  0.53000  0.64200  1.0000
  Sb  Sb20      1.0  0.87700  0.87700  0.75400  1.0000
  Sr  Sr1       1.0  0.16800  0.16800  0.00000  1.0000
  Sr  Sr2       1.0  0.83200  0.16800  0.00000  1.0000
  Sr  Sr3       1.0  0.16800  0.83200  0.00000  1.0000
  Sr  Sr4       1.0  0.83200  0.83200  0.00000  1.0000
  Sr  Sr5       1.0  0.60400  0.26900  0.20800  1.0000
  Sr  Sr6       1.0  0.26900  0.60400  0.20800  1.0000
  Sr  Sr7       1.0  0.93900  0.60400  0.20800  1.0000
  Sr  Sr8       1.0  0.60400  0.93900  0.20800  1.0000
  Sr  Sr9       1.0  0.66000  0.66000  0.32100  1.0000
  Sr  Sr10      1.0  0.44100  0.18900  0.37800  1.0000
  Sr  Sr11      1.0  0.93800  0.18900  0.37800  1.0000
  Sr  Sr12      1.0  0.18900  0.44100  0.37800  1.0000
  Sr  Sr13      1.0  0.18900  0.93800  0.37800  1.0000
  Sr  Sr14      1.0  0.81100  0.06230  0.62200  1.0000
  Sr  Sr15      1.0  0.81100  0.55900  0.62200  1.0000
  Sr  Sr16      1.0  0.06230  0.81100  0.62200  1.0000
  Sr  Sr17      1.0  0.55900  0.81100  0.62200  1.0000
  Sr  Sr18      1.0  0.34000  0.34000  0.67900  1.0000
  Sr  Sr19      1.0  0.39600  0.06120  0.79200  1.0000
  Sr  Sr20      1.0  0.06120  0.39600  0.79200  1.0000
  Sr  Sr21      1.0  0.73100  0.39600  0.79200  1.0000
  Sr  Sr22      1.0  0.39600  0.73100  0.79200  1.0000
