data_image0
_chemical_formula_structural       N8O28Rb4U2
_chemical_formula_sum              "N8 O28 Rb4 U2"
_cell_length_a       6.31475
_cell_length_b       7.59889
_cell_length_c       11.9874
_cell_angle_alpha    90
_cell_angle_beta     99.6865
_cell_angle_gamma    90

_space_group_name_H-M_alt    "P 1"
_space_group_IT_number       1

loop_
  _space_group_symop_operation_xyz
  'x, y, z'

loop_
  _atom_site_type_symbol
  _atom_site_label
  _atom_site_symmetry_multiplicity
  _atom_site_fract_x
  _atom_site_fract_y
  _atom_site_fract_z
  _atom_site_occupancy
  N   N1        1.0  0.37600  0.72100  0.11400  1.0000
  N   N2        1.0  0.31100  0.24800  0.13200  1.0000
  N   N3        1.0  0.18900  0.74800  0.36800  1.0000
  N   N4        1.0  0.12400  0.22100  0.38600  1.0000
  N   N5        1.0  0.87600  0.77900  0.61400  1.0000
  N   N6        1.0  0.81100  0.25200  0.63200  1.0000
  N   N7        1.0  0.68900  0.75200  0.86800  1.0000
  N   N8        1.0  0.62400  0.27900  0.88600  1.0000
  O   O1        1.0  0.44500  0.67900  0.02700  1.0000
  O   O2        1.0  0.14500  0.30100  0.06240  1.0000
  O   O3        1.0  0.81900  0.00580  0.09840  1.0000
  O   O4        1.0  0.17100  0.75500  0.10700  1.0000
  O   O5        1.0  0.32700  0.08030  0.14300  1.0000
  O   O6        1.0  0.44200  0.34900  0.18500  1.0000
  O   O7        1.0  0.49100  0.72900  0.20900  1.0000
  O   O8        1.0  0.00853  0.22900  0.29100  1.0000
  O   O9        1.0  0.05830  0.84900  0.31500  1.0000
  O   O10       1.0  0.17300  0.58000  0.35700  1.0000
  O   O11       1.0  0.32900  0.25500  0.39300  1.0000
  O   O12       1.0  0.68100  0.50600  0.40200  1.0000
  O   O13       1.0  0.35500  0.80100  0.43800  1.0000
  O   O14       1.0  0.05460  0.17900  0.47300  1.0000
  O   O15       1.0  0.94500  0.82100  0.52700  1.0000
  O   O16       1.0  0.64500  0.19900  0.56200  1.0000
  O   O17       1.0  0.31900  0.49400  0.59800  1.0000
  O   O18       1.0  0.67100  0.74500  0.60700  1.0000
  O   O19       1.0  0.82700  0.42000  0.64300  1.0000
  O   O20       1.0  0.94200  0.15100  0.68500  1.0000
  O   O21       1.0  0.99100  0.77100  0.70900  1.0000
  O   O22       1.0  0.50900  0.27100  0.79100  1.0000
  O   O23       1.0  0.55800  0.65100  0.81500  1.0000
  O   O24       1.0  0.67300  0.92000  0.85700  1.0000
  O   O25       1.0  0.82900  0.24500  0.89300  1.0000
  O   O26       1.0  0.18100  0.99400  0.90200  1.0000
  O   O27       1.0  0.85500  0.69900  0.93800  1.0000
  O   O28       1.0  0.55500  0.32100  0.97300  1.0000
  Rb  Rb1       1.0  0.83900  0.51800  0.15900  1.0000
  Rb  Rb2       1.0  0.66100  0.01810  0.34100  1.0000
  Rb  Rb3       1.0  0.33900  0.98200  0.65900  1.0000
  Rb  Rb4       1.0  0.16100  0.48200  0.84100  1.0000
  U   U1        1.0  0.00000  0.00000  0.00000  1.0000
  U   U2        1.0  0.50000  0.50000  0.50000  1.0000
