data_image0
_chemical_formula_structural       Hg2La2Zr3
_chemical_formula_sum              "Hg2 La2 Zr3"
_cell_length_a       8.39087
_cell_length_b       8.39087
_cell_length_c       8.39087
_cell_angle_alpha    36.4682
_cell_angle_beta     36.4682
_cell_angle_gamma    36.4682

_space_group_name_H-M_alt    "P 1"
_space_group_IT_number       1

loop_
  _space_group_symop_operation_xyz
  'x, y, z'

loop_
  _atom_site_type_symbol
  _atom_site_label
  _atom_site_symmetry_multiplicity
  _atom_site_fract_x
  _atom_site_fract_y
  _atom_site_fract_z
  _atom_site_occupancy
  Hg  Hg1       1.0  0.05800  0.05800  0.05800  1.0000
  Hg  Hg2       1.0  0.47800  0.47800  0.47800  1.0000
  La  La1       1.0  0.19900  0.19900  0.19900  1.0000
  La  La2       1.0  0.75700  0.75700  0.75700  1.0000
  Zr  Zr1       1.0  0.33500  0.33500  0.33500  1.0000
  Zr  Zr2       1.0  0.61100  0.61100  0.61100  1.0000
  Zr  Zr3       1.0  0.93700  0.93700  0.93700  1.0000
