data_image0
_chemical_formula_structural       Ge3Hg2Sc2
_chemical_formula_sum              "Ge3 Hg2 Sc2"
_cell_length_a       9.1229
_cell_length_b       9.1229
_cell_length_c       9.1229
_cell_angle_alpha    28.4763
_cell_angle_beta     28.4763
_cell_angle_gamma    28.4763

_space_group_name_H-M_alt    "P 1"
_space_group_IT_number       1

loop_
  _space_group_symop_operation_xyz
  'x, y, z'

loop_
  _atom_site_type_symbol
  _atom_site_label
  _atom_site_symmetry_multiplicity
  _atom_site_fract_x
  _atom_site_fract_y
  _atom_site_fract_z
  _atom_site_occupancy
  Ge  Ge1       1.0  0.34100  0.34100  0.34100  1.0000
  Ge  Ge2       1.0  0.63200  0.63200  0.63200  1.0000
  Ge  Ge3       1.0  0.86900  0.86900  0.86900  1.0000
  Hg  Hg1       1.0  0.05030  0.05030  0.05030  1.0000
  Hg  Hg2       1.0  0.48600  0.48600  0.48600  1.0000
  Sc  Sc1       1.0  0.23600  0.23600  0.23600  1.0000
  Sc  Sc2       1.0  0.76000  0.76000  0.76000  1.0000
