data_image0
_chemical_formula_structural       Ga2Ge3Hg2
_chemical_formula_sum              "Ga2 Ge3 Hg2"
_cell_length_a       8.13683
_cell_length_b       8.13683
_cell_length_c       8.13683
_cell_angle_alpha    34.427
_cell_angle_beta     34.427
_cell_angle_gamma    34.427

_space_group_name_H-M_alt    "P 1"
_space_group_IT_number       1

loop_
  _space_group_symop_operation_xyz
  'x, y, z'

loop_
  _atom_site_type_symbol
  _atom_site_label
  _atom_site_symmetry_multiplicity
  _atom_site_fract_x
  _atom_site_fract_y
  _atom_site_fract_z
  _atom_site_occupancy
  Ga  Ga1       1.0  0.24500  0.24500  0.24500  1.0000
  Ga  Ga2       1.0  0.75500  0.75500  0.75500  1.0000
  Ge  Ge1       1.0  0.37300  0.37300  0.37300  1.0000
  Ge  Ge2       1.0  0.62400  0.62400  0.62400  1.0000
  Ge  Ge3       1.0  0.87600  0.87600  0.87600  1.0000
  Hg  Hg1       1.0  0.00843  0.00843  0.00843  1.0000
  Hg  Hg2       1.0  0.49300  0.49300  0.49300  1.0000
