data_image0
_chemical_formula_structural       In4Mg10
_chemical_formula_sum              "In4 Mg10"
_cell_length_a       6.19225
_cell_length_b       7.39504
_cell_length_c       8.57869
_cell_angle_alpha    115.532
_cell_angle_beta     111.156
_cell_angle_gamma    90

_space_group_name_H-M_alt    "P 1"
_space_group_IT_number       1

loop_
  _space_group_symop_operation_xyz
  'x, y, z'

loop_
  _atom_site_type_symbol
  _atom_site_label
  _atom_site_symmetry_multiplicity
  _atom_site_fract_x
  _atom_site_fract_y
  _atom_site_fract_z
  _atom_site_occupancy
  In  In1       1.0  0.12200  0.35500  0.24500  1.0000
  In  In2       1.0  0.62200  0.89000  0.24500  1.0000
  In  In3       1.0  0.37800  0.11000  0.75500  1.0000
  In  In4       1.0  0.87800  0.64500  0.75500  1.0000
  Mg  Mg1       1.0  0.25000  0.50000  0.00000  1.0000
  Mg  Mg2       1.0  0.75000  0.50000  0.00000  1.0000
  Mg  Mg3       1.0  0.58700  0.24900  0.17400  1.0000
  Mg  Mg4       1.0  0.08700  0.92500  0.17400  1.0000
  Mg  Mg5       1.0  0.48300  0.73300  0.46600  1.0000
  Mg  Mg6       1.0  0.98300  0.73300  0.46600  1.0000
  Mg  Mg7       1.0  0.01710  0.26700  0.53400  1.0000
  Mg  Mg8       1.0  0.51700  0.26700  0.53400  1.0000
  Mg  Mg9       1.0  0.91300  0.07480  0.82600  1.0000
  Mg  Mg10      1.0  0.41300  0.75100  0.82600  1.0000
