data_image0
_chemical_formula_structural       Hf3Tl2Zn2
_chemical_formula_sum              "Hf3 Tl2 Zn2"
_cell_length_a       8.34443
_cell_length_b       8.34443
_cell_length_c       8.34443
_cell_angle_alpha    33.244
_cell_angle_beta     33.244
_cell_angle_gamma    33.244

_space_group_name_H-M_alt    "P 1"
_space_group_IT_number       1

loop_
  _space_group_symop_operation_xyz
  'x, y, z'

loop_
  _atom_site_type_symbol
  _atom_site_label
  _atom_site_symmetry_multiplicity
  _atom_site_fract_x
  _atom_site_fract_y
  _atom_site_fract_z
  _atom_site_occupancy
  Hf  Hf1       1.0  0.37200  0.37200  0.37200  1.0000
  Hf  Hf2       1.0  0.62800  0.62800  0.62800  1.0000
  Hf  Hf3       1.0  0.87900  0.87900  0.87900  1.0000
  Tl  Tl1       1.0  0.23900  0.23900  0.23900  1.0000
  Tl  Tl2       1.0  0.75800  0.75800  0.75800  1.0000
  Zn  Zn1       1.0  0.00456  0.00456  0.00456  1.0000
  Zn  Zn2       1.0  0.49500  0.49500  0.49500  1.0000
