data_image0
_chemical_formula_structural       Hg2Sn3Y2
_chemical_formula_sum              "Hg2 Sn3 Y2"
_cell_length_a       9.99149
_cell_length_b       9.99149
_cell_length_c       9.99149
_cell_angle_alpha    28.0961
_cell_angle_beta     28.0961
_cell_angle_gamma    28.0961

_space_group_name_H-M_alt    "P 1"
_space_group_IT_number       1

loop_
  _space_group_symop_operation_xyz
  'x, y, z'

loop_
  _atom_site_type_symbol
  _atom_site_label
  _atom_site_symmetry_multiplicity
  _atom_site_fract_x
  _atom_site_fract_y
  _atom_site_fract_z
  _atom_site_occupancy
  Hg  Hg1       1.0  0.05410  0.05410  0.05410  1.0000
  Hg  Hg2       1.0  0.48300  0.48300  0.48300  1.0000
  Sn  Sn1       1.0  0.34700  0.34700  0.34700  1.0000
  Sn  Sn2       1.0  0.63100  0.63100  0.63100  1.0000
  Sn  Sn3       1.0  0.86500  0.86500  0.86500  1.0000
  Y   Y1        1.0  0.23700  0.23700  0.23700  1.0000
  Y   Y2        1.0  0.75800  0.75800  0.75800  1.0000
