data_image0
_chemical_formula_structural       Sn3Tl2Zn2
_chemical_formula_sum              "Sn3 Tl2 Zn2"
_cell_length_a       8.07658
_cell_length_b       8.07658
_cell_length_c       8.07658
_cell_angle_alpha    38.0477
_cell_angle_beta     38.0477
_cell_angle_gamma    38.0477

_space_group_name_H-M_alt    "P 1"
_space_group_IT_number       1

loop_
  _space_group_symop_operation_xyz
  'x, y, z'

loop_
  _atom_site_type_symbol
  _atom_site_label
  _atom_site_symmetry_multiplicity
  _atom_site_fract_x
  _atom_site_fract_y
  _atom_site_fract_z
  _atom_site_occupancy
  Sn  Sn1       1.0  0.35700  0.35700  0.35700  1.0000
  Sn  Sn2       1.0  0.61500  0.61500  0.61500  1.0000
  Sn  Sn3       1.0  0.91900  0.91900  0.91900  1.0000
  Tl  Tl1       1.0  0.18600  0.18600  0.18600  1.0000
  Tl  Tl2       1.0  0.76600  0.76600  0.76600  1.0000
  Zn  Zn1       1.0  0.04740  0.04740  0.04740  1.0000
  Zn  Zn2       1.0  0.48500  0.48500  0.48500  1.0000
