data_image0
_chemical_formula_structural       Ge3In2Zn2
_chemical_formula_sum              "Ge3 In2 Zn2"
_cell_length_a       8.04999
_cell_length_b       8.04999
_cell_length_c       8.04999
_cell_angle_alpha    34.788
_cell_angle_beta     34.788
_cell_angle_gamma    34.788

_space_group_name_H-M_alt    "P 1"
_space_group_IT_number       1

loop_
  _space_group_symop_operation_xyz
  'x, y, z'

loop_
  _atom_site_type_symbol
  _atom_site_label
  _atom_site_symmetry_multiplicity
  _atom_site_fract_x
  _atom_site_fract_y
  _atom_site_fract_z
  _atom_site_occupancy
  Ge  Ge1       1.0  0.37100  0.37100  0.37100  1.0000
  Ge  Ge2       1.0  0.62400  0.62400  0.62400  1.0000
  Ge  Ge3       1.0  0.87600  0.87600  0.87600  1.0000
  In  In1       1.0  0.01120  0.01120  0.01120  1.0000
  In  In2       1.0  0.49400  0.49400  0.49400  1.0000
  Zn  Zn1       1.0  0.24400  0.24400  0.24400  1.0000
  Zn  Zn2       1.0  0.75500  0.75500  0.75500  1.0000
