data_image0
_chemical_formula_structural       Cr6F2O24Sr10
_chemical_formula_sum              "Cr6 F2 O24 Sr10"
_cell_length_a       9.90637
_cell_length_b       9.90607
_cell_length_c       7.41446
_cell_angle_alpha    90
_cell_angle_beta     90
_cell_angle_gamma    120.002

_space_group_name_H-M_alt    "P 1"
_space_group_IT_number       1

loop_
  _space_group_symop_operation_xyz
  'x, y, z'

loop_
  _atom_site_type_symbol
  _atom_site_label
  _atom_site_symmetry_multiplicity
  _atom_site_fract_x
  _atom_site_fract_y
  _atom_site_fract_z
  _atom_site_occupancy
  Cr  Cr1       1.0  0.63000  0.02910  0.25000  1.0000
  Cr  Cr2       1.0  0.39900  0.37000  0.25000  1.0000
  Cr  Cr3       1.0  0.97100  0.60100  0.25000  1.0000
  Cr  Cr4       1.0  0.02910  0.39900  0.75000  1.0000
  Cr  Cr5       1.0  0.60100  0.63000  0.75000  1.0000
  Cr  Cr6       1.0  0.37000  0.97100  0.75000  1.0000
  F   F1        1.0  0.00000  0.00000  0.25000  1.0000
  F   F2        1.0  0.00000  0.00000  0.75000  1.0000
  O   O1        1.0  0.34300  0.25200  0.06410  1.0000
  O   O2        1.0  0.90800  0.65700  0.06410  1.0000
  O   O3        1.0  0.74800  0.09190  0.06410  1.0000
  O   O4        1.0  0.52900  0.12900  0.25000  1.0000
  O   O5        1.0  0.87100  0.40000  0.25000  1.0000
  O   O6        1.0  0.60000  0.47100  0.25000  1.0000
  O   O7        1.0  0.30700  0.47800  0.25000  1.0000
  O   O8        1.0  0.17100  0.69300  0.25000  1.0000
  O   O9        1.0  0.52200  0.82900  0.25000  1.0000
  O   O10       1.0  0.74800  0.09190  0.43600  1.0000
  O   O11       1.0  0.90800  0.65700  0.43600  1.0000
  O   O12       1.0  0.34300  0.25200  0.43600  1.0000
  O   O13       1.0  0.65700  0.74800  0.56400  1.0000
  O   O14       1.0  0.09180  0.34300  0.56400  1.0000
  O   O15       1.0  0.25200  0.90800  0.56400  1.0000
  O   O16       1.0  0.47800  0.17100  0.75000  1.0000
  O   O17       1.0  0.82900  0.30700  0.75000  1.0000
  O   O18       1.0  0.69300  0.52200  0.75000  1.0000
  O   O19       1.0  0.40000  0.52900  0.75000  1.0000
  O   O20       1.0  0.12900  0.60000  0.75000  1.0000
  O   O21       1.0  0.47100  0.87100  0.75000  1.0000
  O   O22       1.0  0.09180  0.34300  0.93600  1.0000
  O   O23       1.0  0.25200  0.90800  0.93600  1.0000
  O   O24       1.0  0.65700  0.74800  0.93600  1.0000
  Sr  Sr1       1.0  0.66700  0.33300  0.00000  1.0000
  Sr  Sr2       1.0  0.33300  0.66700  0.00000  1.0000
  Sr  Sr3       1.0  0.00934  0.24900  0.25000  1.0000
  Sr  Sr4       1.0  0.75100  0.76100  0.25000  1.0000
  Sr  Sr5       1.0  0.23900  0.99100  0.25000  1.0000
  Sr  Sr6       1.0  0.33300  0.66700  0.50000  1.0000
  Sr  Sr7       1.0  0.66700  0.33300  0.50000  1.0000
  Sr  Sr8       1.0  0.76100  0.00934  0.75000  1.0000
  Sr  Sr9       1.0  0.24900  0.23900  0.75000  1.0000
  Sr  Sr10      1.0  0.99100  0.75100  0.75000  1.0000
