data_image0
_chemical_formula_structural       F12Ge2H20N8
_chemical_formula_sum              "F12 Ge2 H20 N8"
_cell_length_a       5.71403
_cell_length_b       4.96079
_cell_length_c       10.7644
_cell_angle_alpha    90
_cell_angle_beta     99.8971
_cell_angle_gamma    90

_space_group_name_H-M_alt    "P 1"
_space_group_IT_number       1

loop_
  _space_group_symop_operation_xyz
  'x, y, z'

loop_
  _atom_site_type_symbol
  _atom_site_label
  _atom_site_symmetry_multiplicity
  _atom_site_fract_x
  _atom_site_fract_y
  _atom_site_fract_z
  _atom_site_occupancy
  F   F1        1.0  0.75400  0.83900  0.05540  1.0000
  F   F2        1.0  0.20900  0.74000  0.07840  1.0000
  F   F3        1.0  0.05800  0.19800  0.14300  1.0000
  F   F4        1.0  0.44200  0.69800  0.35700  1.0000
  F   F5        1.0  0.29100  0.24000  0.42200  1.0000
  F   F6        1.0  0.74600  0.33900  0.44500  1.0000
  F   F7        1.0  0.25400  0.66100  0.55500  1.0000
  F   F8        1.0  0.70900  0.76000  0.57800  1.0000
  F   F9        1.0  0.55800  0.30200  0.64300  1.0000
  F   F10       1.0  0.94200  0.80200  0.85700  1.0000
  F   F11       1.0  0.79100  0.26000  0.92200  1.0000
  F   F12       1.0  0.24600  0.16100  0.94500  1.0000
  Ge  Ge1       1.0  0.00000  0.00000  0.00000  1.0000
  Ge  Ge2       1.0  0.50000  0.50000  0.50000  1.0000
  H   H1        1.0  0.62600  0.29100  0.07480  1.0000
  H   H2        1.0  0.40700  0.43500  0.13000  1.0000
  H   H3        1.0  0.43700  0.96200  0.16600  1.0000
  H   H4        1.0  0.05360  0.64800  0.20400  1.0000
  H   H5        1.0  0.79600  0.51600  0.23500  1.0000
  H   H6        1.0  0.70400  0.01570  0.26500  1.0000
  H   H7        1.0  0.44600  0.14800  0.29600  1.0000
  H   H8        1.0  0.06340  0.46200  0.33400  1.0000
  H   H9        1.0  0.09270  0.93500  0.37000  1.0000
  H   H10       1.0  0.87400  0.79100  0.42500  1.0000
  H   H11       1.0  0.12600  0.20900  0.57500  1.0000
  H   H12       1.0  0.90700  0.06510  0.63000  1.0000
  H   H13       1.0  0.93700  0.53800  0.66600  1.0000
  H   H14       1.0  0.55400  0.85200  0.70400  1.0000
  H   H15       1.0  0.29600  0.98400  0.73500  1.0000
  H   H16       1.0  0.20400  0.48400  0.76500  1.0000
  H   H17       1.0  0.94600  0.35200  0.79600  1.0000
  H   H18       1.0  0.56300  0.03820  0.83400  1.0000
  H   H19       1.0  0.59300  0.56500  0.87000  1.0000
  H   H20       1.0  0.37400  0.70900  0.92500  1.0000
  N   N1        1.0  0.57100  0.34700  0.15600  1.0000
  N   N2        1.0  0.53500  0.10400  0.22200  1.0000
  N   N3        1.0  0.96500  0.60400  0.27800  1.0000
  N   N4        1.0  0.92900  0.84700  0.34400  1.0000
  N   N5        1.0  0.07060  0.15300  0.65600  1.0000
  N   N6        1.0  0.03510  0.39600  0.72200  1.0000
  N   N7        1.0  0.46500  0.89600  0.77800  1.0000
  N   N8        1.0  0.42900  0.65300  0.84400  1.0000
