data_image0
_chemical_formula_structural       Cl6Fe2Mn14O20
_chemical_formula_sum              "Cl6 Fe2 Mn14 O20"
_cell_length_a       9.3232
_cell_length_b       9.3232
_cell_length_c       9.3232
_cell_angle_alpha    120
_cell_angle_beta     90
_cell_angle_gamma    120

_space_group_name_H-M_alt    "P 1"
_space_group_IT_number       1

loop_
  _space_group_symop_operation_xyz
  'x, y, z'

loop_
  _atom_site_type_symbol
  _atom_site_label
  _atom_site_symmetry_multiplicity
  _atom_site_fract_x
  _atom_site_fract_y
  _atom_site_fract_z
  _atom_site_occupancy
  Cl  Cl1       1.0  0.30300  0.00000  0.30300  1.0000
  Cl  Cl2       1.0  0.30300  0.60600  0.30300  1.0000
  Cl  Cl3       1.0  0.69700  0.00000  0.30300  1.0000
  Cl  Cl4       1.0  0.30300  0.00000  0.69700  1.0000
  Cl  Cl5       1.0  0.69700  0.00000  0.69700  1.0000
  Cl  Cl6       1.0  0.69700  0.39400  0.69700  1.0000
  Fe  Fe1       1.0  0.75000  0.50000  0.25000  1.0000
  Fe  Fe2       1.0  0.25000  0.50000  0.75000  1.0000
  Mn  Mn1       1.0  0.00000  0.00000  0.00000  1.0000
  Mn  Mn2       1.0  0.35100  0.00000  0.00000  1.0000
  Mn  Mn3       1.0  0.64900  0.00000  0.00000  1.0000
  Mn  Mn4       1.0  0.00000  0.35100  0.00000  1.0000
  Mn  Mn5       1.0  0.35100  0.35100  0.00000  1.0000
  Mn  Mn6       1.0  0.00000  0.64900  0.00000  1.0000
  Mn  Mn7       1.0  0.64900  0.64900  0.00000  1.0000
  Mn  Mn8       1.0  0.00000  0.00000  0.35100  1.0000
  Mn  Mn9       1.0  1.00000  0.35100  0.35100  1.0000
  Mn  Mn10      1.0  0.35100  0.35100  0.35100  1.0000
  Mn  Mn11      1.0  0.50000  0.00000  0.50000  1.0000
  Mn  Mn12      1.0  0.00000  0.00000  0.64900  1.0000
  Mn  Mn13      1.0  0.00000  0.64900  0.64900  1.0000
  Mn  Mn14      1.0  0.64900  0.64900  0.64900  1.0000
  O   O1        1.0  0.90300  0.50000  0.09700  1.0000
  O   O2        1.0  0.59700  0.50000  0.09700  1.0000
  O   O3        1.0  0.59700  0.19400  0.09700  1.0000
  O   O4        1.0  0.30000  0.20000  0.09990  1.0000
  O   O5        1.0  0.90000  0.20000  0.09990  1.0000
  O   O6        1.0  0.90000  0.80000  0.09990  1.0000
  O   O7        1.0  0.09990  0.20000  0.30000  1.0000
  O   O8        1.0  0.59700  0.50000  0.40300  1.0000
  O   O9        1.0  0.90300  0.50000  0.40300  1.0000
  O   O10       1.0  0.90300  0.80600  0.40300  1.0000
  O   O11       1.0  0.09700  0.19400  0.59700  1.0000
  O   O12       1.0  0.09700  0.50000  0.59700  1.0000
  O   O13       1.0  0.40300  0.50000  0.59700  1.0000
  O   O14       1.0  0.90000  0.80000  0.70000  1.0000
  O   O15       1.0  0.09990  0.20000  0.90000  1.0000
  O   O16       1.0  0.09990  0.80000  0.90000  1.0000
  O   O17       1.0  0.70000  0.80000  0.90000  1.0000
  O   O18       1.0  0.09700  0.50000  0.90300  1.0000
  O   O19       1.0  0.40300  0.50000  0.90300  1.0000
  O   O20       1.0  0.40300  0.80600  0.90300  1.0000
