data_image0
_chemical_formula_structural       Ge4O9Pb
_chemical_formula_sum              "Ge4 O9 Pb1"
_cell_length_a       4.66169
_cell_length_b       6.79229
_cell_length_c       6.79229
_cell_angle_alpha    114.691
_cell_angle_beta     103.219
_cell_angle_gamma    103.219

_space_group_name_H-M_alt    "P 1"
_space_group_IT_number       1

loop_
  _space_group_symop_operation_xyz
  'x, y, z'

loop_
  _atom_site_type_symbol
  _atom_site_label
  _atom_site_symmetry_multiplicity
  _atom_site_fract_x
  _atom_site_fract_y
  _atom_site_fract_z
  _atom_site_occupancy
  Ge  Ge1       1.0  0.67900  0.48600  0.06800  1.0000
  Ge  Ge2       1.0  0.50000  0.48600  0.51400  1.0000
  Ge  Ge3       1.0  0.32100  0.93200  0.51400  1.0000
  Ge  Ge4       1.0  0.00000  0.30800  0.69200  1.0000
  O   O1        1.0  0.51300  0.37400  0.22800  1.0000
  O   O2        1.0  0.00000  0.75600  0.24400  1.0000
  O   O3        1.0  0.12900  0.28600  0.44100  1.0000
  O   O4        1.0  0.60200  0.09300  0.45300  1.0000
  O   O5        1.0  0.48700  0.77200  0.62600  1.0000
  O   O6        1.0  0.87100  0.55900  0.71400  1.0000
  O   O7        1.0  0.16000  0.07830  0.71700  1.0000
  O   O8        1.0  0.39800  0.54700  0.90700  1.0000
  O   O9        1.0  0.84000  0.28300  0.92200  1.0000
  Pb  Pb1       1.0  1.00000  0.99300  0.00664  1.0000
