data_image0
_chemical_formula_structural       Nb2Ni8P32
_chemical_formula_sum              "Nb2 Ni8 P32"
_cell_length_a       5.70946
_cell_length_b       10.2771
_cell_length_c       11.192
_cell_angle_alpha    100.298
_cell_angle_beta     90
_cell_angle_gamma    106.127

_space_group_name_H-M_alt    "P 1"
_space_group_IT_number       1

loop_
  _space_group_symop_operation_xyz
  'x, y, z'

loop_
  _atom_site_type_symbol
  _atom_site_label
  _atom_site_symmetry_multiplicity
  _atom_site_fract_x
  _atom_site_fract_y
  _atom_site_fract_z
  _atom_site_occupancy
  Nb  Nb1       1.0  0.39400  0.00000  0.25000  1.0000
  Nb  Nb2       1.0  0.60600  0.00000  0.75000  1.0000
  Ni  Ni1       1.0  0.01260  0.21500  0.07380  1.0000
  Ni  Ni2       1.0  0.69400  0.49900  0.12900  1.0000
  Ni  Ni3       1.0  0.19600  0.50100  0.37100  1.0000
  Ni  Ni4       1.0  0.79800  0.78500  0.42600  1.0000
  Ni  Ni5       1.0  0.20200  0.21500  0.57400  1.0000
  Ni  Ni6       1.0  0.80400  0.49900  0.62900  1.0000
  Ni  Ni7       1.0  0.30600  0.50100  0.87100  1.0000
  Ni  Ni8       1.0  0.98700  0.78500  0.92600  1.0000
  P   P1        1.0  0.67900  0.28400  0.04250  1.0000
  P   P2        1.0  0.27800  0.42600  0.05370  1.0000
  P   P3        1.0  0.34100  0.12700  0.08010  1.0000
  P   P4        1.0  0.74700  0.00803  0.10500  1.0000
  P   P5        1.0  0.98600  0.87400  0.13100  1.0000
  P   P6        1.0  0.38000  0.75400  0.16000  1.0000
  P   P7        1.0  0.11400  0.55600  0.18700  1.0000
  P   P8        1.0  0.72900  0.71600  0.21900  1.0000
  P   P9        1.0  0.01280  0.28400  0.28100  1.0000
  P   P10       1.0  0.55800  0.44400  0.31300  1.0000
  P   P11       1.0  0.62600  0.24600  0.34000  1.0000
  P   P12       1.0  0.11200  0.12600  0.36900  1.0000
  P   P13       1.0  0.73900  0.99200  0.39500  1.0000
  P   P14       1.0  0.21400  0.87300  0.42000  1.0000
  P   P15       1.0  0.85200  0.57400  0.44600  1.0000
  P   P16       1.0  0.39500  0.71600  0.45700  1.0000
  P   P17       1.0  0.60500  0.28400  0.54300  1.0000
  P   P18       1.0  0.14800  0.42600  0.55400  1.0000
  P   P19       1.0  0.78600  0.12700  0.58000  1.0000
  P   P20       1.0  0.26100  0.00803  0.60500  1.0000
  P   P21       1.0  0.88800  0.87400  0.63100  1.0000
  P   P22       1.0  0.37400  0.75400  0.66000  1.0000
  P   P23       1.0  0.44200  0.55600  0.68700  1.0000
  P   P24       1.0  0.98700  0.71600  0.71900  1.0000
  P   P25       1.0  0.27100  0.28400  0.78100  1.0000
  P   P26       1.0  0.88600  0.44400  0.81300  1.0000
  P   P27       1.0  0.62000  0.24600  0.84000  1.0000
  P   P28       1.0  0.01410  0.12600  0.86900  1.0000
  P   P29       1.0  0.25300  0.99200  0.89500  1.0000
  P   P30       1.0  0.65900  0.87300  0.92000  1.0000
  P   P31       1.0  0.72200  0.57400  0.94600  1.0000
  P   P32       1.0  0.32100  0.71600  0.95700  1.0000
