data_image0
_chemical_formula_structural       Ga2Sn3Zn2
_chemical_formula_sum              "Ga2 Sn3 Zn2"
_cell_length_a       8.43159
_cell_length_b       8.43159
_cell_length_c       8.43159
_cell_angle_alpha    34.0876
_cell_angle_beta     34.0876
_cell_angle_gamma    34.0876

_space_group_name_H-M_alt    "P 1"
_space_group_IT_number       1

loop_
  _space_group_symop_operation_xyz
  'x, y, z'

loop_
  _atom_site_type_symbol
  _atom_site_label
  _atom_site_symmetry_multiplicity
  _atom_site_fract_x
  _atom_site_fract_y
  _atom_site_fract_z
  _atom_site_occupancy
  Ga  Ga1       1.0  0.00689  0.00689  0.00689  1.0000
  Ga  Ga2       1.0  0.49500  0.49500  0.49500  1.0000
  Sn  Sn1       1.0  0.37500  0.37500  0.37500  1.0000
  Sn  Sn2       1.0  0.62500  0.62500  0.62500  1.0000
  Sn  Sn3       1.0  0.87400  0.87400  0.87400  1.0000
  Zn  Zn1       1.0  0.24400  0.24400  0.24400  1.0000
  Zn  Zn2       1.0  0.75500  0.75500  0.75500  1.0000
