data_image0
_chemical_formula_structural       Ba4CaNa2O26S2Si4Ti3
_chemical_formula_sum              "Ba4 Ca1 Na2 O26 S2 Si4 Ti3"
_cell_length_a       14.6167
_cell_length_b       7.12442
_cell_length_c       5.43569
_cell_angle_alpha    89.9514
_cell_angle_beta     94.8867
_cell_angle_gamma    98.7234

_space_group_name_H-M_alt    "P 1"
_space_group_IT_number       1

loop_
  _space_group_symop_operation_xyz
  'x, y, z'

loop_
  _atom_site_type_symbol
  _atom_site_label
  _atom_site_symmetry_multiplicity
  _atom_site_fract_x
  _atom_site_fract_y
  _atom_site_fract_z
  _atom_site_occupancy
  Ba  Ba1       1.0  0.29400  0.29600  0.06740  1.0000
  Ba  Ba2       1.0  0.07040  0.54000  0.51900  1.0000
  Ba  Ba3       1.0  0.38000  0.83400  0.58400  1.0000
  Ba  Ba4       1.0  0.98300  0.00209  0.99800  1.0000
  Ca  Ca1       1.0  0.68200  0.14300  0.78800  1.0000
  Na  Na1       1.0  0.68200  0.42400  0.29000  1.0000
  Na  Na2       1.0  0.68200  0.68300  0.79100  1.0000
  O   O1        1.0  0.10100  0.68900  0.02580  1.0000
  O   O2        1.0  0.75900  0.94900  0.03020  1.0000
  O   O3        1.0  0.24500  0.91800  0.06480  1.0000
  O   O4        1.0  0.44800  0.84800  0.09780  1.0000
  O   O5        1.0  0.60100  0.67600  0.12700  1.0000
  O   O6        1.0  0.60300  0.11200  0.12800  1.0000
  O   O7        1.0  0.92500  0.30300  0.23500  1.0000
  O   O8        1.0  0.91900  0.67600  0.23700  1.0000
  O   O9        1.0  0.23600  0.61800  0.27900  1.0000
  O   O10       1.0  0.12700  0.21000  0.30800  1.0000
  O   O11       1.0  0.44300  0.16000  0.34500  1.0000
  O   O12       1.0  0.44200  0.53500  0.34600  1.0000
  O   O13       1.0  0.76400  0.16200  0.45200  1.0000
  O   O14       1.0  0.76100  0.72400  0.45200  1.0000
  O   O15       1.0  0.91700  0.98800  0.48300  1.0000
  O   O16       1.0  0.12500  0.91500  0.53400  1.0000
  O   O17       1.0  0.60600  0.90300  0.54800  1.0000
  O   O18       1.0  0.26400  0.15600  0.56300  1.0000
  O   O19       1.0  0.59800  0.39000  0.63200  1.0000
  O   O20       1.0  0.91900  0.67700  0.72600  1.0000
  O   O21       1.0  0.92300  0.30100  0.72800  1.0000
  O   O22       1.0  0.12700  0.21300  0.75400  1.0000
  O   O23       1.0  0.23700  0.62300  0.83400  1.0000
  O   O24       1.0  0.44200  0.53500  0.85300  1.0000
  O   O25       1.0  0.44500  0.16000  0.85500  1.0000
  O   O26       1.0  0.76700  0.43600  0.95100  1.0000
  S   S1        1.0  0.20500  0.71600  0.05080  1.0000
  S   S2        1.0  0.16100  0.11900  0.53900  1.0000
  Si  Si1       1.0  0.49000  0.64300  0.11100  1.0000
  Si  Si2       1.0  0.49100  0.07860  0.11300  1.0000
  Si  Si3       1.0  0.87500  0.19400  0.46800  1.0000
  Si  Si4       1.0  0.87200  0.75700  0.46900  1.0000
  Ti  Ti1       1.0  0.68200  0.90800  0.28900  1.0000
  Ti  Ti2       1.0  0.47800  0.35800  0.60800  1.0000
  Ti  Ti3       1.0  0.88600  0.47800  0.97400  1.0000
