data_image0
_chemical_formula_structural       Ge3Tl2Zn2
_chemical_formula_sum              "Ge3 Tl2 Zn2"
_cell_length_a       8.26868
_cell_length_b       8.26868
_cell_length_c       8.26868
_cell_angle_alpha    34.3361
_cell_angle_beta     34.3361
_cell_angle_gamma    34.3361

_space_group_name_H-M_alt    "P 1"
_space_group_IT_number       1

loop_
  _space_group_symop_operation_xyz
  'x, y, z'

loop_
  _atom_site_type_symbol
  _atom_site_label
  _atom_site_symmetry_multiplicity
  _atom_site_fract_x
  _atom_site_fract_y
  _atom_site_fract_z
  _atom_site_occupancy
  Ge  Ge1       1.0  0.36700  0.36700  0.36700  1.0000
  Ge  Ge2       1.0  0.63400  0.63400  0.63400  1.0000
  Ge  Ge3       1.0  0.88700  0.88700  0.88700  1.0000
  Tl  Tl1       1.0  0.22800  0.22800  0.22800  1.0000
  Tl  Tl2       1.0  0.76300  0.76300  0.76300  1.0000
  Zn  Zn1       1.0  0.00229  0.00229  0.00229  1.0000
  Zn  Zn2       1.0  0.49400  0.49400  0.49400  1.0000
