data_image0
_chemical_formula_structural       Cd2Ge3In2
_chemical_formula_sum              "Cd2 Ge3 In2"
_cell_length_a       8.40981
_cell_length_b       8.40981
_cell_length_c       8.40981
_cell_angle_alpha    34.1868
_cell_angle_beta     34.1868
_cell_angle_gamma    34.1868

_space_group_name_H-M_alt    "P 1"
_space_group_IT_number       1

loop_
  _space_group_symop_operation_xyz
  'x, y, z'

loop_
  _atom_site_type_symbol
  _atom_site_label
  _atom_site_symmetry_multiplicity
  _atom_site_fract_x
  _atom_site_fract_y
  _atom_site_fract_z
  _atom_site_occupancy
  Cd  Cd1       1.0  0.24300  0.24300  0.24300  1.0000
  Cd  Cd2       1.0  0.75500  0.75500  0.75500  1.0000
  Ge  Ge1       1.0  0.37300  0.37300  0.37300  1.0000
  Ge  Ge2       1.0  0.62500  0.62500  0.62500  1.0000
  Ge  Ge3       1.0  0.87700  0.87700  0.87700  1.0000
  In  In1       1.0  0.00743  0.00743  0.00743  1.0000
  In  In2       1.0  0.49500  0.49500  0.49500  1.0000
