data_image0
_chemical_formula_structural       B8H32U2
_chemical_formula_sum              "B8 H32 U2"
_cell_length_a       5.47812
_cell_length_b       5.47812
_cell_length_c       11.2724
_cell_angle_alpha    90
_cell_angle_beta     90
_cell_angle_gamma    89.9493

_space_group_name_H-M_alt    "P 1"
_space_group_IT_number       1

loop_
  _space_group_symop_operation_xyz
  'x, y, z'

loop_
  _atom_site_type_symbol
  _atom_site_label
  _atom_site_symmetry_multiplicity
  _atom_site_fract_x
  _atom_site_fract_y
  _atom_site_fract_z
  _atom_site_occupancy
  B   B1        1.0  0.22500  0.77500  0.03440  1.0000
  B   B2        1.0  0.36300  0.20600  0.25000  1.0000
  B   B3        1.0  0.79400  0.63700  0.25000  1.0000
  B   B4        1.0  0.22500  0.77500  0.46600  1.0000
  B   B5        1.0  0.77500  0.22500  0.53400  1.0000
  B   B6        1.0  0.20600  0.36300  0.75000  1.0000
  B   B7        1.0  0.63700  0.79400  0.75000  1.0000
  B   B8        1.0  0.77500  0.22500  0.96600  1.0000
  H   H1        1.0  0.17800  0.56300  0.06830  1.0000
  H   H2        1.0  0.43700  0.82200  0.06830  1.0000
  H   H3        1.0  0.80700  0.19300  0.06940  1.0000
  H   H4        1.0  0.09520  0.90500  0.09970  1.0000
  H   H5        1.0  0.37500  0.32900  0.15900  1.0000
  H   H6        1.0  0.67100  0.62500  0.15900  1.0000
  H   H7        1.0  0.53500  0.05940  0.25000  1.0000
  H   H8        1.0  0.16200  0.10200  0.25000  1.0000
  H   H9        1.0  0.94100  0.46500  0.25000  1.0000
  H   H10       1.0  0.89800  0.83800  0.25000  1.0000
  H   H11       1.0  0.37500  0.32900  0.34100  1.0000
  H   H12       1.0  0.67100  0.62500  0.34100  1.0000
  H   H13       1.0  0.09520  0.90500  0.40000  1.0000
  H   H14       1.0  0.80700  0.19300  0.43100  1.0000
  H   H15       1.0  0.17800  0.56300  0.43200  1.0000
  H   H16       1.0  0.43700  0.82200  0.43200  1.0000
  H   H17       1.0  0.56300  0.17800  0.56800  1.0000
  H   H18       1.0  0.82200  0.43700  0.56800  1.0000
  H   H19       1.0  0.19300  0.80700  0.56900  1.0000
  H   H20       1.0  0.90500  0.09520  0.60000  1.0000
  H   H21       1.0  0.32900  0.37500  0.65900  1.0000
  H   H22       1.0  0.62500  0.67100  0.65900  1.0000
  H   H23       1.0  0.10200  0.16200  0.75000  1.0000
  H   H24       1.0  0.05940  0.53500  0.75000  1.0000
  H   H25       1.0  0.83800  0.89800  0.75000  1.0000
  H   H26       1.0  0.46500  0.94100  0.75000  1.0000
  H   H27       1.0  0.32900  0.37500  0.84100  1.0000
  H   H28       1.0  0.62500  0.67100  0.84100  1.0000
  H   H29       1.0  0.90500  0.09520  0.90000  1.0000
  H   H30       1.0  0.19300  0.80700  0.93100  1.0000
  H   H31       1.0  0.56300  0.17800  0.93200  1.0000
  H   H32       1.0  0.82200  0.43700  0.93200  1.0000
  U   U1        1.0  0.29100  0.70900  0.25000  1.0000
  U   U2        1.0  0.70900  0.29100  0.75000  1.0000
