data_image0
_chemical_formula_structural       Sn3Y2Zn2
_chemical_formula_sum              "Sn3 Y2 Zn2"
_cell_length_a       9.80723
_cell_length_b       9.80723
_cell_length_c       9.80723
_cell_angle_alpha    27.5028
_cell_angle_beta     27.5028
_cell_angle_gamma    27.5028

_space_group_name_H-M_alt    "P 1"
_space_group_IT_number       1

loop_
  _space_group_symop_operation_xyz
  'x, y, z'

loop_
  _atom_site_type_symbol
  _atom_site_label
  _atom_site_symmetry_multiplicity
  _atom_site_fract_x
  _atom_site_fract_y
  _atom_site_fract_z
  _atom_site_occupancy
  Sn  Sn1       1.0  0.35300  0.35300  0.35300  1.0000
  Sn  Sn2       1.0  0.63500  0.63500  0.63500  1.0000
  Sn  Sn3       1.0  0.85900  0.85900  0.85900  1.0000
  Y   Y1        1.0  0.23900  0.23900  0.23900  1.0000
  Y   Y2        1.0  0.75500  0.75500  0.75500  1.0000
  Zn  Zn1       1.0  0.04660  0.04660  0.04660  1.0000
  Zn  Zn2       1.0  0.48800  0.48800  0.48800  1.0000
