data_image0
_chemical_formula_structural       B2Sn3Zn2
_chemical_formula_sum              "B2 Sn3 Zn2"
_cell_length_a       9.95518
_cell_length_b       9.95518
_cell_length_c       9.95518
_cell_angle_alpha    22.835
_cell_angle_beta     22.835
_cell_angle_gamma    22.835

_space_group_name_H-M_alt    "P 1"
_space_group_IT_number       1

loop_
  _space_group_symop_operation_xyz
  'x, y, z'

loop_
  _atom_site_type_symbol
  _atom_site_label
  _atom_site_symmetry_multiplicity
  _atom_site_fract_x
  _atom_site_fract_y
  _atom_site_fract_z
  _atom_site_occupancy
  B   B1        1.0  0.51100  0.51100  0.51100  1.0000
  B   B2        1.0  0.94300  0.94300  0.94300  1.0000
  Sn  Sn1       1.0  0.43600  0.43600  0.43600  1.0000
  Sn  Sn2       1.0  0.64300  0.64300  0.64300  1.0000
  Sn  Sn3       1.0  0.85900  0.85900  0.85900  1.0000
  Zn  Zn1       1.0  0.25500  0.25500  0.25500  1.0000
  Zn  Zn2       1.0  0.72800  0.72800  0.72800  1.0000
