data_image0
_chemical_formula_structural       Ge3Hg2Tl2
_chemical_formula_sum              "Ge3 Hg2 Tl2"
_cell_length_a       8.45494
_cell_length_b       8.45494
_cell_length_c       8.45494
_cell_angle_alpha    34.8632
_cell_angle_beta     34.8632
_cell_angle_gamma    34.8632

_space_group_name_H-M_alt    "P 1"
_space_group_IT_number       1

loop_
  _space_group_symop_operation_xyz
  'x, y, z'

loop_
  _atom_site_type_symbol
  _atom_site_label
  _atom_site_symmetry_multiplicity
  _atom_site_fract_x
  _atom_site_fract_y
  _atom_site_fract_z
  _atom_site_occupancy
  Ge  Ge1       1.0  0.36700  0.36700  0.36700  1.0000
  Ge  Ge2       1.0  0.62700  0.62700  0.62700  1.0000
  Ge  Ge3       1.0  0.88500  0.88500  0.88500  1.0000
  Hg  Hg1       1.0  0.00888  0.00888  0.00888  1.0000
  Hg  Hg2       1.0  0.49300  0.49300  0.49300  1.0000
  Tl  Tl1       1.0  0.23700  0.23700  0.23700  1.0000
  Tl  Tl2       1.0  0.75900  0.75900  0.75900  1.0000
