data_image0
_chemical_formula_structural       Ge3Hg2Y2
_chemical_formula_sum              "Ge3 Hg2 Y2"
_cell_length_a       10.2062
_cell_length_b       10.2062
_cell_length_c       10.2062
_cell_angle_alpha    25.2492
_cell_angle_beta     25.2492
_cell_angle_gamma    25.2492

_space_group_name_H-M_alt    "P 1"
_space_group_IT_number       1

loop_
  _space_group_symop_operation_xyz
  'x, y, z'

loop_
  _atom_site_type_symbol
  _atom_site_label
  _atom_site_symmetry_multiplicity
  _atom_site_fract_x
  _atom_site_fract_y
  _atom_site_fract_z
  _atom_site_occupancy
  Ge  Ge1       1.0  0.34000  0.34000  0.34000  1.0000
  Ge  Ge2       1.0  0.63700  0.63700  0.63700  1.0000
  Ge  Ge3       1.0  0.86300  0.86300  0.86300  1.0000
  Hg  Hg1       1.0  0.04480  0.04480  0.04480  1.0000
  Hg  Hg2       1.0  0.48900  0.48900  0.48900  1.0000
  Y   Y1        1.0  0.23900  0.23900  0.23900  1.0000
  Y   Y2        1.0  0.76200  0.76200  0.76200  1.0000
