data_image0
_chemical_formula_structural       Ni8P32V2
_chemical_formula_sum              "Ni8 P32 V2"
_cell_length_a       5.64259
_cell_length_b       10.1654
_cell_length_c       11.073
_cell_angle_alpha    100.484
_cell_angle_beta     90
_cell_angle_gamma    106.113

_space_group_name_H-M_alt    "P 1"
_space_group_IT_number       1

loop_
  _space_group_symop_operation_xyz
  'x, y, z'

loop_
  _atom_site_type_symbol
  _atom_site_label
  _atom_site_symmetry_multiplicity
  _atom_site_fract_x
  _atom_site_fract_y
  _atom_site_fract_z
  _atom_site_occupancy
  Ni  Ni1       1.0  0.01240  0.21200  0.07380  1.0000
  Ni  Ni2       1.0  0.69300  0.49900  0.12900  1.0000
  Ni  Ni3       1.0  0.19400  0.50100  0.37100  1.0000
  Ni  Ni4       1.0  0.80000  0.78800  0.42600  1.0000
  Ni  Ni5       1.0  0.20000  0.21200  0.57400  1.0000
  Ni  Ni6       1.0  0.80600  0.49900  0.62900  1.0000
  Ni  Ni7       1.0  0.30700  0.50100  0.87100  1.0000
  Ni  Ni8       1.0  0.98800  0.78800  0.92600  1.0000
  P   P1        1.0  0.67800  0.28200  0.04160  1.0000
  P   P2        1.0  0.27800  0.42500  0.05370  1.0000
  P   P3        1.0  0.34300  0.12100  0.08240  1.0000
  P   P4        1.0  0.73500  0.00829  0.10900  1.0000
  P   P5        1.0  0.99500  0.88000  0.13400  1.0000
  P   P6        1.0  0.38200  0.76300  0.16400  1.0000
  P   P7        1.0  0.11400  0.55800  0.18800  1.0000
  P   P8        1.0  0.73100  0.71900  0.22000  1.0000
  P   P9        1.0  0.01190  0.28100  0.28000  1.0000
  P   P10       1.0  0.55600  0.44200  0.31200  1.0000
  P   P11       1.0  0.61800  0.23700  0.33600  1.0000
  P   P12       1.0  0.11500  0.12000  0.36600  1.0000
  P   P13       1.0  0.72700  0.99200  0.39100  1.0000
  P   P14       1.0  0.22200  0.87900  0.41800  1.0000
  P   P15       1.0  0.85300  0.57500  0.44600  1.0000
  P   P16       1.0  0.39600  0.71800  0.45800  1.0000
  P   P17       1.0  0.60400  0.28200  0.54200  1.0000
  P   P18       1.0  0.14700  0.42500  0.55400  1.0000
  P   P19       1.0  0.77800  0.12100  0.58200  1.0000
  P   P20       1.0  0.27300  0.00829  0.60900  1.0000
  P   P21       1.0  0.88500  0.88000  0.63400  1.0000
  P   P22       1.0  0.38200  0.76300  0.66400  1.0000
  P   P23       1.0  0.44400  0.55800  0.68800  1.0000
  P   P24       1.0  0.98800  0.71900  0.72000  1.0000
  P   P25       1.0  0.26900  0.28100  0.78000  1.0000
  P   P26       1.0  0.88600  0.44200  0.81200  1.0000
  P   P27       1.0  0.61800  0.23700  0.83600  1.0000
  P   P28       1.0  0.00479  0.12000  0.86600  1.0000
  P   P29       1.0  0.26500  0.99200  0.89100  1.0000
  P   P30       1.0  0.65700  0.87900  0.91800  1.0000
  P   P31       1.0  0.72200  0.57500  0.94600  1.0000
  P   P32       1.0  0.32200  0.71800  0.95800  1.0000
  V   V1        1.0  0.39300  0.00000  0.25000  1.0000
  V   V2        1.0  0.60700  0.00000  0.75000  1.0000
