data_image0
_chemical_formula_structural       Ba4Nd4O26Si8
_chemical_formula_sum              "Ba4 Nd4 O26 Si8"
_cell_length_a       6.64649
_cell_length_b       8.90563
_cell_length_c       10.0639
_cell_angle_alpha    86.2318
_cell_angle_beta     73.5613
_cell_angle_gamma    86.1339

_space_group_name_H-M_alt    "P 1"
_space_group_IT_number       1

loop_
  _space_group_symop_operation_xyz
  'x, y, z'

loop_
  _atom_site_type_symbol
  _atom_site_label
  _atom_site_symmetry_multiplicity
  _atom_site_fract_x
  _atom_site_fract_y
  _atom_site_fract_z
  _atom_site_occupancy
  Ba  Ba1       1.0  0.25300  0.32700  0.07620  1.0000
  Ba  Ba2       1.0  0.27100  0.16900  0.44400  1.0000
  Ba  Ba3       1.0  0.72900  0.83100  0.55600  1.0000
  Ba  Ba4       1.0  0.74700  0.67300  0.92400  1.0000
  Nd  Nd1       1.0  0.19400  0.87900  0.10000  1.0000
  Nd  Nd2       1.0  0.30800  0.60800  0.39600  1.0000
  Nd  Nd3       1.0  0.69200  0.39200  0.60400  1.0000
  Nd  Nd4       1.0  0.80600  0.12100  0.90000  1.0000
  O   O1        1.0  0.30500  0.62800  0.00631  1.0000
  O   O2        1.0  0.84100  0.90300  0.06430  1.0000
  O   O3        1.0  0.48300  0.07090  0.11900  1.0000
  O   O4        1.0  0.85100  0.51800  0.16200  1.0000
  O   O5        1.0  0.83500  0.22500  0.18500  1.0000
  O   O6        1.0  0.47300  0.78100  0.20300  1.0000
  O   O7        1.0  0.46900  0.39400  0.26100  1.0000
  O   O8        1.0  0.02810  0.71100  0.29300  1.0000
  O   O9        1.0  0.05620  0.03540  0.29800  1.0000
  O   O10       1.0  0.65100  0.98200  0.32300  1.0000
  O   O11       1.0  0.02740  0.42300  0.36900  1.0000
  O   O12       1.0  0.66500  0.58700  0.42500  1.0000
  O   O13       1.0  0.71900  0.18200  0.47200  1.0000
  O   O14       1.0  0.28100  0.81800  0.52800  1.0000
  O   O15       1.0  0.33500  0.41300  0.57500  1.0000
  O   O16       1.0  0.97300  0.57700  0.63100  1.0000
  O   O17       1.0  0.34900  0.01770  0.67700  1.0000
  O   O18       1.0  0.94400  0.96500  0.70200  1.0000
  O   O19       1.0  0.97200  0.28900  0.70700  1.0000
  O   O20       1.0  0.53100  0.60600  0.73900  1.0000
  O   O21       1.0  0.52700  0.21900  0.79700  1.0000
  O   O22       1.0  0.16500  0.77500  0.81500  1.0000
  O   O23       1.0  0.14900  0.48200  0.83800  1.0000
  O   O24       1.0  0.51700  0.92900  0.88100  1.0000
  O   O25       1.0  0.15900  0.09750  0.93600  1.0000
  O   O26       1.0  0.69500  0.37200  0.99400  1.0000
  Si  Si1       1.0  0.69900  0.37800  0.15300  1.0000
  Si  Si2       1.0  0.61100  0.93000  0.17700  1.0000
  Si  Si3       1.0  0.89300  0.56100  0.31200  1.0000
  Si  Si4       1.0  0.82400  0.11300  0.32400  1.0000
  Si  Si5       1.0  0.17600  0.88700  0.67600  1.0000
  Si  Si6       1.0  0.10700  0.43900  0.68800  1.0000
  Si  Si7       1.0  0.38900  0.07000  0.82300  1.0000
  Si  Si8       1.0  0.30100  0.62200  0.84700  1.0000
