data_image0
_chemical_formula_structural       Hg2Sc2Sn3
_chemical_formula_sum              "Hg2 Sc2 Sn3"
_cell_length_a       8.35468
_cell_length_b       8.35468
_cell_length_c       8.35468
_cell_angle_alpha    34.688
_cell_angle_beta     34.688
_cell_angle_gamma    34.688

_space_group_name_H-M_alt    "P 1"
_space_group_IT_number       1

loop_
  _space_group_symop_operation_xyz
  'x, y, z'

loop_
  _atom_site_type_symbol
  _atom_site_label
  _atom_site_symmetry_multiplicity
  _atom_site_fract_x
  _atom_site_fract_y
  _atom_site_fract_z
  _atom_site_occupancy
  Hg  Hg1       1.0  0.07220  0.07220  0.07220  1.0000
  Hg  Hg2       1.0  0.47900  0.47900  0.47900  1.0000
  Sc  Sc1       1.0  0.20400  0.20400  0.20400  1.0000
  Sc  Sc2       1.0  0.75700  0.75700  0.75700  1.0000
  Sn  Sn1       1.0  0.34400  0.34400  0.34400  1.0000
  Sn  Sn2       1.0  0.62300  0.62300  0.62300  1.0000
  Sn  Sn3       1.0  0.89400  0.89400  0.89400  1.0000
