data_image0
_chemical_formula_structural       Ni24P12Sm6
_chemical_formula_sum              "Ni24 P12 Sm6"
_cell_length_a       14.0856
_cell_length_b       10.7001
_cell_length_c       3.72818
_cell_angle_alpha    90
_cell_angle_beta     90
_cell_angle_gamma    90

_space_group_name_H-M_alt    "P 1"
_space_group_IT_number       1

loop_
  _space_group_symop_operation_xyz
  'x, y, z'

loop_
  _atom_site_type_symbol
  _atom_site_label
  _atom_site_symmetry_multiplicity
  _atom_site_fract_x
  _atom_site_fract_y
  _atom_site_fract_z
  _atom_site_occupancy
  Ni  Ni1       1.0  0.43600  0.07310  0.00000  1.0000
  Ni  Ni2       1.0  0.28400  0.17900  0.00000  1.0000
  Ni  Ni3       1.0  0.91300  0.25200  0.00000  1.0000
  Ni  Ni4       1.0  0.53700  0.27500  0.00000  1.0000
  Ni  Ni5       1.0  0.05920  0.40200  0.00000  1.0000
  Ni  Ni6       1.0  0.67800  0.43100  0.00000  1.0000
  Ni  Ni7       1.0  0.32200  0.56900  0.00000  1.0000
  Ni  Ni8       1.0  0.94100  0.59800  0.00000  1.0000
  Ni  Ni9       1.0  0.46300  0.72500  0.00000  1.0000
  Ni  Ni10      1.0  0.08680  0.74800  0.00000  1.0000
  Ni  Ni11      1.0  0.71600  0.82100  0.00000  1.0000
  Ni  Ni12      1.0  0.56400  0.92700  0.00000  1.0000
  Ni  Ni13      1.0  0.17800  0.06930  0.50000  1.0000
  Ni  Ni14      1.0  0.55900  0.09770  0.50000  1.0000
  Ni  Ni15      1.0  0.03750  0.22500  0.50000  1.0000
  Ni  Ni16      1.0  0.41300  0.24800  0.50000  1.0000
  Ni  Ni17      1.0  0.78400  0.32100  0.50000  1.0000
  Ni  Ni18      1.0  0.93600  0.42700  0.50000  1.0000
  Ni  Ni19      1.0  0.06360  0.57300  0.50000  1.0000
  Ni  Ni20      1.0  0.21600  0.67900  0.50000  1.0000
  Ni  Ni21      1.0  0.58700  0.75200  0.50000  1.0000
  Ni  Ni22      1.0  0.96300  0.77500  0.50000  1.0000
  Ni  Ni23      1.0  0.44100  0.90200  0.50000  1.0000
  Ni  Ni24      1.0  0.82200  0.93100  0.50000  1.0000
  P   P1        1.0  0.12800  0.20700  0.00000  1.0000
  P   P2        1.0  0.38200  0.36100  0.00000  1.0000
  P   P3        1.0  0.84100  0.43300  0.00000  1.0000
  P   P4        1.0  0.15900  0.56700  0.00000  1.0000
  P   P5        1.0  0.61800  0.63900  0.00000  1.0000
  P   P6        1.0  0.87200  0.79300  0.00000  1.0000
  P   P7        1.0  0.34100  0.06700  0.50000  1.0000
  P   P8        1.0  0.88200  0.13900  0.50000  1.0000
  P   P9        1.0  0.62800  0.29300  0.50000  1.0000
  P   P10       1.0  0.37200  0.70700  0.50000  1.0000
  P   P11       1.0  0.11800  0.86100  0.50000  1.0000
  P   P12       1.0  0.65900  0.93300  0.50000  1.0000
  Sm  Sm1       1.0  0.00000  0.00000  0.00000  1.0000
  Sm  Sm2       1.0  0.72300  0.12100  0.00000  1.0000
  Sm  Sm3       1.0  0.27700  0.87900  0.00000  1.0000
  Sm  Sm4       1.0  0.22300  0.37900  0.50000  1.0000
  Sm  Sm5       1.0  0.50000  0.50000  0.50000  1.0000
  Sm  Sm6       1.0  0.77700  0.62100  0.50000  1.0000
