data_image0
_chemical_formula_structural       Ba2O28P8Ti4
_chemical_formula_sum              "Ba2 O28 P8 Ti4"
_cell_length_a       7.45475
_cell_length_b       7.45475
_cell_length_c       9.7541
_cell_angle_alpha    99.0168
_cell_angle_beta     80.9832
_cell_angle_gamma    91.3264

_space_group_name_H-M_alt    "P 1"
_space_group_IT_number       1

loop_
  _space_group_symop_operation_xyz
  'x, y, z'

loop_
  _atom_site_type_symbol
  _atom_site_label
  _atom_site_symmetry_multiplicity
  _atom_site_fract_x
  _atom_site_fract_y
  _atom_site_fract_z
  _atom_site_occupancy
  Ba  Ba1       1.0  0.50000  0.00000  0.00000  1.0000
  Ba  Ba2       1.0  0.00000  0.50000  0.50000  1.0000
  O   O1        1.0  0.13900  0.82500  0.07900  1.0000
  O   O2        1.0  0.74100  0.60400  0.08850  1.0000
  O   O3        1.0  0.16000  0.19000  0.09250  1.0000
  O   O4        1.0  0.44400  0.37000  0.10600  1.0000
  O   O5        1.0  0.78800  0.04490  0.16300  1.0000
  O   O6        1.0  0.13000  0.52000  0.16600  1.0000
  O   O7        1.0  0.37900  0.75000  0.21100  1.0000
  O   O8        1.0  0.75000  0.37900  0.28900  1.0000
  O   O9        1.0  0.52000  0.13000  0.33400  1.0000
  O   O10       1.0  0.04490  0.78800  0.33700  1.0000
  O   O11       1.0  0.37000  0.44400  0.39400  1.0000
  O   O12       1.0  0.19000  0.16000  0.40700  1.0000
  O   O13       1.0  0.60400  0.74100  0.41100  1.0000
  O   O14       1.0  0.82500  0.13900  0.42100  1.0000
  O   O15       1.0  0.17500  0.86100  0.57900  1.0000
  O   O16       1.0  0.39600  0.25900  0.58900  1.0000
  O   O17       1.0  0.81000  0.84000  0.59300  1.0000
  O   O18       1.0  0.63000  0.55600  0.60600  1.0000
  O   O19       1.0  0.95500  0.21200  0.66300  1.0000
  O   O20       1.0  0.48000  0.87000  0.66600  1.0000
  O   O21       1.0  0.25000  0.62100  0.71100  1.0000
  O   O22       1.0  0.62100  0.25000  0.78900  1.0000
  O   O23       1.0  0.87000  0.48000  0.83400  1.0000
  O   O24       1.0  0.21200  0.95500  0.83700  1.0000
  O   O25       1.0  0.55600  0.63000  0.89400  1.0000
  O   O26       1.0  0.84000  0.81000  0.90700  1.0000
  O   O27       1.0  0.25900  0.39600  0.91100  1.0000
  O   O28       1.0  0.86100  0.17500  0.92100  1.0000
  P   P1        1.0  0.25400  0.36700  0.06310  1.0000
  P   P2        1.0  0.17600  0.73500  0.20100  1.0000
  P   P3        1.0  0.73500  0.17600  0.29900  1.0000
  P   P4        1.0  0.36700  0.25400  0.43700  1.0000
  P   P5        1.0  0.63300  0.74600  0.56300  1.0000
  P   P6        1.0  0.26500  0.82400  0.70100  1.0000
  P   P7        1.0  0.82400  0.26500  0.79900  1.0000
  P   P8        1.0  0.74600  0.63300  0.93700  1.0000
  Ti  Ti1       1.0  0.00000  0.00000  0.00000  1.0000
  Ti  Ti2       1.0  0.55800  0.55800  0.25000  1.0000
  Ti  Ti3       1.0  0.00000  0.00000  0.50000  1.0000
  Ti  Ti4       1.0  0.44200  0.44200  0.75000  1.0000
