data_image0
_chemical_formula_structural       Ge3Hg2In2
_chemical_formula_sum              "Ge3 Hg2 In2"
_cell_length_a       8.31341
_cell_length_b       8.31341
_cell_length_c       8.31341
_cell_angle_alpha    35.0869
_cell_angle_beta     35.0869
_cell_angle_gamma    35.0869

_space_group_name_H-M_alt    "P 1"
_space_group_IT_number       1

loop_
  _space_group_symop_operation_xyz
  'x, y, z'

loop_
  _atom_site_type_symbol
  _atom_site_label
  _atom_site_symmetry_multiplicity
  _atom_site_fract_x
  _atom_site_fract_y
  _atom_site_fract_z
  _atom_site_occupancy
  Ge  Ge1       1.0  0.36600  0.36600  0.36600  1.0000
  Ge  Ge2       1.0  0.62600  0.62600  0.62600  1.0000
  Ge  Ge3       1.0  0.88100  0.88100  0.88100  1.0000
  Hg  Hg1       1.0  0.01580  0.01580  0.01580  1.0000
  Hg  Hg2       1.0  0.49100  0.49100  0.49100  1.0000
  In  In1       1.0  0.23900  0.23900  0.23900  1.0000
  In  In2       1.0  0.75600  0.75600  0.75600  1.0000
