data_image0
_chemical_formula_structural       B2Cd2Ge3
_chemical_formula_sum              "B2 Cd2 Ge3"
_cell_length_a       9.02788
_cell_length_b       9.02788
_cell_length_c       9.02788
_cell_angle_alpha    25.8378
_cell_angle_beta     25.8378
_cell_angle_gamma    25.8378

_space_group_name_H-M_alt    "P 1"
_space_group_IT_number       1

loop_
  _space_group_symop_operation_xyz
  'x, y, z'

loop_
  _atom_site_type_symbol
  _atom_site_label
  _atom_site_symmetry_multiplicity
  _atom_site_fract_x
  _atom_site_fract_y
  _atom_site_fract_z
  _atom_site_occupancy
  B   B1        1.0  0.00457  0.00457  0.00457  1.0000
  B   B2        1.0  0.45700  0.45700  0.45700  1.0000
  Cd  Cd1       1.0  0.18800  0.18800  0.18800  1.0000
  Cd  Cd2       1.0  0.78700  0.78700  0.78700  1.0000
  Ge  Ge1       1.0  0.37600  0.37600  0.37600  1.0000
  Ge  Ge2       1.0  0.64300  0.64300  0.64300  1.0000
  Ge  Ge3       1.0  0.92000  0.92000  0.92000  1.0000
