data_image0
_chemical_formula_structural       Ge3La2Zn2
_chemical_formula_sum              "Ge3 La2 Zn2"
_cell_length_a       9.57497
_cell_length_b       9.57497
_cell_length_c       9.57497
_cell_angle_alpha    27.2312
_cell_angle_beta     27.2312
_cell_angle_gamma    27.2312

_space_group_name_H-M_alt    "P 1"
_space_group_IT_number       1

loop_
  _space_group_symop_operation_xyz
  'x, y, z'

loop_
  _atom_site_type_symbol
  _atom_site_label
  _atom_site_symmetry_multiplicity
  _atom_site_fract_x
  _atom_site_fract_y
  _atom_site_fract_z
  _atom_site_occupancy
  Ge  Ge1       1.0  0.36800  0.36800  0.36800  1.0000
  Ge  Ge2       1.0  0.64000  0.64000  0.64000  1.0000
  Ge  Ge3       1.0  0.85900  0.85900  0.85900  1.0000
  La  La1       1.0  0.24800  0.24800  0.24800  1.0000
  La  La2       1.0  0.75300  0.75300  0.75300  1.0000
  Zn  Zn1       1.0  0.00458  0.00458  0.00458  1.0000
  Zn  Zn2       1.0  0.50300  0.50300  0.50300  1.0000
