data_image0
_chemical_formula_structural       Sc2Sn3Zn2
_chemical_formula_sum              "Sc2 Sn3 Zn2"
_cell_length_a       9.04421
_cell_length_b       9.04421
_cell_length_c       9.04421
_cell_angle_alpha    30.0002
_cell_angle_beta     30.0002
_cell_angle_gamma    30.0002

_space_group_name_H-M_alt    "P 1"
_space_group_IT_number       1

loop_
  _space_group_symop_operation_xyz
  'x, y, z'

loop_
  _atom_site_type_symbol
  _atom_site_label
  _atom_site_symmetry_multiplicity
  _atom_site_fract_x
  _atom_site_fract_y
  _atom_site_fract_z
  _atom_site_occupancy
  Sc  Sc1       1.0  0.24200  0.24200  0.24200  1.0000
  Sc  Sc2       1.0  0.75200  0.75200  0.75200  1.0000
  Sn  Sn1       1.0  0.37400  0.37400  0.37400  1.0000
  Sn  Sn2       1.0  0.62800  0.62800  0.62800  1.0000
  Sn  Sn3       1.0  0.86100  0.86100  0.86100  1.0000
  Zn  Zn1       1.0  0.02760  0.02760  0.02760  1.0000
  Zn  Zn2       1.0  0.49000  0.49000  0.49000  1.0000
