data_image0
_chemical_formula_structural       Cd2Ge3Y2
_chemical_formula_sum              "Cd2 Ge3 Y2"
_cell_length_a       8.81215
_cell_length_b       8.81215
_cell_length_c       8.81215
_cell_angle_alpha    31.1329
_cell_angle_beta     31.1329
_cell_angle_gamma    31.1329

_space_group_name_H-M_alt    "P 1"
_space_group_IT_number       1

loop_
  _space_group_symop_operation_xyz
  'x, y, z'

loop_
  _atom_site_type_symbol
  _atom_site_label
  _atom_site_symmetry_multiplicity
  _atom_site_fract_x
  _atom_site_fract_y
  _atom_site_fract_z
  _atom_site_occupancy
  Cd  Cd1       1.0  0.00354  0.00354  0.00354  1.0000
  Cd  Cd2       1.0  0.49900  0.49900  0.49900  1.0000
  Ge  Ge1       1.0  0.38500  0.38500  0.38500  1.0000
  Ge  Ge2       1.0  0.62600  0.62600  0.62600  1.0000
  Ge  Ge3       1.0  0.86200  0.86200  0.86200  1.0000
  Y   Y1        1.0  0.25100  0.25100  0.25100  1.0000
  Y   Y2        1.0  0.74800  0.74800  0.74800  1.0000
