data_image0
_chemical_formula_structural       Ge3Y2Zn2
_chemical_formula_sum              "Ge3 Y2 Zn2"
_cell_length_a       8.93766
_cell_length_b       8.93766
_cell_length_c       8.93766
_cell_angle_alpha    28.8894
_cell_angle_beta     28.8894
_cell_angle_gamma    28.8894

_space_group_name_H-M_alt    "P 1"
_space_group_IT_number       1

loop_
  _space_group_symop_operation_xyz
  'x, y, z'

loop_
  _atom_site_type_symbol
  _atom_site_label
  _atom_site_symmetry_multiplicity
  _atom_site_fract_x
  _atom_site_fract_y
  _atom_site_fract_z
  _atom_site_occupancy
  Ge  Ge1       1.0  0.37800  0.37800  0.37800  1.0000
  Ge  Ge2       1.0  0.63500  0.63500  0.63500  1.0000
  Ge  Ge3       1.0  0.85900  0.85900  0.85900  1.0000
  Y   Y1        1.0  0.24900  0.24900  0.24900  1.0000
  Y   Y2        1.0  0.75200  0.75200  0.75200  1.0000
  Zn  Zn1       1.0  0.00506  0.00506  0.00506  1.0000
  Zn  Zn2       1.0  0.49700  0.49700  0.49700  1.0000
