data_image0
_chemical_formula_structural       Cd2Sn3Y2
_chemical_formula_sum              "Cd2 Sn3 Y2"
_cell_length_a       9.43223
_cell_length_b       9.43223
_cell_length_c       9.43223
_cell_angle_alpha    30.63
_cell_angle_beta     30.63
_cell_angle_gamma    30.63

_space_group_name_H-M_alt    "P 1"
_space_group_IT_number       1

loop_
  _space_group_symop_operation_xyz
  'x, y, z'

loop_
  _atom_site_type_symbol
  _atom_site_label
  _atom_site_symmetry_multiplicity
  _atom_site_fract_x
  _atom_site_fract_y
  _atom_site_fract_z
  _atom_site_occupancy
  Cd  Cd1       1.0  0.00770  0.00770  0.00770  1.0000
  Cd  Cd2       1.0  0.49500  0.49500  0.49500  1.0000
  Sn  Sn1       1.0  0.38200  0.38200  0.38200  1.0000
  Sn  Sn2       1.0  0.62700  0.62700  0.62700  1.0000
  Sn  Sn3       1.0  0.86300  0.86300  0.86300  1.0000
  Y   Y1        1.0  0.25000  0.25000  0.25000  1.0000
  Y   Y2        1.0  0.75000  0.75000  0.75000  1.0000
