data_image0
_chemical_formula_structural       Cl8O32Ti2
_chemical_formula_sum              "Cl8 O32 Ti2"
_cell_length_a       7.08836
_cell_length_b       7.08836
_cell_length_c       12.3273
_cell_angle_alpha    105.184
_cell_angle_beta     74.8161
_cell_angle_gamma    115.965

_space_group_name_H-M_alt    "P 1"
_space_group_IT_number       1

loop_
  _space_group_symop_operation_xyz
  'x, y, z'

loop_
  _atom_site_type_symbol
  _atom_site_label
  _atom_site_symmetry_multiplicity
  _atom_site_fract_x
  _atom_site_fract_y
  _atom_site_fract_z
  _atom_site_occupancy
  Cl  Cl1       1.0  0.34200  0.22100  0.08000  1.0000
  Cl  Cl2       1.0  0.98700  0.62300  0.16000  1.0000
  Cl  Cl3       1.0  0.62300  0.98700  0.34000  1.0000
  Cl  Cl4       1.0  0.22100  0.34200  0.42000  1.0000
  Cl  Cl5       1.0  0.77900  0.65800  0.58000  1.0000
  Cl  Cl6       1.0  0.37700  0.01310  0.66000  1.0000
  Cl  Cl7       1.0  0.01310  0.37700  0.84000  1.0000
  Cl  Cl8       1.0  0.65800  0.77900  0.92000  1.0000
  O   O1        1.0  0.61000  0.88500  0.03110  1.0000
  O   O2        1.0  0.15400  0.58900  0.07630  1.0000
  O   O3        1.0  0.47300  0.44000  0.10400  1.0000
  O   O4        1.0  0.10900  0.18500  0.10900  1.0000
  O   O5        1.0  0.91900  0.77400  0.12500  1.0000
  O   O6        1.0  0.34300  0.10500  0.17000  1.0000
  O   O7        1.0  0.80900  0.43700  0.18600  1.0000
  O   O8        1.0  0.76500  0.07080  0.23400  1.0000
  O   O9        1.0  0.07080  0.76500  0.26600  1.0000
  O   O10       1.0  0.43700  0.80900  0.31400  1.0000
  O   O11       1.0  0.10500  0.34300  0.33000  1.0000
  O   O12       1.0  0.77400  0.91900  0.37500  1.0000
  O   O13       1.0  0.18500  0.10900  0.39100  1.0000
  O   O14       1.0  0.44000  0.47300  0.39600  1.0000
  O   O15       1.0  0.58900  0.15400  0.42400  1.0000
  O   O16       1.0  0.88500  0.61000  0.46900  1.0000
  O   O17       1.0  0.11500  0.39000  0.53100  1.0000
  O   O18       1.0  0.41100  0.84600  0.57600  1.0000
  O   O19       1.0  0.56000  0.52700  0.60400  1.0000
  O   O20       1.0  0.81500  0.89100  0.60900  1.0000
  O   O21       1.0  0.22600  0.08130  0.62500  1.0000
  O   O22       1.0  0.89500  0.65700  0.67000  1.0000
  O   O23       1.0  0.56300  0.19100  0.68600  1.0000
  O   O24       1.0  0.92900  0.23500  0.73400  1.0000
  O   O25       1.0  0.23500  0.92900  0.76600  1.0000
  O   O26       1.0  0.19100  0.56300  0.81400  1.0000
  O   O27       1.0  0.65700  0.89500  0.83000  1.0000
  O   O28       1.0  0.08130  0.22600  0.87500  1.0000
  O   O29       1.0  0.89100  0.81500  0.89100  1.0000
  O   O30       1.0  0.52700  0.56000  0.89600  1.0000
  O   O31       1.0  0.84600  0.41100  0.92400  1.0000
  O   O32       1.0  0.39000  0.11500  0.96900  1.0000
  Ti  Ti1       1.0  0.03220  0.03220  0.25000  1.0000
  Ti  Ti2       1.0  0.96800  0.96800  0.75000  1.0000
