data_image0
_chemical_formula_structural       S6Yb4
_chemical_formula_sum              "S6 Yb4"
_cell_length_a       6.71957
_cell_length_b       6.71957
_cell_length_c       6.71957
_cell_angle_alpha    66.3425
_cell_angle_beta     66.3425
_cell_angle_gamma    66.3425

_space_group_name_H-M_alt    "P 1"
_space_group_IT_number       1

loop_
  _space_group_symop_operation_xyz
  'x, y, z'

loop_
  _atom_site_type_symbol
  _atom_site_label
  _atom_site_symmetry_multiplicity
  _atom_site_fract_x
  _atom_site_fract_y
  _atom_site_fract_z
  _atom_site_occupancy
  S   S1        1.0  0.75000  0.46700  0.03260  1.0000
  S   S2        1.0  0.53300  0.96700  0.25000  1.0000
  S   S3        1.0  0.03260  0.75000  0.46700  1.0000
  S   S4        1.0  0.96700  0.25000  0.53300  1.0000
  S   S5        1.0  0.46700  0.03260  0.75000  1.0000
  S   S6        1.0  0.25000  0.53300  0.96700  1.0000
  Yb  Yb1       1.0  0.13300  0.13300  0.13300  1.0000
  Yb  Yb2       1.0  0.36700  0.36700  0.36700  1.0000
  Yb  Yb3       1.0  0.63300  0.63300  0.63300  1.0000
  Yb  Yb4       1.0  0.86700  0.86700  0.86700  1.0000
