data_image0
_chemical_formula_structural       Hg2Pb3Sc2
_chemical_formula_sum              "Hg2 Pb3 Sc2"
_cell_length_a       8.70538
_cell_length_b       8.70538
_cell_length_c       8.70538
_cell_angle_alpha    33.7088
_cell_angle_beta     33.7088
_cell_angle_gamma    33.7088

_space_group_name_H-M_alt    "P 1"
_space_group_IT_number       1

loop_
  _space_group_symop_operation_xyz
  'x, y, z'

loop_
  _atom_site_type_symbol
  _atom_site_label
  _atom_site_symmetry_multiplicity
  _atom_site_fract_x
  _atom_site_fract_y
  _atom_site_fract_z
  _atom_site_occupancy
  Hg  Hg1       1.0  0.07300  0.07300  0.07300  1.0000
  Hg  Hg2       1.0  0.48100  0.48100  0.48100  1.0000
  Pb  Pb1       1.0  0.34800  0.34800  0.34800  1.0000
  Pb  Pb2       1.0  0.62300  0.62300  0.62300  1.0000
  Pb  Pb3       1.0  0.89300  0.89300  0.89300  1.0000
  Sc  Sc1       1.0  0.19700  0.19700  0.19700  1.0000
  Sc  Sc2       1.0  0.76100  0.76100  0.76100  1.0000
