data_image0
_chemical_formula_structural       La2Sn3Zn2
_chemical_formula_sum              "La2 Sn3 Zn2"
_cell_length_a       9.94912
_cell_length_b       9.94912
_cell_length_c       9.94912
_cell_angle_alpha    27.972
_cell_angle_beta     27.972
_cell_angle_gamma    27.972

_space_group_name_H-M_alt    "P 1"
_space_group_IT_number       1

loop_
  _space_group_symop_operation_xyz
  'x, y, z'

loop_
  _atom_site_type_symbol
  _atom_site_label
  _atom_site_symmetry_multiplicity
  _atom_site_fract_x
  _atom_site_fract_y
  _atom_site_fract_z
  _atom_site_occupancy
  La  La1       1.0  0.24600  0.24600  0.24600  1.0000
  La  La2       1.0  0.75400  0.75400  0.75400  1.0000
  Sn  Sn1       1.0  0.36800  0.36800  0.36800  1.0000
  Sn  Sn2       1.0  0.63800  0.63800  0.63800  1.0000
  Sn  Sn3       1.0  0.86100  0.86100  0.86100  1.0000
  Zn  Zn1       1.0  0.00861  0.00861  0.00861  1.0000
  Zn  Zn2       1.0  0.49800  0.49800  0.49800  1.0000
