data_image0
_chemical_formula_structural       Ga2Hg2Sn3
_chemical_formula_sum              "Ga2 Hg2 Sn3"
_cell_length_a       8.53778
_cell_length_b       8.53778
_cell_length_c       8.53778
_cell_angle_alpha    35.3171
_cell_angle_beta     35.3171
_cell_angle_gamma    35.3171

_space_group_name_H-M_alt    "P 1"
_space_group_IT_number       1

loop_
  _space_group_symop_operation_xyz
  'x, y, z'

loop_
  _atom_site_type_symbol
  _atom_site_label
  _atom_site_symmetry_multiplicity
  _atom_site_fract_x
  _atom_site_fract_y
  _atom_site_fract_z
  _atom_site_occupancy
  Ga  Ga1       1.0  0.24500  0.24500  0.24500  1.0000
  Ga  Ga2       1.0  0.75300  0.75300  0.75300  1.0000
  Hg  Hg1       1.0  0.01650  0.01650  0.01650  1.0000
  Hg  Hg2       1.0  0.49200  0.49200  0.49200  1.0000
  Sn  Sn1       1.0  0.37000  0.37000  0.37000  1.0000
  Sn  Sn2       1.0  0.62100  0.62100  0.62100  1.0000
  Sn  Sn3       1.0  0.87800  0.87800  0.87800  1.0000
