data_image0
_chemical_formula_structural       Al2Cd2Ge3
_chemical_formula_sum              "Al2 Cd2 Ge3"
_cell_length_a       8.04508
_cell_length_b       8.04508
_cell_length_c       8.04508
_cell_angle_alpha    34.3266
_cell_angle_beta     34.3266
_cell_angle_gamma    34.3266

_space_group_name_H-M_alt    "P 1"
_space_group_IT_number       1

loop_
  _space_group_symop_operation_xyz
  'x, y, z'

loop_
  _atom_site_type_symbol
  _atom_site_label
  _atom_site_symmetry_multiplicity
  _atom_site_fract_x
  _atom_site_fract_y
  _atom_site_fract_z
  _atom_site_occupancy
  Al  Al1       1.0  0.24800  0.24800  0.24800  1.0000
  Al  Al2       1.0  0.75200  0.75200  0.75200  1.0000
  Cd  Cd1       1.0  0.01290  0.01290  0.01290  1.0000
  Cd  Cd2       1.0  0.49300  0.49300  0.49300  1.0000
  Ge  Ge1       1.0  0.37300  0.37300  0.37300  1.0000
  Ge  Ge2       1.0  0.62100  0.62100  0.62100  1.0000
  Ge  Ge3       1.0  0.87500  0.87500  0.87500  1.0000
