data_image0
_chemical_formula_structural       Hg2Pb3Y2
_chemical_formula_sum              "Hg2 Pb3 Y2"
_cell_length_a       8.80516
_cell_length_b       8.80516
_cell_length_c       8.80516
_cell_angle_alpha    34.521
_cell_angle_beta     34.521
_cell_angle_gamma    34.521

_space_group_name_H-M_alt    "P 1"
_space_group_IT_number       1

loop_
  _space_group_symop_operation_xyz
  'x, y, z'

loop_
  _atom_site_type_symbol
  _atom_site_label
  _atom_site_symmetry_multiplicity
  _atom_site_fract_x
  _atom_site_fract_y
  _atom_site_fract_z
  _atom_site_occupancy
  Hg  Hg1       1.0  0.06590  0.06590  0.06590  1.0000
  Hg  Hg2       1.0  0.48100  0.48100  0.48100  1.0000
  Pb  Pb1       1.0  0.34500  0.34500  0.34500  1.0000
  Pb  Pb2       1.0  0.62300  0.62300  0.62300  1.0000
  Pb  Pb3       1.0  0.90100  0.90100  0.90100  1.0000
  Y   Y1        1.0  0.19800  0.19800  0.19800  1.0000
  Y   Y2        1.0  0.76100  0.76100  0.76100  1.0000
