data_image0
_chemical_formula_structural       La10O14S12V6
_chemical_formula_sum              "La10 O14 S12 V6"
_cell_length_a       17.9975
_cell_length_b       10.2309
_cell_length_c       3.80668
_cell_angle_alpha    90
_cell_angle_beta     90
_cell_angle_gamma    90

_space_group_name_H-M_alt    "P 1"
_space_group_IT_number       1

loop_
  _space_group_symop_operation_xyz
  'x, y, z'

loop_
  _atom_site_type_symbol
  _atom_site_label
  _atom_site_symmetry_multiplicity
  _atom_site_fract_x
  _atom_site_fract_y
  _atom_site_fract_z
  _atom_site_occupancy
  La  La1       1.0  0.13400  0.03010  0.25000  1.0000
  La  La2       1.0  0.36600  0.03010  0.25000  1.0000
  La  La3       1.0  0.75000  0.23000  0.25000  1.0000
  La  La4       1.0  0.58700  0.58600  0.25000  1.0000
  La  La5       1.0  0.91300  0.58600  0.25000  1.0000
  La  La6       1.0  0.08660  0.41400  0.75000  1.0000
  La  La7       1.0  0.41300  0.41400  0.75000  1.0000
  La  La8       1.0  0.25000  0.77000  0.75000  1.0000
  La  La9       1.0  0.63400  0.97000  0.75000  1.0000
  La  La10      1.0  0.86600  0.97000  0.75000  1.0000
  O   O1        1.0  0.62800  0.10800  0.25000  1.0000
  O   O2        1.0  0.87200  0.10800  0.25000  1.0000
  O   O3        1.0  0.14900  0.29000  0.25000  1.0000
  O   O4        1.0  0.35100  0.29000  0.25000  1.0000
  O   O5        1.0  0.00355  0.39800  0.25000  1.0000
  O   O6        1.0  0.49600  0.39800  0.25000  1.0000
  O   O7        1.0  0.25000  0.90300  0.25000  1.0000
  O   O8        1.0  0.75000  0.09680  0.75000  1.0000
  O   O9        1.0  0.50400  0.60200  0.75000  1.0000
  O   O10       1.0  0.99600  0.60200  0.75000  1.0000
  O   O11       1.0  0.64900  0.71000  0.75000  1.0000
  O   O12       1.0  0.85100  0.71000  0.75000  1.0000
  O   O13       1.0  0.12800  0.89200  0.75000  1.0000
  O   O14       1.0  0.37200  0.89200  0.75000  1.0000
  S   S1        1.0  0.75000  0.53900  0.25000  1.0000
  S   S2        1.0  0.13100  0.64600  0.25000  1.0000
  S   S3        1.0  0.36900  0.64600  0.25000  1.0000
  S   S4        1.0  0.51300  0.85200  0.25000  1.0000
  S   S5        1.0  0.98700  0.85200  0.25000  1.0000
  S   S6        1.0  0.75000  0.85800  0.25000  1.0000
  S   S7        1.0  0.25000  0.14200  0.75000  1.0000
  S   S8        1.0  0.01300  0.14800  0.75000  1.0000
  S   S9        1.0  0.48700  0.14800  0.75000  1.0000
  S   S10       1.0  0.63100  0.35400  0.75000  1.0000
  S   S11       1.0  0.86900  0.35400  0.75000  1.0000
  S   S12       1.0  0.25000  0.46100  0.75000  1.0000
  V   V1        1.0  0.55700  0.24800  0.25000  1.0000
  V   V2        1.0  0.94300  0.24800  0.25000  1.0000
  V   V3        1.0  0.25000  0.31100  0.25000  1.0000
  V   V4        1.0  0.75000  0.68900  0.75000  1.0000
  V   V5        1.0  0.05710  0.75200  0.75000  1.0000
  V   V6        1.0  0.44300  0.75200  0.75000  1.0000
