data_image0
_chemical_formula_structural       Y2Zn2Zr3
_chemical_formula_sum              "Y2 Zn2 Zr3"
_cell_length_a       7.95962
_cell_length_b       7.95962
_cell_length_c       7.95962
_cell_angle_alpha    36.5695
_cell_angle_beta     36.5695
_cell_angle_gamma    36.5695

_space_group_name_H-M_alt    "P 1"
_space_group_IT_number       1

loop_
  _space_group_symop_operation_xyz
  'x, y, z'

loop_
  _atom_site_type_symbol
  _atom_site_label
  _atom_site_symmetry_multiplicity
  _atom_site_fract_x
  _atom_site_fract_y
  _atom_site_fract_z
  _atom_site_occupancy
  Y   Y1        1.0  0.19400  0.19400  0.19400  1.0000
  Y   Y2        1.0  0.76200  0.76200  0.76200  1.0000
  Zn  Zn1       1.0  0.06040  0.06040  0.06040  1.0000
  Zn  Zn2       1.0  0.47400  0.47400  0.47400  1.0000
  Zr  Zr1       1.0  0.34100  0.34100  0.34100  1.0000
  Zr  Zr2       1.0  0.60700  0.60700  0.60700  1.0000
  Zr  Zr3       1.0  0.93500  0.93500  0.93500  1.0000
