data_image0
_chemical_formula_structural       Ni8P32W2
_chemical_formula_sum              "Ni8 P32 W2"
_cell_length_a       5.68572
_cell_length_b       10.2295
_cell_length_c       11.1375
_cell_angle_alpha    100.514
_cell_angle_beta     90
_cell_angle_gamma    106.135

_space_group_name_H-M_alt    "P 1"
_space_group_IT_number       1

loop_
  _space_group_symop_operation_xyz
  'x, y, z'

loop_
  _atom_site_type_symbol
  _atom_site_label
  _atom_site_symmetry_multiplicity
  _atom_site_fract_x
  _atom_site_fract_y
  _atom_site_fract_z
  _atom_site_occupancy
  Ni  Ni1       1.0  0.01210  0.21200  0.07440  1.0000
  Ni  Ni2       1.0  0.69500  0.49900  0.12900  1.0000
  Ni  Ni3       1.0  0.19600  0.50100  0.37100  1.0000
  Ni  Ni4       1.0  0.80000  0.78800  0.42600  1.0000
  Ni  Ni5       1.0  0.20000  0.21200  0.57400  1.0000
  Ni  Ni6       1.0  0.80400  0.49900  0.62900  1.0000
  Ni  Ni7       1.0  0.30500  0.50100  0.87100  1.0000
  Ni  Ni8       1.0  0.98800  0.78800  0.92600  1.0000
  P   P1        1.0  0.68100  0.28300  0.04270  1.0000
  P   P2        1.0  0.27900  0.42600  0.05410  1.0000
  P   P3        1.0  0.34400  0.12400  0.08040  1.0000
  P   P4        1.0  0.74100  0.00858  0.10800  1.0000
  P   P5        1.0  0.99100  0.87700  0.13200  1.0000
  P   P6        1.0  0.38400  0.75800  0.16100  1.0000
  P   P7        1.0  0.11600  0.55800  0.18800  1.0000
  P   P8        1.0  0.73300  0.71800  0.22000  1.0000
  P   P9        1.0  0.01520  0.28200  0.28000  1.0000
  P   P10       1.0  0.55800  0.44200  0.31200  1.0000
  P   P11       1.0  0.62600  0.24200  0.33900  1.0000
  P   P12       1.0  0.11400  0.12300  0.36800  1.0000
  P   P13       1.0  0.73200  0.99100  0.39200  1.0000
  P   P14       1.0  0.22000  0.87600  0.42000  1.0000
  P   P15       1.0  0.85300  0.57400  0.44600  1.0000
  P   P16       1.0  0.39700  0.71700  0.45700  1.0000
  P   P17       1.0  0.60300  0.28300  0.54300  1.0000
  P   P18       1.0  0.14700  0.42600  0.55400  1.0000
  P   P19       1.0  0.78000  0.12400  0.58000  1.0000
  P   P20       1.0  0.26800  0.00858  0.60800  1.0000
  P   P21       1.0  0.88600  0.87700  0.63200  1.0000
  P   P22       1.0  0.37400  0.75800  0.66100  1.0000
  P   P23       1.0  0.44200  0.55800  0.68800  1.0000
  P   P24       1.0  0.98500  0.71800  0.72000  1.0000
  P   P25       1.0  0.26700  0.28200  0.78000  1.0000
  P   P26       1.0  0.88400  0.44200  0.81200  1.0000
  P   P27       1.0  0.61600  0.24200  0.83900  1.0000
  P   P28       1.0  0.00912  0.12300  0.86800  1.0000
  P   P29       1.0  0.25900  0.99100  0.89200  1.0000
  P   P30       1.0  0.65600  0.87600  0.92000  1.0000
  P   P31       1.0  0.72100  0.57400  0.94600  1.0000
  P   P32       1.0  0.31900  0.71700  0.95700  1.0000
  W   W1        1.0  0.39500  0.00000  0.25000  1.0000
  W   W2        1.0  0.60500  0.00000  0.75000  1.0000
