data_image0
_chemical_formula_structural       Cd2Ge3Tl2
_chemical_formula_sum              "Cd2 Ge3 Tl2"
_cell_length_a       8.49793
_cell_length_b       8.49793
_cell_length_c       8.49793
_cell_angle_alpha    34.3766
_cell_angle_beta     34.3766
_cell_angle_gamma    34.3766

_space_group_name_H-M_alt    "P 1"
_space_group_IT_number       1

loop_
  _space_group_symop_operation_xyz
  'x, y, z'

loop_
  _atom_site_type_symbol
  _atom_site_label
  _atom_site_symmetry_multiplicity
  _atom_site_fract_x
  _atom_site_fract_y
  _atom_site_fract_z
  _atom_site_occupancy
  Cd  Cd1       1.0  0.00457  0.00457  0.00457  1.0000
  Cd  Cd2       1.0  0.49500  0.49500  0.49500  1.0000
  Ge  Ge1       1.0  0.37000  0.37000  0.37000  1.0000
  Ge  Ge2       1.0  0.63000  0.63000  0.63000  1.0000
  Ge  Ge3       1.0  0.88200  0.88200  0.88200  1.0000
  Tl  Tl1       1.0  0.23600  0.23600  0.23600  1.0000
  Tl  Tl2       1.0  0.75900  0.75900  0.75900  1.0000
