data_image0
_chemical_formula_structural       B2Hg2Si3
_chemical_formula_sum              "B2 Hg2 Si3"
_cell_length_a       11.2903
_cell_length_b       11.2903
_cell_length_c       11.2903
_cell_angle_alpha    18.0129
_cell_angle_beta     18.0129
_cell_angle_gamma    18.0129

_space_group_name_H-M_alt    "P 1"
_space_group_IT_number       1

loop_
  _space_group_symop_operation_xyz
  'x, y, z'

loop_
  _atom_site_type_symbol
  _atom_site_label
  _atom_site_symmetry_multiplicity
  _atom_site_fract_x
  _atom_site_fract_y
  _atom_site_fract_z
  _atom_site_occupancy
  B   B1        1.0  0.01300  0.01300  0.01300  1.0000
  B   B2        1.0  0.42800  0.42800  0.42800  1.0000
  Hg  Hg1       1.0  0.20100  0.20100  0.20100  1.0000
  Hg  Hg2       1.0  0.78900  0.78900  0.78900  1.0000
  Si  Si1       1.0  0.36800  0.36800  0.36800  1.0000
  Si  Si2       1.0  0.63900  0.63900  0.63900  1.0000
  Si  Si3       1.0  0.93800  0.93800  0.93800  1.0000
