data_image0
_chemical_formula_structural       Hg2La2Sn3
_chemical_formula_sum              "Hg2 La2 Sn3"
_cell_length_a       9.85096
_cell_length_b       9.85096
_cell_length_c       9.85096
_cell_angle_alpha    30.0805
_cell_angle_beta     30.0805
_cell_angle_gamma    30.0805

_space_group_name_H-M_alt    "P 1"
_space_group_IT_number       1

loop_
  _space_group_symop_operation_xyz
  'x, y, z'

loop_
  _atom_site_type_symbol
  _atom_site_label
  _atom_site_symmetry_multiplicity
  _atom_site_fract_x
  _atom_site_fract_y
  _atom_site_fract_z
  _atom_site_occupancy
  Hg  Hg1       1.0  0.04700  0.04700  0.04700  1.0000
  Hg  Hg2       1.0  0.48700  0.48700  0.48700  1.0000
  La  La1       1.0  0.23300  0.23300  0.23300  1.0000
  La  La2       1.0  0.75700  0.75700  0.75700  1.0000
  Sn  Sn1       1.0  0.34900  0.34900  0.34900  1.0000
  Sn  Sn2       1.0  0.63300  0.63300  0.63300  1.0000
  Sn  Sn3       1.0  0.86900  0.86900  0.86900  1.0000
