data_image0
_chemical_formula_structural       Cd2Sn3Tl2
_chemical_formula_sum              "Cd2 Sn3 Tl2"
_cell_length_a       8.94903
_cell_length_b       8.94903
_cell_length_c       8.94903
_cell_angle_alpha    34.5084
_cell_angle_beta     34.5084
_cell_angle_gamma    34.5084

_space_group_name_H-M_alt    "P 1"
_space_group_IT_number       1

loop_
  _space_group_symop_operation_xyz
  'x, y, z'

loop_
  _atom_site_type_symbol
  _atom_site_label
  _atom_site_symmetry_multiplicity
  _atom_site_fract_x
  _atom_site_fract_y
  _atom_site_fract_z
  _atom_site_occupancy
  Cd  Cd1       1.0  0.00734  0.00734  0.00734  1.0000
  Cd  Cd2       1.0  0.49400  0.49400  0.49400  1.0000
  Sn  Sn1       1.0  0.37100  0.37100  0.37100  1.0000
  Sn  Sn2       1.0  0.62700  0.62700  0.62700  1.0000
  Sn  Sn3       1.0  0.88200  0.88200  0.88200  1.0000
  Tl  Tl1       1.0  0.23500  0.23500  0.23500  1.0000
  Tl  Tl2       1.0  0.75800  0.75800  0.75800  1.0000
