data_image0
_chemical_formula_structural       Cl28Fe2Zr12
_chemical_formula_sum              "Cl28 Fe2 Zr12"
_cell_length_a       9.70272
_cell_length_b       9.70272
_cell_length_c       11.8721
_cell_angle_alpha    90
_cell_angle_beta     90
_cell_angle_gamma    83.258

_space_group_name_H-M_alt    "P 1"
_space_group_IT_number       1

loop_
  _space_group_symop_operation_xyz
  'x, y, z'

loop_
  _atom_site_type_symbol
  _atom_site_label
  _atom_site_symmetry_multiplicity
  _atom_site_fract_x
  _atom_site_fract_y
  _atom_site_fract_z
  _atom_site_occupancy
  Cl  Cl1       1.0  0.24800  0.24800  0.00000  1.0000
  Cl  Cl2       1.0  0.75200  0.75200  0.00000  1.0000
  Cl  Cl3       1.0  0.62100  0.13300  0.00770  1.0000
  Cl  Cl4       1.0  0.86700  0.37900  0.00770  1.0000
  Cl  Cl5       1.0  0.15700  0.84300  0.24100  1.0000
  Cl  Cl6       1.0  0.29100  0.46300  0.24800  1.0000
  Cl  Cl7       1.0  0.53700  0.70900  0.24800  1.0000
  Cl  Cl8       1.0  0.40700  0.09270  0.25000  1.0000
  Cl  Cl9       1.0  0.90700  0.59300  0.25000  1.0000
  Cl  Cl10      1.0  0.03680  0.20900  0.25200  1.0000
  Cl  Cl11      1.0  0.79100  0.96300  0.25200  1.0000
  Cl  Cl12      1.0  0.65700  0.34300  0.25900  1.0000
  Cl  Cl13      1.0  0.12100  0.63300  0.49200  1.0000
  Cl  Cl14      1.0  0.36700  0.87900  0.49200  1.0000
  Cl  Cl15      1.0  0.25200  0.25200  0.50000  1.0000
  Cl  Cl16      1.0  0.74800  0.74800  0.50000  1.0000
  Cl  Cl17      1.0  0.63300  0.12100  0.50800  1.0000
  Cl  Cl18      1.0  0.87900  0.36700  0.50800  1.0000
  Cl  Cl19      1.0  0.34300  0.65700  0.74100  1.0000
  Cl  Cl20      1.0  0.20900  0.03680  0.74800  1.0000
  Cl  Cl21      1.0  0.96300  0.79100  0.74800  1.0000
  Cl  Cl22      1.0  0.09270  0.40700  0.75000  1.0000
  Cl  Cl23      1.0  0.59300  0.90700  0.75000  1.0000
  Cl  Cl24      1.0  0.46300  0.29100  0.75200  1.0000
  Cl  Cl25      1.0  0.70900  0.53700  0.75200  1.0000
  Cl  Cl26      1.0  0.84300  0.15700  0.75900  1.0000
  Cl  Cl27      1.0  0.13300  0.62100  0.99200  1.0000
  Cl  Cl28      1.0  0.37900  0.86700  0.99200  1.0000
  Fe  Fe1       1.0  0.50000  0.50000  0.00000  1.0000
  Fe  Fe2       1.0  0.00000  0.00000  0.50000  1.0000
  Zr  Zr1       1.0  0.34500  0.65500  0.11200  1.0000
  Zr  Zr2       1.0  0.45200  0.30500  0.11900  1.0000
  Zr  Zr3       1.0  0.69500  0.54800  0.11900  1.0000
  Zr  Zr4       1.0  0.19500  0.04780  0.38100  1.0000
  Zr  Zr5       1.0  0.95200  0.80500  0.38100  1.0000
  Zr  Zr6       1.0  0.84500  0.15500  0.38800  1.0000
  Zr  Zr7       1.0  0.15500  0.84500  0.61200  1.0000
  Zr  Zr8       1.0  0.04780  0.19500  0.61900  1.0000
  Zr  Zr9       1.0  0.80500  0.95200  0.61900  1.0000
  Zr  Zr10      1.0  0.30500  0.45200  0.88100  1.0000
  Zr  Zr11      1.0  0.54800  0.69500  0.88100  1.0000
  Zr  Zr12      1.0  0.65500  0.34500  0.88800  1.0000
