data_image0
_chemical_formula_structural       In2Pb3Zn2
_chemical_formula_sum              "In2 Pb3 Zn2"
_cell_length_a       8.8386
_cell_length_b       8.8386
_cell_length_c       8.8386
_cell_angle_alpha    34.8217
_cell_angle_beta     34.8217
_cell_angle_gamma    34.8217

_space_group_name_H-M_alt    "P 1"
_space_group_IT_number       1

loop_
  _space_group_symop_operation_xyz
  'x, y, z'

loop_
  _atom_site_type_symbol
  _atom_site_label
  _atom_site_symmetry_multiplicity
  _atom_site_fract_x
  _atom_site_fract_y
  _atom_site_fract_z
  _atom_site_occupancy
  In  In1       1.0  0.01220  0.01220  0.01220  1.0000
  In  In2       1.0  0.49500  0.49500  0.49500  1.0000
  Pb  Pb1       1.0  0.37200  0.37200  0.37200  1.0000
  Pb  Pb2       1.0  0.62400  0.62400  0.62400  1.0000
  Pb  Pb3       1.0  0.87600  0.87600  0.87600  1.0000
  Zn  Zn1       1.0  0.24200  0.24200  0.24200  1.0000
  Zn  Zn2       1.0  0.75500  0.75500  0.75500  1.0000
