data_image0
_chemical_formula_structural       K9O24P6Sc3
_chemical_formula_sum              "K9 O24 P6 Sc3"
_cell_length_a       9.44177
_cell_length_b       9.44179
_cell_length_c       7.48556
_cell_angle_alpha    90.0002
_cell_angle_beta     89.9997
_cell_angle_gamma    120

_space_group_name_H-M_alt    "P 1"
_space_group_IT_number       1

loop_
  _space_group_symop_operation_xyz
  'x, y, z'

loop_
  _atom_site_type_symbol
  _atom_site_label
  _atom_site_symmetry_multiplicity
  _atom_site_fract_x
  _atom_site_fract_y
  _atom_site_fract_z
  _atom_site_occupancy
  K   K1        1.0  0.66800  0.00251  0.23500  1.0000
  K   K2        1.0  0.33500  0.33200  0.23500  1.0000
  K   K3        1.0  0.99700  0.66500  0.23500  1.0000
  K   K4        1.0  0.66700  0.33300  0.49000  1.0000
  K   K5        1.0  0.00000  0.00000  0.50000  1.0000
  K   K6        1.0  0.33300  0.66700  0.51000  1.0000
  K   K7        1.0  0.00252  0.33500  0.76500  1.0000
  K   K8        1.0  0.66500  0.66800  0.76500  1.0000
  K   K9        1.0  0.33200  0.99700  0.76500  1.0000
  O   O1        1.0  0.85400  0.33800  0.12000  1.0000
  O   O2        1.0  0.66200  0.51600  0.12000  1.0000
  O   O3        1.0  0.48400  0.14600  0.12000  1.0000
  O   O4        1.0  0.17600  0.99300  0.16300  1.0000
  O   O5        1.0  0.81800  0.82400  0.16300  1.0000
  O   O6        1.0  0.00685  0.18200  0.16300  1.0000
  O   O7        1.0  0.33400  0.84500  0.20300  1.0000
  O   O8        1.0  0.51100  0.66600  0.20300  1.0000
  O   O9        1.0  0.15500  0.48900  0.20300  1.0000
  O   O10       1.0  0.93700  0.30100  0.42800  1.0000
  O   O11       1.0  0.69900  0.63600  0.42800  1.0000
  O   O12       1.0  0.36400  0.06280  0.42800  1.0000
  O   O13       1.0  0.63600  0.93700  0.57200  1.0000
  O   O14       1.0  0.30100  0.36400  0.57200  1.0000
  O   O15       1.0  0.06280  0.69900  0.57200  1.0000
  O   O16       1.0  0.84500  0.51100  0.79700  1.0000
  O   O17       1.0  0.48900  0.33400  0.79700  1.0000
  O   O18       1.0  0.66600  0.15500  0.79700  1.0000
  O   O19       1.0  0.99300  0.81800  0.83700  1.0000
  O   O20       1.0  0.18200  0.17600  0.83700  1.0000
  O   O21       1.0  0.82400  0.00685  0.83700  1.0000
  O   O22       1.0  0.51600  0.85400  0.88000  1.0000
  O   O23       1.0  0.33800  0.48400  0.88000  1.0000
  O   O24       1.0  0.14600  0.66200  0.88000  1.0000
  P   P1        1.0  0.98900  0.32800  0.23300  1.0000
  P   P2        1.0  0.33900  0.01090  0.23300  1.0000
  P   P3        1.0  0.67200  0.66100  0.23300  1.0000
  P   P4        1.0  0.32800  0.33900  0.76700  1.0000
  P   P5        1.0  0.66100  0.98900  0.76700  1.0000
  P   P6        1.0  0.01090  0.67200  0.76700  1.0000
  Sc  Sc1       1.0  0.00000  0.00000  0.00000  1.0000
  Sc  Sc2       1.0  0.33300  0.66700  0.02980  1.0000
  Sc  Sc3       1.0  0.66700  0.33300  0.97000  1.0000
