data_image0
_chemical_formula_structural       Ga2Hg2Pb3
_chemical_formula_sum              "Ga2 Hg2 Pb3"
_cell_length_a       8.96604
_cell_length_b       8.96604
_cell_length_c       8.96604
_cell_angle_alpha    34.0768
_cell_angle_beta     34.0768
_cell_angle_gamma    34.0768

_space_group_name_H-M_alt    "P 1"
_space_group_IT_number       1

loop_
  _space_group_symop_operation_xyz
  'x, y, z'

loop_
  _atom_site_type_symbol
  _atom_site_label
  _atom_site_symmetry_multiplicity
  _atom_site_fract_x
  _atom_site_fract_y
  _atom_site_fract_z
  _atom_site_occupancy
  Ga  Ga1       1.0  0.24400  0.24400  0.24400  1.0000
  Ga  Ga2       1.0  0.75400  0.75400  0.75400  1.0000
  Hg  Hg1       1.0  0.01150  0.01150  0.01150  1.0000
  Hg  Hg2       1.0  0.49300  0.49300  0.49300  1.0000
  Pb  Pb1       1.0  0.37300  0.37300  0.37300  1.0000
  Pb  Pb2       1.0  0.62300  0.62300  0.62300  1.0000
  Pb  Pb3       1.0  0.87600  0.87600  0.87600  1.0000
