data_image0
_chemical_formula_structural       Ag2Sn2Ti3
_chemical_formula_sum              "Ag2 Sn2 Ti3"
_cell_length_a       7.70111
_cell_length_b       7.70111
_cell_length_c       7.70111
_cell_angle_alpha    35.0608
_cell_angle_beta     35.0608
_cell_angle_gamma    35.0608

_space_group_name_H-M_alt    "P 1"
_space_group_IT_number       1

loop_
  _space_group_symop_operation_xyz
  'x, y, z'

loop_
  _atom_site_type_symbol
  _atom_site_label
  _atom_site_symmetry_multiplicity
  _atom_site_fract_x
  _atom_site_fract_y
  _atom_site_fract_z
  _atom_site_occupancy
  Ag  Ag1       1.0  0.21800  0.21800  0.21800  1.0000
  Ag  Ag2       1.0  0.76100  0.76100  0.76100  1.0000
  Sn  Sn1       1.0  0.02720  0.02720  0.02720  1.0000
  Sn  Sn2       1.0  0.49200  0.49200  0.49200  1.0000
  Ti  Ti1       1.0  0.35000  0.35000  0.35000  1.0000
  Ti  Ti2       1.0  0.62700  0.62700  0.62700  1.0000
  Ti  Ti3       1.0  0.90000  0.90000  0.90000  1.0000
