data_image0
_chemical_formula_structural       B2Pb3Zn2
_chemical_formula_sum              "B2 Pb3 Zn2"
_cell_length_a       10.143
_cell_length_b       10.143
_cell_length_c       10.143
_cell_angle_alpha    24.2066
_cell_angle_beta     24.2066
_cell_angle_gamma    24.2066

_space_group_name_H-M_alt    "P 1"
_space_group_IT_number       1

loop_
  _space_group_symop_operation_xyz
  'x, y, z'

loop_
  _atom_site_type_symbol
  _atom_site_label
  _atom_site_symmetry_multiplicity
  _atom_site_fract_x
  _atom_site_fract_y
  _atom_site_fract_z
  _atom_site_occupancy
  B   B1        1.0  0.53900  0.53900  0.53900  1.0000
  B   B2        1.0  0.94000  0.94000  0.94000  1.0000
  Pb  Pb1       1.0  0.43800  0.43800  0.43800  1.0000
  Pb  Pb2       1.0  0.63700  0.63700  0.63700  1.0000
  Pb  Pb3       1.0  0.84800  0.84800  0.84800  1.0000
  Zn  Zn1       1.0  0.24500  0.24500  0.24500  1.0000
  Zn  Zn2       1.0  0.72800  0.72800  0.72800  1.0000
