data_image0
_chemical_formula_structural       B2Hg2Pb3
_chemical_formula_sum              "B2 Hg2 Pb3"
_cell_length_a       12.3486
_cell_length_b       12.3486
_cell_length_c       12.3486
_cell_angle_alpha    18.2376
_cell_angle_beta     18.2376
_cell_angle_gamma    18.2376

_space_group_name_H-M_alt    "P 1"
_space_group_IT_number       1

loop_
  _space_group_symop_operation_xyz
  'x, y, z'

loop_
  _atom_site_type_symbol
  _atom_site_label
  _atom_site_symmetry_multiplicity
  _atom_site_fract_x
  _atom_site_fract_y
  _atom_site_fract_z
  _atom_site_occupancy
  B   B1        1.0  0.00617  0.00617  0.00617  1.0000
  B   B2        1.0  0.52300  0.52300  0.52300  1.0000
  Hg  Hg1       1.0  0.16400  0.16400  0.16400  1.0000
  Hg  Hg2       1.0  0.77400  0.77400  0.77400  1.0000
  Pb  Pb1       1.0  0.37500  0.37500  0.37500  1.0000
  Pb  Pb2       1.0  0.63700  0.63700  0.63700  1.0000
  Pb  Pb3       1.0  0.89500  0.89500  0.89500  1.0000
