data_image0
_chemical_formula_structural       Mo18Rb4Se20
_chemical_formula_sum              "Mo18 Rb4 Se20"
_cell_length_a       13.9937
_cell_length_b       13.9937
_cell_length_c       13.9937
_cell_angle_alpha    39.9977
_cell_angle_beta     39.9977
_cell_angle_gamma    39.9977

_space_group_name_H-M_alt    "P 1"
_space_group_IT_number       1

loop_
  _space_group_symop_operation_xyz
  'x, y, z'

loop_
  _atom_site_type_symbol
  _atom_site_label
  _atom_site_symmetry_multiplicity
  _atom_site_fract_x
  _atom_site_fract_y
  _atom_site_fract_z
  _atom_site_occupancy
  Mo  Mo1       1.0  0.68300  0.87500  0.00025  1.0000
  Mo  Mo2       1.0  0.87900  0.19900  0.01050  1.0000
  Mo  Mo3       1.0  0.89500  0.76000  0.08210  1.0000
  Mo  Mo4       1.0  0.24000  0.91800  0.10500  1.0000
  Mo  Mo5       1.0  0.80100  0.98900  0.12100  1.0000
  Mo  Mo6       1.0  0.00000  0.31700  0.12500  1.0000
  Mo  Mo7       1.0  0.01050  0.87900  0.19900  1.0000
  Mo  Mo8       1.0  0.91800  0.10500  0.24000  1.0000
  Mo  Mo9       1.0  0.12500  1.00000  0.31700  1.0000
  Mo  Mo10      1.0  0.87500  0.00025  0.68300  1.0000
  Mo  Mo11      1.0  0.08210  0.89500  0.76000  1.0000
  Mo  Mo12      1.0  0.98900  0.12100  0.80100  1.0000
  Mo  Mo13      1.0  0.00025  0.68300  0.87500  1.0000
  Mo  Mo14      1.0  0.19900  0.01050  0.87900  1.0000
  Mo  Mo15      1.0  0.76000  0.08210  0.89500  1.0000
  Mo  Mo16      1.0  0.10500  0.24000  0.91800  1.0000
  Mo  Mo17      1.0  0.12100  0.80100  0.98900  1.0000
  Mo  Mo18      1.0  0.31700  0.12500  0.00000  1.0000
  Rb  Rb1       1.0  0.29600  0.29600  0.29600  1.0000
  Rb  Rb2       1.0  0.42300  0.42300  0.42300  1.0000
  Rb  Rb3       1.0  0.57700  0.57700  0.57700  1.0000
  Rb  Rb4       1.0  0.70400  0.70400  0.70400  1.0000
  Se  Se1       1.0  0.79300  0.42000  0.05370  1.0000
  Se  Se2       1.0  0.32500  0.69200  0.06910  1.0000
  Se  Se3       1.0  0.43500  0.80700  0.18500  1.0000
  Se  Se4       1.0  0.81500  0.56500  0.19300  1.0000
  Se  Se5       1.0  0.20000  0.20000  0.20000  1.0000
  Se  Se6       1.0  0.58000  0.94600  0.20700  1.0000
  Se  Se7       1.0  0.93100  0.67500  0.30800  1.0000
  Se  Se8       1.0  0.69200  0.06910  0.32500  1.0000
  Se  Se9       1.0  0.05370  0.79300  0.42000  1.0000
  Se  Se10      1.0  0.80700  0.18500  0.43500  1.0000
  Se  Se11      1.0  0.19300  0.81500  0.56500  1.0000
  Se  Se12      1.0  0.94600  0.20700  0.58000  1.0000
  Se  Se13      1.0  0.30800  0.93100  0.67500  1.0000
  Se  Se14      1.0  0.06910  0.32500  0.69200  1.0000
  Se  Se15      1.0  0.42000  0.05370  0.79300  1.0000
  Se  Se16      1.0  0.80000  0.80000  0.80000  1.0000
  Se  Se17      1.0  0.18500  0.43500  0.80700  1.0000
  Se  Se18      1.0  0.56500  0.19300  0.81500  1.0000
  Se  Se19      1.0  0.67500  0.30800  0.93100  1.0000
  Se  Se20      1.0  0.20700  0.58000  0.94600  1.0000
