data_image0
_chemical_formula_structural       Ca2H20O16Zn4
_chemical_formula_sum              "Ca2 H20 O16 Zn4"
_cell_length_a       6.41995
_cell_length_b       10.3857
_cell_length_c       5.19803
_cell_angle_alpha    90
_cell_angle_beta     100.314
_cell_angle_gamma    90

_space_group_name_H-M_alt    "P 1"
_space_group_IT_number       1

loop_
  _space_group_symop_operation_xyz
  'x, y, z'

loop_
  _atom_site_type_symbol
  _atom_site_label
  _atom_site_symmetry_multiplicity
  _atom_site_fract_x
  _atom_site_fract_y
  _atom_site_fract_z
  _atom_site_occupancy
  Ca  Ca1       1.0  0.00000  0.00000  0.00000  1.0000
  Ca  Ca2       1.0  0.00000  0.50000  0.50000  1.0000
  H   H1        1.0  0.92700  0.36300  0.03150  1.0000
  H   H2        1.0  0.24200  0.48200  0.07040  1.0000
  H   H3        1.0  0.51000  0.38400  0.17300  1.0000
  H   H4        1.0  0.81400  0.69200  0.21500  1.0000
  H   H5        1.0  0.16600  0.79900  0.24800  1.0000
  H   H6        1.0  0.83400  0.29900  0.25200  1.0000
  H   H7        1.0  0.18600  0.19200  0.28500  1.0000
  H   H8        1.0  0.49000  0.88400  0.32700  1.0000
  H   H9        1.0  0.75800  0.98200  0.43000  1.0000
  H   H10       1.0  0.07290  0.86300  0.46900  1.0000
  H   H11       1.0  0.92700  0.13700  0.53100  1.0000
  H   H12       1.0  0.24200  0.01790  0.57000  1.0000
  H   H13       1.0  0.51000  0.11600  0.67300  1.0000
  H   H14       1.0  0.81400  0.80800  0.71500  1.0000
  H   H15       1.0  0.16600  0.70100  0.74800  1.0000
  H   H16       1.0  0.83400  0.20100  0.75200  1.0000
  H   H17       1.0  0.18600  0.30800  0.78500  1.0000
  H   H18       1.0  0.49000  0.61600  0.82700  1.0000
  H   H19       1.0  0.75800  0.51800  0.93000  1.0000
  H   H20       1.0  0.07290  0.63700  0.96900  1.0000
  O   O1        1.0  0.41700  0.82500  0.19600  1.0000
  O   O2        1.0  0.97500  0.31700  0.20400  1.0000
  O   O3        1.0  0.22500  0.54800  0.20400  1.0000
  O   O4        1.0  0.73700  0.60900  0.21100  1.0000
  O   O5        1.0  0.26300  0.10900  0.28900  1.0000
  O   O6        1.0  0.77500  0.04770  0.29600  1.0000
  O   O7        1.0  0.02540  0.81700  0.29600  1.0000
  O   O8        1.0  0.58300  0.32500  0.30400  1.0000
  O   O9        1.0  0.41700  0.67500  0.69600  1.0000
  O   O10       1.0  0.97500  0.18300  0.70400  1.0000
  O   O11       1.0  0.22500  0.95200  0.70400  1.0000
  O   O12       1.0  0.73700  0.89100  0.71100  1.0000
  O   O13       1.0  0.26300  0.39100  0.78900  1.0000
  O   O14       1.0  0.77500  0.45200  0.79600  1.0000
  O   O15       1.0  0.02540  0.68300  0.79600  1.0000
  O   O16       1.0  0.58300  0.17500  0.80400  1.0000
  Zn  Zn1       1.0  0.52000  0.14400  0.15800  1.0000
  Zn  Zn2       1.0  0.48000  0.64400  0.34200  1.0000
  Zn  Zn3       1.0  0.52000  0.35600  0.65800  1.0000
  Zn  Zn4       1.0  0.48000  0.85600  0.84200  1.0000
