data_image0
_chemical_formula_structural       Cu2Si2Ti3
_chemical_formula_sum              "Cu2 Si2 Ti3"
_cell_length_a       7.37748
_cell_length_b       7.37748
_cell_length_c       7.37748
_cell_angle_alpha    33.3627
_cell_angle_beta     33.3627
_cell_angle_gamma    33.3627

_space_group_name_H-M_alt    "P 1"
_space_group_IT_number       1

loop_
  _space_group_symop_operation_xyz
  'x, y, z'

loop_
  _atom_site_type_symbol
  _atom_site_label
  _atom_site_symmetry_multiplicity
  _atom_site_fract_x
  _atom_site_fract_y
  _atom_site_fract_z
  _atom_site_occupancy
  Cu  Cu1       1.0  0.01200  0.01200  0.01200  1.0000
  Cu  Cu2       1.0  0.49300  0.49300  0.49300  1.0000
  Si  Si1       1.0  0.24700  0.24700  0.24700  1.0000
  Si  Si2       1.0  0.75100  0.75100  0.75100  1.0000
  Ti  Ti1       1.0  0.37500  0.37500  0.37500  1.0000
  Ti  Ti2       1.0  0.62500  0.62500  0.62500  1.0000
  Ti  Ti3       1.0  0.87200  0.87200  0.87200  1.0000
