data_image0
_chemical_formula_structural       C2I28Zr12
_chemical_formula_sum              "C2 I28 Zr12"
_cell_length_a       11.0013
_cell_length_b       11.0013
_cell_length_c       13.1051
_cell_angle_alpha    90
_cell_angle_beta     90
_cell_angle_gamma    92.6658

_space_group_name_H-M_alt    "P 1"
_space_group_IT_number       1

loop_
  _space_group_symop_operation_xyz
  'x, y, z'

loop_
  _atom_site_type_symbol
  _atom_site_label
  _atom_site_symmetry_multiplicity
  _atom_site_fract_x
  _atom_site_fract_y
  _atom_site_fract_z
  _atom_site_occupancy
  C   C1        1.0  0.50000  0.50000  0.00000  1.0000
  C   C2        1.0  0.00000  0.00000  0.50000  1.0000
  I   I1        1.0  0.75300  0.24700  0.00000  1.0000
  I   I2        1.0  0.24700  0.75300  0.00000  1.0000
  I   I3        1.0  0.39400  0.14500  0.01190  1.0000
  I   I4        1.0  0.14500  0.39400  0.01190  1.0000
  I   I5        1.0  0.85800  0.85800  0.23700  1.0000
  I   I6        1.0  0.71400  0.46700  0.24500  1.0000
  I   I7        1.0  0.46700  0.71400  0.24500  1.0000
  I   I8        1.0  0.60800  0.10800  0.25000  1.0000
  I   I9        1.0  0.10800  0.60800  0.25000  1.0000
  I   I10       1.0  0.96700  0.21400  0.25500  1.0000
  I   I11       1.0  0.21400  0.96700  0.25500  1.0000
  I   I12       1.0  0.35800  0.35800  0.26300  1.0000
  I   I13       1.0  0.89400  0.64500  0.48800  1.0000
  I   I14       1.0  0.64500  0.89400  0.48800  1.0000
  I   I15       1.0  0.74700  0.25300  0.50000  1.0000
  I   I16       1.0  0.25300  0.74700  0.50000  1.0000
  I   I17       1.0  0.35500  0.10600  0.51200  1.0000
  I   I18       1.0  0.10600  0.35500  0.51200  1.0000
  I   I19       1.0  0.64200  0.64200  0.73700  1.0000
  I   I20       1.0  0.78600  0.03340  0.74500  1.0000
  I   I21       1.0  0.03340  0.78600  0.74500  1.0000
  I   I22       1.0  0.89200  0.39200  0.75000  1.0000
  I   I23       1.0  0.39200  0.89200  0.75000  1.0000
  I   I24       1.0  0.53300  0.28600  0.75500  1.0000
  I   I25       1.0  0.28600  0.53300  0.75500  1.0000
  I   I26       1.0  0.14200  0.14200  0.76300  1.0000
  I   I27       1.0  0.85500  0.60600  0.98800  1.0000
  I   I28       1.0  0.60600  0.85500  0.98800  1.0000
  Zr  Zr1       1.0  0.62700  0.62700  0.09200  1.0000
  Zr  Zr2       1.0  0.54700  0.33500  0.10900  1.0000
  Zr  Zr3       1.0  0.33500  0.54700  0.10900  1.0000
  Zr  Zr4       1.0  0.83500  0.04720  0.39100  1.0000
  Zr  Zr5       1.0  0.04720  0.83500  0.39100  1.0000
  Zr  Zr6       1.0  0.12700  0.12700  0.40800  1.0000
  Zr  Zr7       1.0  0.87300  0.87300  0.59200  1.0000
  Zr  Zr8       1.0  0.95300  0.16500  0.60900  1.0000
  Zr  Zr9       1.0  0.16500  0.95300  0.60900  1.0000
  Zr  Zr10      1.0  0.66500  0.45300  0.89100  1.0000
  Zr  Zr11      1.0  0.45300  0.66500  0.89100  1.0000
  Zr  Zr12      1.0  0.37300  0.37300  0.90800  1.0000
