data_image0
_chemical_formula_structural       Ag2Ti5
_chemical_formula_sum              "Ag2 Ti5"
_cell_length_a       7.08344
_cell_length_b       7.08344
_cell_length_c       7.08344
_cell_angle_alpha    37.5436
_cell_angle_beta     37.5436
_cell_angle_gamma    37.5436

_space_group_name_H-M_alt    "P 1"
_space_group_IT_number       1

loop_
  _space_group_symop_operation_xyz
  'x, y, z'

loop_
  _atom_site_type_symbol
  _atom_site_label
  _atom_site_symmetry_multiplicity
  _atom_site_fract_x
  _atom_site_fract_y
  _atom_site_fract_z
  _atom_site_occupancy
  Ag  Ag1       1.0  0.05180  0.05180  0.05180  1.0000
  Ag  Ag2       1.0  0.48400  0.48400  0.48400  1.0000
  Ti  Ti1       1.0  0.19900  0.19900  0.19900  1.0000
  Ti  Ti2       1.0  0.33600  0.33600  0.33600  1.0000
  Ti  Ti3       1.0  0.62100  0.62100  0.62100  1.0000
  Ti  Ti4       1.0  0.76800  0.76800  0.76800  1.0000
  Ti  Ti5       1.0  0.91500  0.91500  0.91500  1.0000
