data_image0
_chemical_formula_structural       Ag2Ti3Zr2
_chemical_formula_sum              "Ag2 Ti3 Zr2"
_cell_length_a       7.37097
_cell_length_b       7.37097
_cell_length_c       7.37097
_cell_angle_alpha    37.2721
_cell_angle_beta     37.2721
_cell_angle_gamma    37.2721

_space_group_name_H-M_alt    "P 1"
_space_group_IT_number       1

loop_
  _space_group_symop_operation_xyz
  'x, y, z'

loop_
  _atom_site_type_symbol
  _atom_site_label
  _atom_site_symmetry_multiplicity
  _atom_site_fract_x
  _atom_site_fract_y
  _atom_site_fract_z
  _atom_site_occupancy
  Ag  Ag1       1.0  0.05140  0.05140  0.05140  1.0000
  Ag  Ag2       1.0  0.48200  0.48200  0.48200  1.0000
  Ti  Ti1       1.0  0.33700  0.33700  0.33700  1.0000
  Ti  Ti2       1.0  0.61700  0.61700  0.61700  1.0000
  Ti  Ti3       1.0  0.92400  0.92400  0.92400  1.0000
  Zr  Zr1       1.0  0.20000  0.20000  0.20000  1.0000
  Zr  Zr2       1.0  0.76400  0.76400  0.76400  1.0000
