data_image0
_chemical_formula_structural       Ba6Mg6O24Si6
_chemical_formula_sum              "Ba6 Mg6 O24 Si6"
_cell_length_a       9.11069
_cell_length_b       9.1108
_cell_length_c       8.70984
_cell_angle_alpha    90
_cell_angle_beta     90
_cell_angle_gamma    120.001

_space_group_name_H-M_alt    "P 1"
_space_group_IT_number       1

loop_
  _space_group_symop_operation_xyz
  'x, y, z'

loop_
  _atom_site_type_symbol
  _atom_site_label
  _atom_site_symmetry_multiplicity
  _atom_site_fract_x
  _atom_site_fract_y
  _atom_site_fract_z
  _atom_site_occupancy
  Ba  Ba1       1.0  0.66700  0.33300  0.22600  1.0000
  Ba  Ba2       1.0  0.33300  0.66700  0.23200  1.0000
  Ba  Ba3       1.0  0.00000  0.00000  0.25600  1.0000
  Ba  Ba4       1.0  0.33300  0.66700  0.72600  1.0000
  Ba  Ba5       1.0  0.66700  0.33300  0.73200  1.0000
  Ba  Ba6       1.0  0.00000  0.00000  0.75600  1.0000
  Mg  Mg1       1.0  0.67000  0.98700  0.03820  1.0000
  Mg  Mg2       1.0  0.31800  0.33000  0.03830  1.0000
  Mg  Mg3       1.0  0.01250  0.68200  0.03830  1.0000
  Mg  Mg4       1.0  0.33000  0.01250  0.53800  1.0000
  Mg  Mg5       1.0  0.68200  0.67000  0.53800  1.0000
  Mg  Mg6       1.0  0.98700  0.31800  0.53800  1.0000
  O   O1        1.0  0.23500  0.08910  0.02310  1.0000
  O   O2        1.0  0.85400  0.76500  0.02320  1.0000
  O   O3        1.0  0.91100  0.14600  0.02320  1.0000
  O   O4        1.0  0.06480  0.71600  0.25400  1.0000
  O   O5        1.0  0.28400  0.34900  0.25400  1.0000
  O   O6        1.0  0.65100  0.93500  0.25400  1.0000
  O   O7        1.0  0.76300  0.19600  0.45100  1.0000
  O   O8        1.0  0.43300  0.23700  0.45100  1.0000
  O   O9        1.0  0.80400  0.56700  0.45100  1.0000
  O   O10       1.0  0.46400  0.90500  0.49500  1.0000
  O   O11       1.0  0.44200  0.53700  0.49500  1.0000
  O   O12       1.0  0.09470  0.55800  0.49500  1.0000
  O   O13       1.0  0.76500  0.91100  0.52300  1.0000
  O   O14       1.0  0.14600  0.23500  0.52300  1.0000
  O   O15       1.0  0.08920  0.85400  0.52300  1.0000
  O   O16       1.0  0.93500  0.28400  0.75400  1.0000
  O   O17       1.0  0.71600  0.65100  0.75400  1.0000
  O   O18       1.0  0.34900  0.06480  0.75400  1.0000
  O   O19       1.0  0.23700  0.80400  0.95100  1.0000
  O   O20       1.0  0.56700  0.76300  0.95100  1.0000
  O   O21       1.0  0.19600  0.43300  0.95100  1.0000
  O   O22       1.0  0.53600  0.09460  0.99500  1.0000
  O   O23       1.0  0.55800  0.46300  0.99500  1.0000
  O   O24       1.0  0.90500  0.44200  0.99500  1.0000
  Si  Si1       1.0  0.32900  0.34000  0.43500  1.0000
  Si  Si2       1.0  0.01140  0.67100  0.43500  1.0000
  Si  Si3       1.0  0.66000  0.98900  0.43500  1.0000
  Si  Si4       1.0  0.67100  0.66000  0.93500  1.0000
  Si  Si5       1.0  0.98900  0.32900  0.93500  1.0000
  Si  Si6       1.0  0.34000  0.01140  0.93500  1.0000
