data_image0
_chemical_formula_structural       Ba3Nb16O23
_chemical_formula_sum              "Ba3 Nb16 O23"
_cell_length_a       4.18931
_cell_length_b       12.2387
_cell_length_c       12.2387
_cell_angle_alpha    61.5016
_cell_angle_beta     90
_cell_angle_gamma    90

_space_group_name_H-M_alt    "P 1"
_space_group_IT_number       1

loop_
  _space_group_symop_operation_xyz
  'x, y, z'

loop_
  _atom_site_type_symbol
  _atom_site_label
  _atom_site_symmetry_multiplicity
  _atom_site_fract_x
  _atom_site_fract_y
  _atom_site_fract_z
  _atom_site_occupancy
  Ba  Ba1       1.0  0.00000  0.00000  0.00000  1.0000
  Ba  Ba2       1.0  0.00000  0.20100  0.20100  1.0000
  Ba  Ba3       1.0  0.00000  0.79900  0.79900  1.0000
  Nb  Nb1       1.0  0.50000  0.73100  0.06760  1.0000
  Nb  Nb2       1.0  0.50000  0.47200  0.13700  1.0000
  Nb  Nb3       1.0  0.00000  0.57000  0.22700  1.0000
  Nb  Nb4       1.0  0.50000  0.93200  0.26900  1.0000
  Nb  Nb5       1.0  0.50000  0.67200  0.32800  1.0000
  Nb  Nb6       1.0  0.50000  0.39900  0.39900  1.0000
  Nb  Nb7       1.0  0.00000  0.77300  0.43000  1.0000
  Nb  Nb8       1.0  0.50000  0.13700  0.47200  1.0000
  Nb  Nb9       1.0  0.50000  0.86300  0.52800  1.0000
  Nb  Nb10      1.0  0.00000  0.22700  0.57000  1.0000
  Nb  Nb11      1.0  0.50000  0.60100  0.60100  1.0000
  Nb  Nb12      1.0  0.50000  0.32800  0.67200  1.0000
  Nb  Nb13      1.0  0.50000  0.06760  0.73100  1.0000
  Nb  Nb14      1.0  0.00000  0.43000  0.77300  1.0000
  Nb  Nb15      1.0  0.50000  0.52800  0.86300  1.0000
  Nb  Nb16      1.0  0.50000  0.26900  0.93200  1.0000
  O   O1        1.0  0.50000  0.36400  0.03540  1.0000
  O   O2        1.0  0.00000  0.74100  0.06100  1.0000
  O   O3        1.0  0.50000  0.10300  0.10300  1.0000
  O   O4        1.0  0.00000  0.46000  0.14000  1.0000
  O   O5        1.0  0.50000  0.84100  0.15900  1.0000
  O   O6        1.0  0.00000  0.93900  0.25900  1.0000
  O   O7        1.0  0.50000  0.29800  0.29800  1.0000
  O   O8        1.0  0.00000  0.66600  0.33400  1.0000
  O   O9        1.0  0.50000  0.03540  0.36400  1.0000
  O   O10       1.0  0.00000  0.40400  0.40400  1.0000
  O   O11       1.0  0.00000  0.14000  0.46000  1.0000
  O   O12       1.0  0.50000  0.50000  0.50000  1.0000
  O   O13       1.0  0.00000  0.86000  0.54000  1.0000
  O   O14       1.0  0.00000  0.59600  0.59600  1.0000
  O   O15       1.0  0.50000  0.96500  0.63600  1.0000
  O   O16       1.0  0.00000  0.33400  0.66600  1.0000
  O   O17       1.0  0.50000  0.70200  0.70200  1.0000
  O   O18       1.0  0.00000  0.06100  0.74100  1.0000
  O   O19       1.0  0.50000  0.15900  0.84100  1.0000
  O   O20       1.0  0.00000  0.54000  0.86000  1.0000
  O   O21       1.0  0.50000  0.89700  0.89700  1.0000
  O   O22       1.0  0.00000  0.25900  0.93900  1.0000
  O   O23       1.0  0.50000  0.63600  0.96500  1.0000
