data_image0
_chemical_formula_structural       Pb3Tl2Zn2
_chemical_formula_sum              "Pb3 Tl2 Zn2"
_cell_length_a       8.4168
_cell_length_b       8.4168
_cell_length_c       8.4168
_cell_angle_alpha    37.1184
_cell_angle_beta     37.1184
_cell_angle_gamma    37.1184

_space_group_name_H-M_alt    "P 1"
_space_group_IT_number       1

loop_
  _space_group_symop_operation_xyz
  'x, y, z'

loop_
  _atom_site_type_symbol
  _atom_site_label
  _atom_site_symmetry_multiplicity
  _atom_site_fract_x
  _atom_site_fract_y
  _atom_site_fract_z
  _atom_site_occupancy
  Pb  Pb1       1.0  0.36400  0.36400  0.36400  1.0000
  Pb  Pb2       1.0  0.62400  0.62400  0.62400  1.0000
  Pb  Pb3       1.0  0.90900  0.90900  0.90900  1.0000
  Tl  Tl1       1.0  0.17700  0.17700  0.17700  1.0000
  Tl  Tl2       1.0  0.76800  0.76800  0.76800  1.0000
  Zn  Zn1       1.0  0.04110  0.04110  0.04110  1.0000
  Zn  Zn2       1.0  0.49200  0.49200  0.49200  1.0000
