data_image0
_chemical_formula_structural       H10N6Na6O14P6
_chemical_formula_sum              "H10 N6 Na6 O14 P6"
_cell_length_a       7.54237
_cell_length_b       8.13893
_cell_length_c       8.13893
_cell_angle_alpha    95.6104
_cell_angle_beta     90.2397
_cell_angle_gamma    90.2397

_space_group_name_H-M_alt    "P 1"
_space_group_IT_number       1

loop_
  _space_group_symop_operation_xyz
  'x, y, z'

loop_
  _atom_site_type_symbol
  _atom_site_label
  _atom_site_symmetry_multiplicity
  _atom_site_fract_x
  _atom_site_fract_y
  _atom_site_fract_z
  _atom_site_occupancy
  H   H1        1.0  0.70800  0.56700  0.05140  1.0000
  H   H2        1.0  0.75000  0.84300  0.09870  1.0000
  H   H3        1.0  0.25000  0.90100  0.15700  1.0000
  H   H4        1.0  0.68600  0.45600  0.25800  1.0000
  H   H5        1.0  0.65500  0.64400  0.35400  1.0000
  H   H6        1.0  0.34500  0.64600  0.35600  1.0000
  H   H7        1.0  0.29200  0.94900  0.43300  1.0000
  H   H8        1.0  0.31400  0.74200  0.54400  1.0000
  H   H9        1.0  0.36900  0.12300  0.83700  1.0000
  H   H10       1.0  0.63100  0.16300  0.87700  1.0000
  N   N1        1.0  0.28200  0.60500  0.08510  1.0000
  N   N2        1.0  0.92200  0.08050  0.22600  1.0000
  N   N3        1.0  0.99000  0.15900  0.36200  1.0000
  N   N4        1.0  0.71800  0.91500  0.39500  1.0000
  N   N5        1.0  0.01030  0.63800  0.84100  1.0000
  N   N6        1.0  0.07770  0.77400  0.92000  1.0000
  Na  Na1       1.0  0.36800  0.25400  0.09510  1.0000
  Na  Na2       1.0  0.00000  0.54400  0.45600  1.0000
  Na  Na3       1.0  0.66600  0.25000  0.48200  1.0000
  Na  Na4       1.0  0.63200  0.90500  0.74600  1.0000
  Na  Na5       1.0  0.33400  0.51800  0.75000  1.0000
  Na  Na6       1.0  0.00000  0.24100  0.75900  1.0000
  O   O1        1.0  0.21900  0.47200  0.00561  1.0000
  O   O2        1.0  0.65000  0.27700  0.19900  1.0000
  O   O3        1.0  0.73700  0.57400  0.28800  1.0000
  O   O4        1.0  0.26300  0.71200  0.42600  1.0000
  O   O5        1.0  0.30300  0.05820  0.49700  1.0000
  O   O6        1.0  0.78100  0.99400  0.52800  1.0000
  O   O7        1.0  0.18100  0.34700  0.55200  1.0000
  O   O8        1.0  0.81900  0.44800  0.65300  1.0000
  O   O9        1.0  0.50000  0.30200  0.69800  1.0000
  O   O10       1.0  0.35000  0.80100  0.72300  1.0000
  O   O11       1.0  0.50000  0.18100  0.81900  1.0000
  O   O12       1.0  0.22500  0.06140  0.89000  1.0000
  O   O13       1.0  0.77500  0.11000  0.93900  1.0000
  O   O14       1.0  0.69700  0.50300  0.94200  1.0000
  P   P1        1.0  0.82600  0.23000  0.09780  1.0000
  P   P2        1.0  0.13500  0.76400  0.12300  1.0000
  P   P3        1.0  0.86500  0.87700  0.23600  1.0000
  P   P4        1.0  0.20400  0.20900  0.41200  1.0000
  P   P5        1.0  0.17400  0.90200  0.77000  1.0000
  P   P6        1.0  0.79600  0.58800  0.79100  1.0000
