data_image0
_chemical_formula_structural       Hg2La2Pb3
_chemical_formula_sum              "Hg2 La2 Pb3"
_cell_length_a       9.04241
_cell_length_b       9.04241
_cell_length_c       9.04241
_cell_angle_alpha    34.4667
_cell_angle_beta     34.4667
_cell_angle_gamma    34.4667

_space_group_name_H-M_alt    "P 1"
_space_group_IT_number       1

loop_
  _space_group_symop_operation_xyz
  'x, y, z'

loop_
  _atom_site_type_symbol
  _atom_site_label
  _atom_site_symmetry_multiplicity
  _atom_site_fract_x
  _atom_site_fract_y
  _atom_site_fract_z
  _atom_site_occupancy
  Hg  Hg1       1.0  0.06180  0.06180  0.06180  1.0000
  Hg  Hg2       1.0  0.48300  0.48300  0.48300  1.0000
  La  La1       1.0  0.20700  0.20700  0.20700  1.0000
  La  La2       1.0  0.75900  0.75900  0.75900  1.0000
  Pb  Pb1       1.0  0.34400  0.34400  0.34400  1.0000
  Pb  Pb2       1.0  0.62900  0.62900  0.62900  1.0000
  Pb  Pb3       1.0  0.89100  0.89100  0.89100  1.0000
