data_image0
_chemical_formula_structural       La2Pb3Zn2
_chemical_formula_sum              "La2 Pb3 Zn2"
_cell_length_a       9.43131
_cell_length_b       9.43131
_cell_length_c       9.43131
_cell_angle_alpha    31.9059
_cell_angle_beta     31.9059
_cell_angle_gamma    31.9059

_space_group_name_H-M_alt    "P 1"
_space_group_IT_number       1

loop_
  _space_group_symop_operation_xyz
  'x, y, z'

loop_
  _atom_site_type_symbol
  _atom_site_label
  _atom_site_symmetry_multiplicity
  _atom_site_fract_x
  _atom_site_fract_y
  _atom_site_fract_z
  _atom_site_occupancy
  La  La1       1.0  0.24600  0.24600  0.24600  1.0000
  La  La2       1.0  0.75100  0.75100  0.75100  1.0000
  Pb  Pb1       1.0  0.37500  0.37500  0.37500  1.0000
  Pb  Pb2       1.0  0.62800  0.62800  0.62800  1.0000
  Pb  Pb3       1.0  0.86800  0.86800  0.86800  1.0000
  Zn  Zn1       1.0  0.01050  0.01050  0.01050  1.0000
  Zn  Zn2       1.0  0.49600  0.49600  0.49600  1.0000
