data_image0
_chemical_formula_structural       Al2Pb3Zn2
_chemical_formula_sum              "Al2 Pb3 Zn2"
_cell_length_a       8.697
_cell_length_b       8.697
_cell_length_c       8.697
_cell_angle_alpha    33.8157
_cell_angle_beta     33.8157
_cell_angle_gamma    33.8157

_space_group_name_H-M_alt    "P 1"
_space_group_IT_number       1

loop_
  _space_group_symop_operation_xyz
  'x, y, z'

loop_
  _atom_site_type_symbol
  _atom_site_label
  _atom_site_symmetry_multiplicity
  _atom_site_fract_x
  _atom_site_fract_y
  _atom_site_fract_z
  _atom_site_occupancy
  Al  Al1       1.0  0.24200  0.24200  0.24200  1.0000
  Al  Al2       1.0  0.75200  0.75200  0.75200  1.0000
  Pb  Pb1       1.0  0.37700  0.37700  0.37700  1.0000
  Pb  Pb2       1.0  0.62500  0.62500  0.62500  1.0000
  Pb  Pb3       1.0  0.87100  0.87100  0.87100  1.0000
  Zn  Zn1       1.0  0.01270  0.01270  0.01270  1.0000
  Zn  Zn2       1.0  0.49500  0.49500  0.49500  1.0000
