data_image0
_chemical_formula_structural       B8Ba10F4O20
_chemical_formula_sum              "B8 Ba10 F4 O20"
_cell_length_a       7.11065
_cell_length_b       8.54056
_cell_length_c       10.8996
_cell_angle_alpha    94.6881
_cell_angle_beta     109.038
_cell_angle_gamma    90

_space_group_name_H-M_alt    "P 1"
_space_group_IT_number       1

loop_
  _space_group_symop_operation_xyz
  'x, y, z'

loop_
  _atom_site_type_symbol
  _atom_site_label
  _atom_site_symmetry_multiplicity
  _atom_site_fract_x
  _atom_site_fract_y
  _atom_site_fract_z
  _atom_site_occupancy
  B   B1        1.0  0.77600  0.49500  0.18900  1.0000
  B   B2        1.0  0.41300  0.99500  0.18900  1.0000
  B   B3        1.0  0.05740  0.41700  0.37700  1.0000
  B   B4        1.0  0.32000  0.91700  0.37700  1.0000
  B   B5        1.0  0.68000  0.08350  0.62300  1.0000
  B   B6        1.0  0.94300  0.58300  0.62300  1.0000
  B   B7        1.0  0.58700  0.00464  0.81100  1.0000
  B   B8        1.0  0.22400  0.50500  0.81100  1.0000
  Ba  Ba1       1.0  0.44600  0.25000  0.00000  1.0000
  Ba  Ba2       1.0  0.55400  0.75000  0.00000  1.0000
  Ba  Ba3       1.0  0.20100  0.60800  0.17000  1.0000
  Ba  Ba4       1.0  0.96900  0.10800  0.17000  1.0000
  Ba  Ba5       1.0  0.81100  0.80800  0.39800  1.0000
  Ba  Ba6       1.0  0.58600  0.30800  0.39800  1.0000
  Ba  Ba7       1.0  0.18900  0.19200  0.60200  1.0000
  Ba  Ba8       1.0  0.41400  0.69200  0.60200  1.0000
  Ba  Ba9       1.0  0.79900  0.39200  0.83000  1.0000
  Ba  Ba10      1.0  0.03090  0.89200  0.83000  1.0000
  F   F1        1.0  0.25400  0.30400  0.16000  1.0000
  F   F2        1.0  0.90600  0.80400  0.16000  1.0000
  F   F3        1.0  0.09410  0.19600  0.84000  1.0000
  F   F4        1.0  0.74600  0.69600  0.84000  1.0000
  O   O1        1.0  0.80800  0.42000  0.08240  1.0000
  O   O2        1.0  0.27400  0.92000  0.08240  1.0000
  O   O3        1.0  0.59900  0.04020  0.19300  1.0000
  O   O4        1.0  0.59400  0.54000  0.19300  1.0000
  O   O5        1.0  0.35300  0.03750  0.30100  1.0000
  O   O6        1.0  0.94900  0.53800  0.30100  1.0000
  O   O7        1.0  0.95000  0.28400  0.37500  1.0000
  O   O8        1.0  0.42500  0.78400  0.37500  1.0000
  O   O9        1.0  0.25400  0.44100  0.44100  1.0000
  O   O10       1.0  0.18700  0.94100  0.44100  1.0000
  O   O11       1.0  0.81300  0.05890  0.55900  1.0000
  O   O12       1.0  0.74600  0.55900  0.55900  1.0000
  O   O13       1.0  0.57500  0.21600  0.62500  1.0000
  O   O14       1.0  0.05040  0.71600  0.62500  1.0000
  O   O15       1.0  0.05130  0.46200  0.69900  1.0000
  O   O16       1.0  0.64700  0.96200  0.69900  1.0000
  O   O17       1.0  0.40600  0.46000  0.80700  1.0000
  O   O18       1.0  0.40100  0.96000  0.80700  1.0000
  O   O19       1.0  0.72600  0.08010  0.91800  1.0000
  O   O20       1.0  0.19200  0.58000  0.91800  1.0000
