data_image0
_chemical_formula_structural       Cu2Ti5
_chemical_formula_sum              "Cu2 Ti5"
_cell_length_a       6.82798
_cell_length_b       6.82798
_cell_length_c       6.82798
_cell_angle_alpha    37.8075
_cell_angle_beta     37.8075
_cell_angle_gamma    37.8075

_space_group_name_H-M_alt    "P 1"
_space_group_IT_number       1

loop_
  _space_group_symop_operation_xyz
  'x, y, z'

loop_
  _atom_site_type_symbol
  _atom_site_label
  _atom_site_symmetry_multiplicity
  _atom_site_fract_x
  _atom_site_fract_y
  _atom_site_fract_z
  _atom_site_occupancy
  Cu  Cu1       1.0  0.05160  0.05160  0.05160  1.0000
  Cu  Cu2       1.0  0.48400  0.48400  0.48400  1.0000
  Ti  Ti1       1.0  0.19400  0.19400  0.19400  1.0000
  Ti  Ti2       1.0  0.34200  0.34200  0.34200  1.0000
  Ti  Ti3       1.0  0.61700  0.61700  0.61700  1.0000
  Ti  Ti4       1.0  0.76800  0.76800  0.76800  1.0000
  Ti  Ti5       1.0  0.91900  0.91900  0.91900  1.0000
