data_image0
_chemical_formula_structural       H16I4Mg2O20
_chemical_formula_sum              "H16 I4 Mg2 O20"
_cell_length_a       8.1678
_cell_length_b       6.23701
_cell_length_c       8.25766
_cell_angle_alpha    90
_cell_angle_beta     100.09
_cell_angle_gamma    90

_space_group_name_H-M_alt    "P 1"
_space_group_IT_number       1

loop_
  _space_group_symop_operation_xyz
  'x, y, z'

loop_
  _atom_site_type_symbol
  _atom_site_label
  _atom_site_symmetry_multiplicity
  _atom_site_fract_x
  _atom_site_fract_y
  _atom_site_fract_z
  _atom_site_occupancy
  H   H1        1.0  0.78300  0.77600  0.05400  1.0000
  H   H2        1.0  0.48900  0.61200  0.18100  1.0000
  H   H3        1.0  0.77200  0.88500  0.23000  1.0000
  H   H4        1.0  0.33800  0.00033  0.24300  1.0000
  H   H5        1.0  0.66200  0.50000  0.25700  1.0000
  H   H6        1.0  0.22800  0.38500  0.27000  1.0000
  H   H7        1.0  0.51100  0.11200  0.31900  1.0000
  H   H8        1.0  0.21700  0.27600  0.44600  1.0000
  H   H9        1.0  0.78300  0.72400  0.55400  1.0000
  H   H10       1.0  0.48900  0.88800  0.68100  1.0000
  H   H11       1.0  0.77200  0.61500  0.73000  1.0000
  H   H12       1.0  0.33800  0.50000  0.74300  1.0000
  H   H13       1.0  0.66200  0.00000  0.75700  1.0000
  H   H14       1.0  0.22800  0.11500  0.77000  1.0000
  H   H15       1.0  0.51100  0.38800  0.81900  1.0000
  H   H16       1.0  0.21700  0.22400  0.94600  1.0000
  I   I1        1.0  0.84700  0.31100  0.03580  1.0000
  I   I2        1.0  0.15300  0.81100  0.46400  1.0000
  I   I3        1.0  0.84700  0.18900  0.53600  1.0000
  I   I4        1.0  0.15300  0.68900  0.96400  1.0000
  Mg  Mg1       1.0  0.50000  0.00000  0.00000  1.0000
  Mg  Mg2       1.0  0.50000  0.50000  0.50000  1.0000
  O   O1        1.0  0.38100  0.70600  0.01240  1.0000
  O   O2        1.0  0.15000  0.41600  0.05830  1.0000
  O   O3        1.0  0.73900  0.90200  0.10900  1.0000
  O   O4        1.0  0.43300  0.07990  0.21400  1.0000
  O   O5        1.0  0.13700  0.88900  0.24800  1.0000
  O   O6        1.0  0.86300  0.38900  0.25200  1.0000
  O   O7        1.0  0.56700  0.58000  0.28600  1.0000
  O   O8        1.0  0.26100  0.40200  0.39100  1.0000
  O   O9        1.0  0.85000  0.91600  0.44200  1.0000
  O   O10       1.0  0.61900  0.20600  0.48800  1.0000
  O   O11       1.0  0.38100  0.79400  0.51200  1.0000
  O   O12       1.0  0.15000  0.08400  0.55800  1.0000
  O   O13       1.0  0.73900  0.59800  0.60900  1.0000
  O   O14       1.0  0.43300  0.42000  0.71400  1.0000
  O   O15       1.0  0.13700  0.61100  0.74800  1.0000
  O   O16       1.0  0.86300  0.11100  0.75200  1.0000
  O   O17       1.0  0.56700  0.92000  0.78600  1.0000
  O   O18       1.0  0.26100  0.09790  0.89100  1.0000
  O   O19       1.0  0.85000  0.58400  0.94200  1.0000
  O   O20       1.0  0.61900  0.29400  0.98800  1.0000
