data_image0
_chemical_formula_structural       Au2Sn2Ti3
_chemical_formula_sum              "Au2 Sn2 Ti3"
_cell_length_a       7.83235
_cell_length_b       7.83235
_cell_length_c       7.83235
_cell_angle_alpha    34.4548
_cell_angle_beta     34.4548
_cell_angle_gamma    34.4548

_space_group_name_H-M_alt    "P 1"
_space_group_IT_number       1

loop_
  _space_group_symop_operation_xyz
  'x, y, z'

loop_
  _atom_site_type_symbol
  _atom_site_label
  _atom_site_symmetry_multiplicity
  _atom_site_fract_x
  _atom_site_fract_y
  _atom_site_fract_z
  _atom_site_occupancy
  Au  Au1       1.0  0.01710  0.01710  0.01710  1.0000
  Au  Au2       1.0  0.49200  0.49200  0.49200  1.0000
  Sn  Sn1       1.0  0.23900  0.23900  0.23900  1.0000
  Sn  Sn2       1.0  0.75500  0.75500  0.75500  1.0000
  Ti  Ti1       1.0  0.36600  0.36600  0.36600  1.0000
  Ti  Ti2       1.0  0.62400  0.62400  0.62400  1.0000
  Ti  Ti3       1.0  0.88300  0.88300  0.88300  1.0000
