data_image0
_chemical_formula_structural       Ba2Mo4O28P8
_chemical_formula_sum              "Ba2 Mo4 O28 P8"
_cell_length_a       7.54746
_cell_length_b       7.54746
_cell_length_c       9.74159
_cell_angle_alpha    99.5429
_cell_angle_beta     80.4571
_cell_angle_gamma    91.4452

_space_group_name_H-M_alt    "P 1"
_space_group_IT_number       1

loop_
  _space_group_symop_operation_xyz
  'x, y, z'

loop_
  _atom_site_type_symbol
  _atom_site_label
  _atom_site_symmetry_multiplicity
  _atom_site_fract_x
  _atom_site_fract_y
  _atom_site_fract_z
  _atom_site_occupancy
  Ba  Ba1       1.0  0.50000  0.00000  0.00000  1.0000
  Ba  Ba2       1.0  0.00000  0.50000  0.50000  1.0000
  Mo  Mo1       1.0  0.00000  0.00000  0.00000  1.0000
  Mo  Mo2       1.0  0.55400  0.55400  0.25000  1.0000
  Mo  Mo3       1.0  0.00000  0.00000  0.50000  1.0000
  Mo  Mo4       1.0  0.44600  0.44600  0.75000  1.0000
  O   O1        1.0  0.15300  0.81800  0.07260  1.0000
  O   O2        1.0  0.75100  0.62400  0.09110  1.0000
  O   O3        1.0  0.44500  0.36700  0.09810  1.0000
  O   O4        1.0  0.16500  0.18800  0.10100  1.0000
  O   O5        1.0  0.13400  0.51800  0.16500  1.0000
  O   O6        1.0  0.78400  0.03920  0.16900  1.0000
  O   O7        1.0  0.37500  0.75000  0.21600  1.0000
  O   O8        1.0  0.75000  0.37500  0.28400  1.0000
  O   O9        1.0  0.03920  0.78400  0.33100  1.0000
  O   O10       1.0  0.51800  0.13400  0.33500  1.0000
  O   O11       1.0  0.18800  0.16500  0.39900  1.0000
  O   O12       1.0  0.36700  0.44500  0.40200  1.0000
  O   O13       1.0  0.62400  0.75100  0.40900  1.0000
  O   O14       1.0  0.81800  0.15300  0.42700  1.0000
  O   O15       1.0  0.18200  0.84700  0.57300  1.0000
  O   O16       1.0  0.37600  0.24900  0.59100  1.0000
  O   O17       1.0  0.63300  0.55500  0.59800  1.0000
  O   O18       1.0  0.81200  0.83500  0.60100  1.0000
  O   O19       1.0  0.48200  0.86600  0.66500  1.0000
  O   O20       1.0  0.96100  0.21600  0.66900  1.0000
  O   O21       1.0  0.25000  0.62500  0.71600  1.0000
  O   O22       1.0  0.62500  0.25000  0.78400  1.0000
  O   O23       1.0  0.21600  0.96100  0.83100  1.0000
  O   O24       1.0  0.86600  0.48200  0.83500  1.0000
  O   O25       1.0  0.83500  0.81200  0.89900  1.0000
  O   O26       1.0  0.55500  0.63300  0.90200  1.0000
  O   O27       1.0  0.24900  0.37600  0.90900  1.0000
  O   O28       1.0  0.84700  0.18200  0.92700  1.0000
  P   P1        1.0  0.25300  0.36100  0.06140  1.0000
  P   P2        1.0  0.17700  0.73100  0.19800  1.0000
  P   P3        1.0  0.73100  0.17700  0.30200  1.0000
  P   P4        1.0  0.36100  0.25300  0.43900  1.0000
  P   P5        1.0  0.63900  0.74700  0.56100  1.0000
  P   P6        1.0  0.26900  0.82300  0.69800  1.0000
  P   P7        1.0  0.82300  0.26900  0.80200  1.0000
  P   P8        1.0  0.74700  0.63900  0.93900  1.0000
