data_image0
_chemical_formula_structural       Ba6O24Si6Zn6
_chemical_formula_sum              "Ba6 O24 Si6 Zn6"
_cell_length_a       9.10428
_cell_length_b       9.1043
_cell_length_c       8.66564
_cell_angle_alpha    90
_cell_angle_beta     90
_cell_angle_gamma    120

_space_group_name_H-M_alt    "P 1"
_space_group_IT_number       1

loop_
  _space_group_symop_operation_xyz
  'x, y, z'

loop_
  _atom_site_type_symbol
  _atom_site_label
  _atom_site_symmetry_multiplicity
  _atom_site_fract_x
  _atom_site_fract_y
  _atom_site_fract_z
  _atom_site_occupancy
  Ba  Ba1       1.0  0.66700  0.33300  0.22000  1.0000
  Ba  Ba2       1.0  0.33300  0.66700  0.22200  1.0000
  Ba  Ba3       1.0  0.00000  0.00000  0.26100  1.0000
  Ba  Ba4       1.0  0.33300  0.66700  0.72000  1.0000
  Ba  Ba5       1.0  0.66700  0.33300  0.72200  1.0000
  Ba  Ba6       1.0  0.00000  0.00000  0.76100  1.0000
  O   O1        1.0  0.91500  0.14900  0.03160  1.0000
  O   O2        1.0  0.23400  0.08480  0.03160  1.0000
  O   O3        1.0  0.85100  0.76600  0.03160  1.0000
  O   O4        1.0  0.27100  0.34700  0.25600  1.0000
  O   O5        1.0  0.07550  0.72900  0.25600  1.0000
  O   O6        1.0  0.65300  0.92500  0.25600  1.0000
  O   O7        1.0  0.80500  0.56600  0.44700  1.0000
  O   O8        1.0  0.76000  0.19500  0.44700  1.0000
  O   O9        1.0  0.43400  0.24000  0.44700  1.0000
  O   O10       1.0  0.46200  0.90400  0.49400  1.0000
  O   O11       1.0  0.44100  0.53800  0.49400  1.0000
  O   O12       1.0  0.09630  0.55900  0.49400  1.0000
  O   O13       1.0  0.08480  0.85100  0.53200  1.0000
  O   O14       1.0  0.76600  0.91500  0.53200  1.0000
  O   O15       1.0  0.14900  0.23400  0.53200  1.0000
  O   O16       1.0  0.72900  0.65300  0.75600  1.0000
  O   O17       1.0  0.92500  0.27100  0.75600  1.0000
  O   O18       1.0  0.34700  0.07550  0.75600  1.0000
  O   O19       1.0  0.19500  0.43400  0.94700  1.0000
  O   O20       1.0  0.24000  0.80500  0.94700  1.0000
  O   O21       1.0  0.56600  0.76000  0.94700  1.0000
  O   O22       1.0  0.53800  0.09630  0.99400  1.0000
  O   O23       1.0  0.55900  0.46200  0.99400  1.0000
  O   O24       1.0  0.90400  0.44100  0.99400  1.0000
  Si  Si1       1.0  0.32700  0.34100  0.43500  1.0000
  Si  Si2       1.0  0.65900  0.98700  0.43500  1.0000
  Si  Si3       1.0  0.01320  0.67300  0.43500  1.0000
  Si  Si4       1.0  0.67300  0.65900  0.93500  1.0000
  Si  Si5       1.0  0.34100  0.01320  0.93500  1.0000
  Si  Si6       1.0  0.98700  0.32700  0.93500  1.0000
  Zn  Zn1       1.0  0.67300  0.98800  0.03530  1.0000
  Zn  Zn2       1.0  0.31600  0.32700  0.03530  1.0000
  Zn  Zn3       1.0  0.01180  0.68400  0.03530  1.0000
  Zn  Zn4       1.0  0.32700  0.01180  0.53500  1.0000
  Zn  Zn5       1.0  0.68400  0.67300  0.53500  1.0000
  Zn  Zn6       1.0  0.98800  0.31600  0.53500  1.0000
