data_image0
_chemical_formula_structural       Ba16N14Ni12
_chemical_formula_sum              "Ba16 N14 Ni12"
_cell_length_a       9.53846
_cell_length_b       9.60666
_cell_length_c       12.0939
_cell_angle_alpha    98.3914
_cell_angle_beta     107.095
_cell_angle_gamma    60.2346

_space_group_name_H-M_alt    "P 1"
_space_group_IT_number       1

loop_
  _space_group_symop_operation_xyz
  'x, y, z'

loop_
  _atom_site_type_symbol
  _atom_site_label
  _atom_site_symmetry_multiplicity
  _atom_site_fract_x
  _atom_site_fract_y
  _atom_site_fract_z
  _atom_site_occupancy
  Ba  Ba1       1.0  0.11500  0.18000  0.09830  1.0000
  Ba  Ba2       1.0  0.36300  0.40500  0.10300  1.0000
  Ba  Ba3       1.0  0.61800  0.93600  0.14300  1.0000
  Ba  Ba4       1.0  0.08250  0.83500  0.25000  1.0000
  Ba  Ba5       1.0  0.75200  0.49500  0.25000  1.0000
  Ba  Ba6       1.0  0.44600  0.93600  0.35700  1.0000
  Ba  Ba7       1.0  0.23200  0.40500  0.39700  1.0000
  Ba  Ba8       1.0  0.70400  0.18000  0.40200  1.0000
  Ba  Ba9       1.0  0.29600  0.82000  0.59800  1.0000
  Ba  Ba10      1.0  0.76800  0.59500  0.60300  1.0000
  Ba  Ba11      1.0  0.55400  0.06450  0.64300  1.0000
  Ba  Ba12      1.0  0.24800  0.50500  0.75000  1.0000
  Ba  Ba13      1.0  0.91700  0.16500  0.75000  1.0000
  Ba  Ba14      1.0  0.38200  0.06450  0.85700  1.0000
  Ba  Ba15      1.0  0.63700  0.59500  0.89700  1.0000
  Ba  Ba16      1.0  0.88500  0.82000  0.90200  1.0000
  N   N1        1.0  0.00000  0.50000  0.00000  1.0000
  N   N2        1.0  0.63700  0.11400  0.00017  1.0000
  N   N3        1.0  0.40700  0.66200  0.22800  1.0000
  N   N4        1.0  0.40600  0.18800  0.25000  1.0000
  N   N5        1.0  0.91500  0.17000  0.25000  1.0000
  N   N6        1.0  0.93100  0.66200  0.27200  1.0000
  N   N7        1.0  0.24900  0.11400  0.50000  1.0000
  N   N8        1.0  0.50000  0.50000  0.50000  1.0000
  N   N9        1.0  0.75100  0.88600  0.50000  1.0000
  N   N10       1.0  0.06880  0.33800  0.72800  1.0000
  N   N11       1.0  0.08520  0.83000  0.75000  1.0000
  N   N12       1.0  0.59400  0.81200  0.75000  1.0000
  N   N13       1.0  0.59300  0.33800  0.77200  1.0000
  N   N14       1.0  0.36300  0.88600  0.00000  1.0000
  Ni  Ni1       1.0  0.36500  0.76300  0.09990  1.0000
  Ni  Ni2       1.0  0.78200  0.15900  0.11400  1.0000
  Ni  Ni3       1.0  0.95900  0.58400  0.13300  1.0000
  Ni  Ni4       1.0  0.45700  0.58400  0.36700  1.0000
  Ni  Ni5       1.0  0.05970  0.15900  0.38600  1.0000
  Ni  Ni6       1.0  0.87200  0.76300  0.40000  1.0000
  Ni  Ni7       1.0  0.12800  0.23700  0.60000  1.0000
  Ni  Ni8       1.0  0.94000  0.84100  0.61400  1.0000
  Ni  Ni9       1.0  0.54300  0.41600  0.63300  1.0000
  Ni  Ni10      1.0  0.04100  0.41600  0.86700  1.0000
  Ni  Ni11      1.0  0.21800  0.84100  0.88600  1.0000
  Ni  Ni12      1.0  0.63500  0.23700  0.90000  1.0000
