data_image0
_chemical_formula_structural       Pb3Sc2Zn2
_chemical_formula_sum              "Pb3 Sc2 Zn2"
_cell_length_a       9.10094
_cell_length_b       9.10094
_cell_length_c       9.10094
_cell_angle_alpha    30.4902
_cell_angle_beta     30.4902
_cell_angle_gamma    30.4902

_space_group_name_H-M_alt    "P 1"
_space_group_IT_number       1

loop_
  _space_group_symop_operation_xyz
  'x, y, z'

loop_
  _atom_site_type_symbol
  _atom_site_label
  _atom_site_symmetry_multiplicity
  _atom_site_fract_x
  _atom_site_fract_y
  _atom_site_fract_z
  _atom_site_occupancy
  Pb  Pb1       1.0  0.36000  0.36000  0.36000  1.0000
  Pb  Pb2       1.0  0.62200  0.62200  0.62200  1.0000
  Pb  Pb3       1.0  0.89000  0.89000  0.89000  1.0000
  Sc  Sc1       1.0  0.18500  0.18500  0.18500  1.0000
  Sc  Sc2       1.0  0.76600  0.76600  0.76600  1.0000
  Zn  Zn1       1.0  0.07530  0.07530  0.07530  1.0000
  Zn  Zn2       1.0  0.47700  0.47700  0.47700  1.0000
