data_image0
_chemical_formula_structural       Cr6O28P8
_chemical_formula_sum              "Cr6 O28 P8"
_cell_length_a       4.70803
_cell_length_b       12.7317
_cell_length_c       7.78684
_cell_angle_alpha    89.8381
_cell_angle_beta     91.7678
_cell_angle_gamma    90.2546

_space_group_name_H-M_alt    "P 1"
_space_group_IT_number       1

loop_
  _space_group_symop_operation_xyz
  'x, y, z'

loop_
  _atom_site_type_symbol
  _atom_site_label
  _atom_site_symmetry_multiplicity
  _atom_site_fract_x
  _atom_site_fract_y
  _atom_site_fract_z
  _atom_site_occupancy
  Cr  Cr1       1.0  0.00000  0.50000  0.00000  1.0000
  Cr  Cr2       1.0  0.76400  0.27000  0.01010  1.0000
  Cr  Cr3       1.0  0.28600  0.76500  0.49000  1.0000
  Cr  Cr4       1.0  0.50000  0.00000  0.50000  1.0000
  Cr  Cr5       1.0  0.71400  0.23500  0.51000  1.0000
  Cr  Cr6       1.0  0.23600  0.73000  0.99000  1.0000
  O   O1        1.0  0.33200  0.58200  0.08420  1.0000
  O   O2        1.0  0.59600  0.79100  0.09510  1.0000
  O   O3        1.0  0.11000  0.36200  0.10800  1.0000
  O   O4        1.0  0.94700  0.14500  0.11300  1.0000
  O   O5        1.0  0.81500  0.96100  0.17000  1.0000
  O   O6        1.0  0.80700  0.53300  0.21700  1.0000
  O   O7        1.0  0.05400  0.79200  0.27300  1.0000
  O   O8        1.0  0.28500  0.03060  0.28700  1.0000
  O   O9        1.0  0.49200  0.27400  0.29100  1.0000
  O   O10       1.0  0.35000  0.46400  0.34400  1.0000
  O   O11       1.0  0.48000  0.65100  0.37800  1.0000
  O   O12       1.0  0.60400  0.85900  0.40600  1.0000
  O   O13       1.0  0.82200  0.09030  0.41500  1.0000
  O   O14       1.0  0.01840  0.32200  0.42300  1.0000
  O   O15       1.0  0.98200  0.67800  0.57700  1.0000
  O   O16       1.0  0.17800  0.91000  0.58500  1.0000
  O   O17       1.0  0.39600  0.14100  0.59400  1.0000
  O   O18       1.0  0.52000  0.34900  0.62200  1.0000
  O   O19       1.0  0.65000  0.53600  0.65600  1.0000
  O   O20       1.0  0.50800  0.72600  0.70900  1.0000
  O   O21       1.0  0.71500  0.96900  0.71300  1.0000
  O   O22       1.0  0.94600  0.20800  0.72700  1.0000
  O   O23       1.0  0.19300  0.46700  0.78300  1.0000
  O   O24       1.0  0.18500  0.03850  0.83000  1.0000
  O   O25       1.0  0.05340  0.85500  0.88700  1.0000
  O   O26       1.0  0.89000  0.63800  0.89200  1.0000
  O   O27       1.0  0.40400  0.20900  0.90500  1.0000
  O   O28       1.0  0.66800  0.41800  0.91600  1.0000
  P   P1        1.0  0.76600  0.84300  0.23400  1.0000
  P   P2        1.0  0.98100  0.06170  0.24500  1.0000
  P   P3        1.0  0.50400  0.56100  0.25500  1.0000
  P   P4        1.0  0.23800  0.34900  0.29400  1.0000
  P   P5        1.0  0.76200  0.65100  0.70600  1.0000
  P   P6        1.0  0.49600  0.43900  0.74500  1.0000
  P   P7        1.0  0.01880  0.93800  0.75500  1.0000
  P   P8        1.0  0.23400  0.15700  0.76600  1.0000
