data_image0
_chemical_formula_structural       Al2Hg2Pb3
_chemical_formula_sum              "Al2 Hg2 Pb3"
_cell_length_a       8.75154
_cell_length_b       8.75154
_cell_length_c       8.75154
_cell_angle_alpha    33.9573
_cell_angle_beta     33.9573
_cell_angle_gamma    33.9573

_space_group_name_H-M_alt    "P 1"
_space_group_IT_number       1

loop_
  _space_group_symop_operation_xyz
  'x, y, z'

loop_
  _atom_site_type_symbol
  _atom_site_label
  _atom_site_symmetry_multiplicity
  _atom_site_fract_x
  _atom_site_fract_y
  _atom_site_fract_z
  _atom_site_occupancy
  Al  Al1       1.0  0.22700  0.22700  0.22700  1.0000
  Al  Al2       1.0  0.74300  0.74300  0.74300  1.0000
  Hg  Hg1       1.0  0.08860  0.08860  0.08860  1.0000
  Hg  Hg2       1.0  0.48000  0.48000  0.48000  1.0000
  Pb  Pb1       1.0  0.35100  0.35100  0.35100  1.0000
  Pb  Pb2       1.0  0.61800  0.61800  0.61800  1.0000
  Pb  Pb3       1.0  0.86700  0.86700  0.86700  1.0000
