data_image0
_chemical_formula_structural       Cu2Ti3Zr2
_chemical_formula_sum              "Cu2 Ti3 Zr2"
_cell_length_a       7.1562
_cell_length_b       7.1562
_cell_length_c       7.1562
_cell_angle_alpha    37.2524
_cell_angle_beta     37.2524
_cell_angle_gamma    37.2524

_space_group_name_H-M_alt    "P 1"
_space_group_IT_number       1

loop_
  _space_group_symop_operation_xyz
  'x, y, z'

loop_
  _atom_site_type_symbol
  _atom_site_label
  _atom_site_symmetry_multiplicity
  _atom_site_fract_x
  _atom_site_fract_y
  _atom_site_fract_z
  _atom_site_occupancy
  Cu  Cu1       1.0  0.04930  0.04930  0.04930  1.0000
  Cu  Cu2       1.0  0.48400  0.48400  0.48400  1.0000
  Ti  Ti1       1.0  0.34100  0.34100  0.34100  1.0000
  Ti  Ti2       1.0  0.61600  0.61600  0.61600  1.0000
  Ti  Ti3       1.0  0.92700  0.92700  0.92700  1.0000
  Zr  Zr1       1.0  0.19500  0.19500  0.19500  1.0000
  Zr  Zr2       1.0  0.76300  0.76300  0.76300  1.0000
