data_image0
_chemical_formula_structural       Cd2Pb3Tl2
_chemical_formula_sum              "Cd2 Pb3 Tl2"
_cell_length_a       8.54356
_cell_length_b       8.54356
_cell_length_c       8.54356
_cell_angle_alpha    37.2232
_cell_angle_beta     37.2232
_cell_angle_gamma    37.2232

_space_group_name_H-M_alt    "P 1"
_space_group_IT_number       1

loop_
  _space_group_symop_operation_xyz
  'x, y, z'

loop_
  _atom_site_type_symbol
  _atom_site_label
  _atom_site_symmetry_multiplicity
  _atom_site_fract_x
  _atom_site_fract_y
  _atom_site_fract_z
  _atom_site_occupancy
  Cd  Cd1       1.0  0.05070  0.05070  0.05070  1.0000
  Cd  Cd2       1.0  0.48500  0.48500  0.48500  1.0000
  Pb  Pb1       1.0  0.34900  0.34900  0.34900  1.0000
  Pb  Pb2       1.0  0.62300  0.62300  0.62300  1.0000
  Pb  Pb3       1.0  0.91100  0.91100  0.91100  1.0000
  Tl  Tl1       1.0  0.18900  0.18900  0.18900  1.0000
  Tl  Tl2       1.0  0.76700  0.76700  0.76700  1.0000
