data_image0
_chemical_formula_structural       Hg2Pb3Tl2
_chemical_formula_sum              "Hg2 Pb3 Tl2"
_cell_length_a       8.63662
_cell_length_b       8.63662
_cell_length_c       8.63662
_cell_angle_alpha    36.9155
_cell_angle_beta     36.9155
_cell_angle_gamma    36.9155

_space_group_name_H-M_alt    "P 1"
_space_group_IT_number       1

loop_
  _space_group_symop_operation_xyz
  'x, y, z'

loop_
  _atom_site_type_symbol
  _atom_site_label
  _atom_site_symmetry_multiplicity
  _atom_site_fract_x
  _atom_site_fract_y
  _atom_site_fract_z
  _atom_site_occupancy
  Hg  Hg1       1.0  0.05140  0.05140  0.05140  1.0000
  Hg  Hg2       1.0  0.48400  0.48400  0.48400  1.0000
  Pb  Pb1       1.0  0.34600  0.34600  0.34600  1.0000
  Pb  Pb2       1.0  0.62300  0.62300  0.62300  1.0000
  Pb  Pb3       1.0  0.91200  0.91200  0.91200  1.0000
  Tl  Tl1       1.0  0.19200  0.19200  0.19200  1.0000
  Tl  Tl2       1.0  0.76700  0.76700  0.76700  1.0000
