data_image0
_chemical_formula_structural       Ag2Si2Ti3
_chemical_formula_sum              "Ag2 Si2 Ti3"
_cell_length_a       7.33945
_cell_length_b       7.33945
_cell_length_c       7.33945
_cell_angle_alpha    34.8754
_cell_angle_beta     34.8754
_cell_angle_gamma    34.8754

_space_group_name_H-M_alt    "P 1"
_space_group_IT_number       1

loop_
  _space_group_symop_operation_xyz
  'x, y, z'

loop_
  _atom_site_type_symbol
  _atom_site_label
  _atom_site_symmetry_multiplicity
  _atom_site_fract_x
  _atom_site_fract_y
  _atom_site_fract_z
  _atom_site_occupancy
  Ag  Ag1       1.0  0.04480  0.04480  0.04480  1.0000
  Ag  Ag2       1.0  0.48400  0.48400  0.48400  1.0000
  Si  Si1       1.0  0.22900  0.22900  0.22900  1.0000
  Si  Si2       1.0  0.75400  0.75400  0.75400  1.0000
  Ti  Ti1       1.0  0.34900  0.34900  0.34900  1.0000
  Ti  Ti2       1.0  0.62100  0.62100  0.62100  1.0000
  Ti  Ti3       1.0  0.89200  0.89200  0.89200  1.0000
