data_image0
_chemical_formula_structural       Hg2Sn3Tl2
_chemical_formula_sum              "Hg2 Sn3 Tl2"
_cell_length_a       8.56861
_cell_length_b       8.56861
_cell_length_c       8.56861
_cell_angle_alpha    36.2194
_cell_angle_beta     36.2194
_cell_angle_gamma    36.2194

_space_group_name_H-M_alt    "P 1"
_space_group_IT_number       1

loop_
  _space_group_symop_operation_xyz
  'x, y, z'

loop_
  _atom_site_type_symbol
  _atom_site_label
  _atom_site_symmetry_multiplicity
  _atom_site_fract_x
  _atom_site_fract_y
  _atom_site_fract_z
  _atom_site_occupancy
  Hg  Hg1       1.0  0.04980  0.04980  0.04980  1.0000
  Hg  Hg2       1.0  0.48200  0.48200  0.48200  1.0000
  Sn  Sn1       1.0  0.34200  0.34200  0.34200  1.0000
  Sn  Sn2       1.0  0.62200  0.62200  0.62200  1.0000
  Sn  Sn3       1.0  0.91600  0.91600  0.91600  1.0000
  Tl  Tl1       1.0  0.19600  0.19600  0.19600  1.0000
  Tl  Tl2       1.0  0.76600  0.76600  0.76600  1.0000
