data_image0
_chemical_formula_structural       Ag2Hf2Ti3
_chemical_formula_sum              "Ag2 Hf2 Ti3"
_cell_length_a       7.37148
_cell_length_b       7.37148
_cell_length_c       7.37148
_cell_angle_alpha    36.9782
_cell_angle_beta     36.9782
_cell_angle_gamma    36.9782

_space_group_name_H-M_alt    "P 1"
_space_group_IT_number       1

loop_
  _space_group_symop_operation_xyz
  'x, y, z'

loop_
  _atom_site_type_symbol
  _atom_site_label
  _atom_site_symmetry_multiplicity
  _atom_site_fract_x
  _atom_site_fract_y
  _atom_site_fract_z
  _atom_site_occupancy
  Ag  Ag1       1.0  0.05140  0.05140  0.05140  1.0000
  Ag  Ag2       1.0  0.48300  0.48300  0.48300  1.0000
  Hf  Hf1       1.0  0.19900  0.19900  0.19900  1.0000
  Hf  Hf2       1.0  0.76500  0.76500  0.76500  1.0000
  Ti  Ti1       1.0  0.33600  0.33600  0.33600  1.0000
  Ti  Ti2       1.0  0.61800  0.61800  0.61800  1.0000
  Ti  Ti3       1.0  0.92300  0.92300  0.92300  1.0000
