data_image0
_chemical_formula_structural       Fe24P12Th6
_chemical_formula_sum              "Fe24 P12 Th6"
_cell_length_a       14.2294
_cell_length_b       10.6812
_cell_length_c       3.70185
_cell_angle_alpha    90
_cell_angle_beta     90
_cell_angle_gamma    90

_space_group_name_H-M_alt    "P 1"
_space_group_IT_number       1

loop_
  _space_group_symop_operation_xyz
  'x, y, z'

loop_
  _atom_site_type_symbol
  _atom_site_label
  _atom_site_symmetry_multiplicity
  _atom_site_fract_x
  _atom_site_fract_y
  _atom_site_fract_z
  _atom_site_occupancy
  Fe  Fe1       1.0  0.44600  0.07750  0.00000  1.0000
  Fe  Fe2       1.0  0.28900  0.17800  0.00000  1.0000
  Fe  Fe3       1.0  0.53700  0.26000  0.00000  1.0000
  Fe  Fe4       1.0  0.92100  0.26600  0.00000  1.0000
  Fe  Fe5       1.0  0.05170  0.40900  0.00000  1.0000
  Fe  Fe6       1.0  0.67500  0.43200  0.00000  1.0000
  Fe  Fe7       1.0  0.32500  0.56800  0.00000  1.0000
  Fe  Fe8       1.0  0.94800  0.59100  0.00000  1.0000
  Fe  Fe9       1.0  0.07850  0.73400  0.00000  1.0000
  Fe  Fe10      1.0  0.46300  0.74000  0.00000  1.0000
  Fe  Fe11      1.0  0.71100  0.82200  0.00000  1.0000
  Fe  Fe12      1.0  0.55400  0.92300  0.00000  1.0000
  Fe  Fe13      1.0  0.17500  0.06790  0.50000  1.0000
  Fe  Fe14      1.0  0.55200  0.09130  0.50000  1.0000
  Fe  Fe15      1.0  0.42100  0.23400  0.50000  1.0000
  Fe  Fe16      1.0  0.03700  0.24000  0.50000  1.0000
  Fe  Fe17      1.0  0.78900  0.32200  0.50000  1.0000
  Fe  Fe18      1.0  0.94600  0.42300  0.50000  1.0000
  Fe  Fe19      1.0  0.05420  0.57700  0.50000  1.0000
  Fe  Fe20      1.0  0.21100  0.67800  0.50000  1.0000
  Fe  Fe21      1.0  0.96300  0.76000  0.50000  1.0000
  Fe  Fe22      1.0  0.57900  0.76600  0.50000  1.0000
  Fe  Fe23      1.0  0.44800  0.90900  0.50000  1.0000
  Fe  Fe24      1.0  0.82500  0.93200  0.50000  1.0000
  P   P1        1.0  0.13200  0.20300  0.00000  1.0000
  P   P2        1.0  0.38600  0.35000  0.00000  1.0000
  P   P3        1.0  0.83400  0.42900  0.00000  1.0000
  P   P4        1.0  0.16600  0.57100  0.00000  1.0000
  P   P5        1.0  0.61400  0.65000  0.00000  1.0000
  P   P6        1.0  0.86800  0.79700  0.00000  1.0000
  P   P7        1.0  0.33400  0.07080  0.50000  1.0000
  P   P8        1.0  0.88600  0.15000  0.50000  1.0000
  P   P9        1.0  0.63200  0.29700  0.50000  1.0000
  P   P10       1.0  0.36800  0.70300  0.50000  1.0000
  P   P11       1.0  0.11400  0.85000  0.50000  1.0000
  P   P12       1.0  0.66600  0.92900  0.50000  1.0000
  Th  Th1       1.0  0.00000  0.00000  0.00000  1.0000
  Th  Th2       1.0  0.72600  0.12300  0.00000  1.0000
  Th  Th3       1.0  0.27400  0.87700  0.00000  1.0000
  Th  Th4       1.0  0.22600  0.37700  0.50000  1.0000
  Th  Th5       1.0  0.50000  0.50000  0.50000  1.0000
  Th  Th6       1.0  0.77400  0.62300  0.50000  1.0000
