data_image0
_chemical_formula_structural       B2Cd2Pb3
_chemical_formula_sum              "B2 Cd2 Pb3"
_cell_length_a       11.0539
_cell_length_b       11.0539
_cell_length_c       11.0539
_cell_angle_alpha    21.2749
_cell_angle_beta     21.2749
_cell_angle_gamma    21.2749

_space_group_name_H-M_alt    "P 1"
_space_group_IT_number       1

loop_
  _space_group_symop_operation_xyz
  'x, y, z'

loop_
  _atom_site_type_symbol
  _atom_site_label
  _atom_site_symmetry_multiplicity
  _atom_site_fract_x
  _atom_site_fract_y
  _atom_site_fract_z
  _atom_site_occupancy
  B   B1        1.0  0.00779  0.00779  0.00779  1.0000
  B   B2        1.0  0.47500  0.47500  0.47500  1.0000
  Cd  Cd1       1.0  0.17300  0.17300  0.17300  1.0000
  Cd  Cd2       1.0  0.78700  0.78700  0.78700  1.0000
  Pb  Pb1       1.0  0.38600  0.38600  0.38600  1.0000
  Pb  Pb2       1.0  0.64300  0.64300  0.64300  1.0000
  Pb  Pb3       1.0  0.90200  0.90200  0.90200  1.0000
