data_image0
_chemical_formula_structural       Al2Hg2Sn3
_chemical_formula_sum              "Al2 Hg2 Sn3"
_cell_length_a       9.14093
_cell_length_b       9.14093
_cell_length_c       9.14093
_cell_angle_alpha    30.7459
_cell_angle_beta     30.7459
_cell_angle_gamma    30.7459

_space_group_name_H-M_alt    "P 1"
_space_group_IT_number       1

loop_
  _space_group_symop_operation_xyz
  'x, y, z'

loop_
  _atom_site_type_symbol
  _atom_site_label
  _atom_site_symmetry_multiplicity
  _atom_site_fract_x
  _atom_site_fract_y
  _atom_site_fract_z
  _atom_site_occupancy
  Al  Al1       1.0  0.23300  0.23300  0.23300  1.0000
  Al  Al2       1.0  0.74900  0.74900  0.74900  1.0000
  Hg  Hg1       1.0  0.07220  0.07220  0.07220  1.0000
  Hg  Hg2       1.0  0.48000  0.48000  0.48000  1.0000
  Sn  Sn1       1.0  0.34800  0.34800  0.34800  1.0000
  Sn  Sn2       1.0  0.62400  0.62400  0.62400  1.0000
  Sn  Sn3       1.0  0.87000  0.87000  0.87000  1.0000
