data_image0
_chemical_formula_structural       Au2Hf3Ti2
_chemical_formula_sum              "Au2 Hf3 Ti2"
_cell_length_a       7.29303
_cell_length_b       7.29303
_cell_length_c       7.29303
_cell_angle_alpha    38.0175
_cell_angle_beta     38.0175
_cell_angle_gamma    38.0175

_space_group_name_H-M_alt    "P 1"
_space_group_IT_number       1

loop_
  _space_group_symop_operation_xyz
  'x, y, z'

loop_
  _atom_site_type_symbol
  _atom_site_label
  _atom_site_symmetry_multiplicity
  _atom_site_fract_x
  _atom_site_fract_y
  _atom_site_fract_z
  _atom_site_occupancy
  Au  Au1       1.0  0.04920  0.04920  0.04920  1.0000
  Au  Au2       1.0  0.48600  0.48600  0.48600  1.0000
  Hf  Hf1       1.0  0.34400  0.34400  0.34400  1.0000
  Hf  Hf2       1.0  0.62100  0.62100  0.62100  1.0000
  Hf  Hf3       1.0  0.91000  0.91000  0.91000  1.0000
  Ti  Ti1       1.0  0.19400  0.19400  0.19400  1.0000
  Ti  Ti2       1.0  0.77100  0.77100  0.77100  1.0000
