data_image0
_chemical_formula_structural       Au2Zr5
_chemical_formula_sum              "Au2 Zr5"
_cell_length_a       7.61072
_cell_length_b       7.61072
_cell_length_c       7.61072
_cell_angle_alpha    37.4917
_cell_angle_beta     37.4917
_cell_angle_gamma    37.4917

_space_group_name_H-M_alt    "P 1"
_space_group_IT_number       1

loop_
  _space_group_symop_operation_xyz
  'x, y, z'

loop_
  _atom_site_type_symbol
  _atom_site_label
  _atom_site_symmetry_multiplicity
  _atom_site_fract_x
  _atom_site_fract_y
  _atom_site_fract_z
  _atom_site_occupancy
  Au  Au1       1.0  0.04630  0.04630  0.04630  1.0000
  Au  Au2       1.0  0.48900  0.48900  0.48900  1.0000
  Zr  Zr1       1.0  0.19200  0.19200  0.19200  1.0000
  Zr  Zr2       1.0  0.34400  0.34400  0.34400  1.0000
  Zr  Zr3       1.0  0.62200  0.62200  0.62200  1.0000
  Zr  Zr4       1.0  0.76800  0.76800  0.76800  1.0000
  Zr  Zr5       1.0  0.91300  0.91300  0.91300  1.0000
