data_image0
_chemical_formula_structural       Au2Hf2Zr3
_chemical_formula_sum              "Au2 Hf2 Zr3"
_cell_length_a       7.62115
_cell_length_b       7.62115
_cell_length_c       7.62115
_cell_angle_alpha    37.0792
_cell_angle_beta     37.0792
_cell_angle_gamma    37.0792

_space_group_name_H-M_alt    "P 1"
_space_group_IT_number       1

loop_
  _space_group_symop_operation_xyz
  'x, y, z'

loop_
  _atom_site_type_symbol
  _atom_site_label
  _atom_site_symmetry_multiplicity
  _atom_site_fract_x
  _atom_site_fract_y
  _atom_site_fract_z
  _atom_site_occupancy
  Au  Au1       1.0  0.04790  0.04790  0.04790  1.0000
  Au  Au2       1.0  0.48900  0.48900  0.48900  1.0000
  Hf  Hf1       1.0  0.19100  0.19100  0.19100  1.0000
  Hf  Hf2       1.0  0.76800  0.76800  0.76800  1.0000
  Zr  Zr1       1.0  0.34300  0.34300  0.34300  1.0000
  Zr  Zr2       1.0  0.62300  0.62300  0.62300  1.0000
  Zr  Zr3       1.0  0.91300  0.91300  0.91300  1.0000
