data_image0
_chemical_formula_structural       Cu2Ti2Zr3
_chemical_formula_sum              "Cu2 Ti2 Zr3"
_cell_length_a       7.3974
_cell_length_b       7.3974
_cell_length_c       7.3974
_cell_angle_alpha    36.0245
_cell_angle_beta     36.0245
_cell_angle_gamma    36.0245

_space_group_name_H-M_alt    "P 1"
_space_group_IT_number       1

loop_
  _space_group_symop_operation_xyz
  'x, y, z'

loop_
  _atom_site_type_symbol
  _atom_site_label
  _atom_site_symmetry_multiplicity
  _atom_site_fract_x
  _atom_site_fract_y
  _atom_site_fract_z
  _atom_site_occupancy
  Cu  Cu1       1.0  0.04210  0.04210  0.04210  1.0000
  Cu  Cu2       1.0  0.49500  0.49500  0.49500  1.0000
  Ti  Ti1       1.0  0.17600  0.17600  0.17600  1.0000
  Ti  Ti2       1.0  0.77300  0.77300  0.77300  1.0000
  Zr  Zr1       1.0  0.36100  0.36100  0.36100  1.0000
  Zr  Zr2       1.0  0.62500  0.62500  0.62500  1.0000
  Zr  Zr3       1.0  0.90200  0.90200  0.90200  1.0000
