data_image0
_chemical_formula_structural       Cu2Si5
_chemical_formula_sum              "Cu2 Si5"
_cell_length_a       8.25802
_cell_length_b       8.25802
_cell_length_c       8.25802
_cell_angle_alpha    26.9674
_cell_angle_beta     26.9674
_cell_angle_gamma    26.9674

_space_group_name_H-M_alt    "P 1"
_space_group_IT_number       1

loop_
  _space_group_symop_operation_xyz
  'x, y, z'

loop_
  _atom_site_type_symbol
  _atom_site_label
  _atom_site_symmetry_multiplicity
  _atom_site_fract_x
  _atom_site_fract_y
  _atom_site_fract_z
  _atom_site_occupancy
  Cu  Cu1       1.0  0.00804  0.00804  0.00804  1.0000
  Cu  Cu2       1.0  0.48300  0.48300  0.48300  1.0000
  Si  Si1       1.0  0.24000  0.24000  0.24000  1.0000
  Si  Si2       1.0  0.38300  0.38300  0.38300  1.0000
  Si  Si3       1.0  0.63000  0.63000  0.63000  1.0000
  Si  Si4       1.0  0.76600  0.76600  0.76600  1.0000
  Si  Si5       1.0  0.86500  0.86500  0.86500  1.0000
