data_image0
_chemical_formula_structural       Au2Hf3Pb2
_chemical_formula_sum              "Au2 Hf3 Pb2"
_cell_length_a       8.40255
_cell_length_b       8.40255
_cell_length_c       8.40255
_cell_angle_alpha    33.5334
_cell_angle_beta     33.5334
_cell_angle_gamma    33.5334

_space_group_name_H-M_alt    "P 1"
_space_group_IT_number       1

loop_
  _space_group_symop_operation_xyz
  'x, y, z'

loop_
  _atom_site_type_symbol
  _atom_site_label
  _atom_site_symmetry_multiplicity
  _atom_site_fract_x
  _atom_site_fract_y
  _atom_site_fract_z
  _atom_site_occupancy
  Au  Au1       1.0  0.00699  0.00699  0.00699  1.0000
  Au  Au2       1.0  0.49400  0.49400  0.49400  1.0000
  Hf  Hf1       1.0  0.37300  0.37300  0.37300  1.0000
  Hf  Hf2       1.0  0.62700  0.62700  0.62700  1.0000
  Hf  Hf3       1.0  0.87600  0.87600  0.87600  1.0000
  Pb  Pb1       1.0  0.24200  0.24200  0.24200  1.0000
  Pb  Pb2       1.0  0.75500  0.75500  0.75500  1.0000
