data_image0
_chemical_formula_structural       Ag2Ge2Hf3
_chemical_formula_sum              "Ag2 Ge2 Hf3"
_cell_length_a       8.13376
_cell_length_b       8.13376
_cell_length_c       8.13376
_cell_angle_alpha    33.1978
_cell_angle_beta     33.1978
_cell_angle_gamma    33.1978

_space_group_name_H-M_alt    "P 1"
_space_group_IT_number       1

loop_
  _space_group_symop_operation_xyz
  'x, y, z'

loop_
  _atom_site_type_symbol
  _atom_site_label
  _atom_site_symmetry_multiplicity
  _atom_site_fract_x
  _atom_site_fract_y
  _atom_site_fract_z
  _atom_site_occupancy
  Ag  Ag1       1.0  0.24000  0.24000  0.24000  1.0000
  Ag  Ag2       1.0  0.75600  0.75600  0.75600  1.0000
  Ge  Ge1       1.0  0.00107  0.00107  0.00107  1.0000
  Ge  Ge2       1.0  0.49900  0.49900  0.49900  1.0000
  Hf  Hf1       1.0  0.37800  0.37800  0.37800  1.0000
  Hf  Hf2       1.0  0.62600  0.62600  0.62600  1.0000
  Hf  Hf3       1.0  0.87400  0.87400  0.87400  1.0000
