data_image0
_chemical_formula_structural       Ag2Ti2Zr3
_chemical_formula_sum              "Ag2 Ti2 Zr3"
_cell_length_a       7.37775
_cell_length_b       7.37775
_cell_length_c       7.37775
_cell_angle_alpha    37.8908
_cell_angle_beta     37.8908
_cell_angle_gamma    37.8908

_space_group_name_H-M_alt    "P 1"
_space_group_IT_number       1

loop_
  _space_group_symop_operation_xyz
  'x, y, z'

loop_
  _atom_site_type_symbol
  _atom_site_label
  _atom_site_symmetry_multiplicity
  _atom_site_fract_x
  _atom_site_fract_y
  _atom_site_fract_z
  _atom_site_occupancy
  Ag  Ag1       1.0  0.05430  0.05430  0.05430  1.0000
  Ag  Ag2       1.0  0.48400  0.48400  0.48400  1.0000
  Ti  Ti1       1.0  0.19400  0.19400  0.19400  1.0000
  Ti  Ti2       1.0  0.77100  0.77100  0.77100  1.0000
  Zr  Zr1       1.0  0.34200  0.34200  0.34200  1.0000
  Zr  Zr2       1.0  0.62200  0.62200  0.62200  1.0000
  Zr  Zr3       1.0  0.90800  0.90800  0.90800  1.0000
