data_image0
_chemical_formula_structural       Cd2In2Pb3
_chemical_formula_sum              "Cd2 In2 Pb3"
_cell_length_a       9.09957
_cell_length_b       9.09957
_cell_length_c       9.09957
_cell_angle_alpha    34.2532
_cell_angle_beta     34.2532
_cell_angle_gamma    34.2532

_space_group_name_H-M_alt    "P 1"
_space_group_IT_number       1

loop_
  _space_group_symop_operation_xyz
  'x, y, z'

loop_
  _atom_site_type_symbol
  _atom_site_label
  _atom_site_symmetry_multiplicity
  _atom_site_fract_x
  _atom_site_fract_y
  _atom_site_fract_z
  _atom_site_occupancy
  Cd  Cd1       1.0  0.24000  0.24000  0.24000  1.0000
  Cd  Cd2       1.0  0.75600  0.75600  0.75600  1.0000
  In  In1       1.0  0.00998  0.00998  0.00998  1.0000
  In  In2       1.0  0.49500  0.49500  0.49500  1.0000
  Pb  Pb1       1.0  0.37300  0.37300  0.37300  1.0000
  Pb  Pb2       1.0  0.62400  0.62400  0.62400  1.0000
  Pb  Pb3       1.0  0.87700  0.87700  0.87700  1.0000
