data_image0
_chemical_formula_structural       Ag2Si3Sn2
_chemical_formula_sum              "Ag2 Si3 Sn2"
_cell_length_a       8.48703
_cell_length_b       8.48703
_cell_length_c       8.48703
_cell_angle_alpha    31.3497
_cell_angle_beta     31.3497
_cell_angle_gamma    31.3497

_space_group_name_H-M_alt    "P 1"
_space_group_IT_number       1

loop_
  _space_group_symop_operation_xyz
  'x, y, z'

loop_
  _atom_site_type_symbol
  _atom_site_label
  _atom_site_symmetry_multiplicity
  _atom_site_fract_x
  _atom_site_fract_y
  _atom_site_fract_z
  _atom_site_occupancy
  Ag  Ag1       1.0  0.24900  0.24900  0.24900  1.0000
  Ag  Ag2       1.0  0.76500  0.76500  0.76500  1.0000
  Si  Si1       1.0  0.37900  0.37900  0.37900  1.0000
  Si  Si2       1.0  0.60000  0.60000  0.60000  1.0000
  Si  Si3       1.0  0.88300  0.88300  0.88300  1.0000
  Sn  Sn1       1.0  0.00977  0.00977  0.00977  1.0000
  Sn  Sn2       1.0  0.48900  0.48900  0.48900  1.0000
