data_image0
_chemical_formula_structural       Al4Ge16Sc22
_chemical_formula_sum              "Al4 Ge16 Sc22"
_cell_length_a       10.4307
_cell_length_b       10.4307
_cell_length_c       10.5188
_cell_angle_alpha    119.723
_cell_angle_beta     119.723
_cell_angle_gamma    90

_space_group_name_H-M_alt    "P 1"
_space_group_IT_number       1

loop_
  _space_group_symop_operation_xyz
  'x, y, z'

loop_
  _atom_site_type_symbol
  _atom_site_label
  _atom_site_symmetry_multiplicity
  _atom_site_fract_x
  _atom_site_fract_y
  _atom_site_fract_z
  _atom_site_occupancy
  Al  Al1       1.0  0.12700  0.12700  0.00000  1.0000
  Al  Al2       1.0  0.87300  0.12700  0.00000  1.0000
  Al  Al3       1.0  0.12700  0.87300  0.00000  1.0000
  Al  Al4       1.0  0.87300  0.87300  0.00000  1.0000
  Ge  Ge1       1.0  0.50000  0.14700  0.00000  1.0000
  Ge  Ge2       1.0  0.14700  0.50000  0.00000  1.0000
  Ge  Ge3       1.0  0.85300  0.50000  0.00000  1.0000
  Ge  Ge4       1.0  0.50000  0.85300  0.00000  1.0000
  Ge  Ge5       1.0  0.61800  0.61800  0.23600  1.0000
  Ge  Ge6       1.0  0.37500  0.37500  0.34100  1.0000
  Ge  Ge7       1.0  0.96700  0.37500  0.34100  1.0000
  Ge  Ge8       1.0  0.37500  0.96700  0.34100  1.0000
  Ge  Ge9       1.0  0.96700  0.96700  0.34100  1.0000
  Ge  Ge10      1.0  0.75000  0.25000  0.50000  1.0000
  Ge  Ge11      1.0  0.25000  0.75000  0.50000  1.0000
  Ge  Ge12      1.0  0.03350  0.03350  0.65900  1.0000
  Ge  Ge13      1.0  0.62500  0.03350  0.65900  1.0000
  Ge  Ge14      1.0  0.03350  0.62500  0.65900  1.0000
  Ge  Ge15      1.0  0.62500  0.62500  0.65900  1.0000
  Ge  Ge16      1.0  0.38200  0.38200  0.76400  1.0000
  Sc  Sc1       1.0  0.32800  0.32800  0.00000  1.0000
  Sc  Sc2       1.0  0.67200  0.32800  0.00000  1.0000
  Sc  Sc3       1.0  0.32800  0.67200  0.00000  1.0000
  Sc  Sc4       1.0  0.67200  0.67200  0.00000  1.0000
  Sc  Sc5       1.0  0.43900  0.10300  0.20500  1.0000
  Sc  Sc6       1.0  0.76700  0.10300  0.20500  1.0000
  Sc  Sc7       1.0  0.10300  0.43900  0.20500  1.0000
  Sc  Sc8       1.0  0.10300  0.76700  0.20500  1.0000
  Sc  Sc9       1.0  0.16900  0.16900  0.33800  1.0000
  Sc  Sc10      1.0  0.69000  0.43800  0.37900  1.0000
  Sc  Sc11      1.0  0.43800  0.69000  0.37900  1.0000
  Sc  Sc12      1.0  0.94100  0.69000  0.37900  1.0000
  Sc  Sc13      1.0  0.69000  0.94100  0.37900  1.0000
  Sc  Sc14      1.0  0.31000  0.05890  0.62100  1.0000
  Sc  Sc15      1.0  0.05890  0.31000  0.62100  1.0000
  Sc  Sc16      1.0  0.56200  0.31000  0.62100  1.0000
  Sc  Sc17      1.0  0.31000  0.56200  0.62100  1.0000
  Sc  Sc18      1.0  0.83100  0.83100  0.66200  1.0000
  Sc  Sc19      1.0  0.89700  0.23300  0.79500  1.0000
  Sc  Sc20      1.0  0.89700  0.56100  0.79500  1.0000
  Sc  Sc21      1.0  0.23300  0.89700  0.79500  1.0000
  Sc  Sc22      1.0  0.56100  0.89700  0.79500  1.0000
