data_image0
_chemical_formula_structural       H4Mn6Na2O24P6
_chemical_formula_sum              "H4 Mn6 Na2 O24 P6"
_cell_length_a       6.63556
_cell_length_b       8.63652
_cell_length_c       8.63652
_cell_angle_alpha    91.2919
_cell_angle_beta     106.923
_cell_angle_gamma    106.923

_space_group_name_H-M_alt    "P 1"
_space_group_IT_number       1

loop_
  _space_group_symop_operation_xyz
  'x, y, z'

loop_
  _atom_site_type_symbol
  _atom_site_label
  _atom_site_symmetry_multiplicity
  _atom_site_fract_x
  _atom_site_fract_y
  _atom_site_fract_z
  _atom_site_occupancy
  H   H1        1.0  0.69100  0.37800  0.37800  1.0000
  H   H2        1.0  0.19100  0.37800  0.37800  1.0000
  H   H3        1.0  0.80900  0.62200  0.62200  1.0000
  H   H4        1.0  0.30900  0.62200  0.62200  1.0000
  Mn  Mn1       1.0  0.62900  0.37100  0.04840  1.0000
  Mn  Mn2       1.0  0.25000  0.71200  0.28800  1.0000
  Mn  Mn3       1.0  0.12900  0.04840  0.37100  1.0000
  Mn  Mn4       1.0  0.87100  0.95200  0.62900  1.0000
  Mn  Mn5       1.0  0.75000  0.28800  0.71200  1.0000
  Mn  Mn6       1.0  0.37100  0.62900  0.95200  1.0000
  Na  Na1       1.0  0.75000  0.97600  0.02350  1.0000
  Na  Na2       1.0  0.25000  0.02350  0.97600  1.0000
  O   O1        1.0  0.10900  0.67800  0.02090  1.0000
  O   O2        1.0  0.30500  0.39100  0.03500  1.0000
  O   O3        1.0  0.09900  0.15000  0.14600  1.0000
  O   O4        1.0  0.59900  0.14600  0.15000  1.0000
  O   O5        1.0  0.54100  0.71400  0.21400  1.0000
  O   O6        1.0  0.15200  0.43800  0.26400  1.0000
  O   O7        1.0  0.95900  0.78600  0.28600  1.0000
  O   O8        1.0  0.73800  0.49700  0.29100  1.0000
  O   O9        1.0  0.39100  0.97900  0.32200  1.0000
  O   O10       1.0  0.80500  0.03500  0.39100  1.0000
  O   O11       1.0  0.65200  0.26400  0.43800  1.0000
  O   O12       1.0  0.23800  0.29100  0.49700  1.0000
  O   O13       1.0  0.76200  0.70900  0.50300  1.0000
  O   O14       1.0  0.34800  0.73600  0.56200  1.0000
  O   O15       1.0  0.19500  0.96500  0.60900  1.0000
  O   O16       1.0  0.60900  0.02090  0.67800  1.0000
  O   O17       1.0  0.26200  0.50300  0.70900  1.0000
  O   O18       1.0  0.04060  0.21400  0.71400  1.0000
  O   O19       1.0  0.84800  0.56200  0.73600  1.0000
  O   O20       1.0  0.45900  0.28600  0.78600  1.0000
  O   O21       1.0  0.40100  0.85400  0.85000  1.0000
  O   O22       1.0  0.90100  0.85000  0.85400  1.0000
  O   O23       1.0  0.69500  0.60900  0.96500  1.0000
  O   O24       1.0  0.89100  0.32200  0.97900  1.0000
  P   P1        1.0  0.11200  0.32300  0.10300  1.0000
  P   P2        1.0  0.75000  0.67800  0.32200  1.0000
  P   P3        1.0  0.61200  0.10300  0.32300  1.0000
  P   P4        1.0  0.38800  0.89700  0.67700  1.0000
  P   P5        1.0  0.25000  0.32200  0.67800  1.0000
  P   P6        1.0  0.88800  0.67700  0.89700  1.0000
