data_image0
_chemical_formula_structural       Au2Hf3Si2
_chemical_formula_sum              "Au2 Hf3 Si2"
_cell_length_a       8.00797
_cell_length_b       8.00797
_cell_length_c       8.00797
_cell_angle_alpha    33.527
_cell_angle_beta     33.527
_cell_angle_gamma    33.527

_space_group_name_H-M_alt    "P 1"
_space_group_IT_number       1

loop_
  _space_group_symop_operation_xyz
  'x, y, z'

loop_
  _atom_site_type_symbol
  _atom_site_label
  _atom_site_symmetry_multiplicity
  _atom_site_fract_x
  _atom_site_fract_y
  _atom_site_fract_z
  _atom_site_occupancy
  Au  Au1       1.0  0.01920  0.01920  0.01920  1.0000
  Au  Au2       1.0  0.49200  0.49200  0.49200  1.0000
  Hf  Hf1       1.0  0.37300  0.37300  0.37300  1.0000
  Hf  Hf2       1.0  0.62200  0.62200  0.62200  1.0000
  Hf  Hf3       1.0  0.87000  0.87000  0.87000  1.0000
  Si  Si1       1.0  0.24900  0.24900  0.24900  1.0000
  Si  Si2       1.0  0.74900  0.74900  0.74900  1.0000
