data_image0
_chemical_formula_structural       Cu2Si3Sn2
_chemical_formula_sum              "Cu2 Si3 Sn2"
_cell_length_a       8.42549
_cell_length_b       8.42549
_cell_length_c       8.42549
_cell_angle_alpha    29.1895
_cell_angle_beta     29.1895
_cell_angle_gamma    29.1895

_space_group_name_H-M_alt    "P 1"
_space_group_IT_number       1

loop_
  _space_group_symop_operation_xyz
  'x, y, z'

loop_
  _atom_site_type_symbol
  _atom_site_label
  _atom_site_symmetry_multiplicity
  _atom_site_fract_x
  _atom_site_fract_y
  _atom_site_fract_z
  _atom_site_occupancy
  Cu  Cu1       1.0  0.22000  0.22000  0.22000  1.0000
  Cu  Cu2       1.0  0.77600  0.77600  0.77600  1.0000
  Si  Si1       1.0  0.32000  0.32000  0.32000  1.0000
  Si  Si2       1.0  0.62500  0.62500  0.62500  1.0000
  Si  Si3       1.0  0.89400  0.89400  0.89400  1.0000
  Sn  Sn1       1.0  0.05290  0.05290  0.05290  1.0000
  Sn  Sn2       1.0  0.48800  0.48800  0.48800  1.0000
