data_image0
_chemical_formula_structural       Au2Ti2Zr3
_chemical_formula_sum              "Au2 Ti2 Zr3"
_cell_length_a       7.39587
_cell_length_b       7.39587
_cell_length_c       7.39587
_cell_angle_alpha    37.4187
_cell_angle_beta     37.4187
_cell_angle_gamma    37.4187

_space_group_name_H-M_alt    "P 1"
_space_group_IT_number       1

loop_
  _space_group_symop_operation_xyz
  'x, y, z'

loop_
  _atom_site_type_symbol
  _atom_site_label
  _atom_site_symmetry_multiplicity
  _atom_site_fract_x
  _atom_site_fract_y
  _atom_site_fract_z
  _atom_site_occupancy
  Au  Au1       1.0  0.05030  0.05030  0.05030  1.0000
  Au  Au2       1.0  0.48800  0.48800  0.48800  1.0000
  Ti  Ti1       1.0  0.19100  0.19100  0.19100  1.0000
  Ti  Ti2       1.0  0.77200  0.77200  0.77200  1.0000
  Zr  Zr1       1.0  0.34400  0.34400  0.34400  1.0000
  Zr  Zr2       1.0  0.62400  0.62400  0.62400  1.0000
  Zr  Zr3       1.0  0.90600  0.90600  0.90600  1.0000
