data_image0
_chemical_formula_structural       Ge2Ni2Pt4
_chemical_formula_sum              "Ge2 Ni2 Pt4"
_cell_length_a       5.37452
_cell_length_b       5.37452
_cell_length_c       5.41851
_cell_angle_alpha    118.112
_cell_angle_beta     118.112
_cell_angle_gamma    92.8593

_space_group_name_H-M_alt    "P 1"
_space_group_IT_number       1

loop_
  _space_group_symop_operation_xyz
  'x, y, z'

loop_
  _atom_site_type_symbol
  _atom_site_label
  _atom_site_symmetry_multiplicity
  _atom_site_fract_x
  _atom_site_fract_y
  _atom_site_fract_z
  _atom_site_occupancy
  Ge  Ge1       1.0  0.23200  0.23200  0.46300  1.0000
  Ge  Ge2       1.0  0.76800  0.76800  0.53700  1.0000
  Ni  Ni1       1.0  0.79700  0.20300  0.00000  1.0000
  Ni  Ni2       1.0  0.20300  0.79700  0.00000  1.0000
  Pt  Pt1       1.0  0.30200  0.30200  0.00000  1.0000
  Pt  Pt2       1.0  0.69800  0.69800  0.00000  1.0000
  Pt  Pt3       1.0  0.75000  0.25000  0.50000  1.0000
  Pt  Pt4       1.0  0.25000  0.75000  0.50000  1.0000
