data_image0
_chemical_formula_structural       Ge12O27Sr3
_chemical_formula_sum              "Ge12 O27 Sr3"
_cell_length_a       11.2998
_cell_length_b       11.2998
_cell_length_c       4.77007
_cell_angle_alpha    90
_cell_angle_beta     89.9993
_cell_angle_gamma    120

_space_group_name_H-M_alt    "P 1"
_space_group_IT_number       1

loop_
  _space_group_symop_operation_xyz
  'x, y, z'

loop_
  _atom_site_type_symbol
  _atom_site_label
  _atom_site_symmetry_multiplicity
  _atom_site_fract_x
  _atom_site_fract_y
  _atom_site_fract_z
  _atom_site_occupancy
  Ge  Ge1       1.0  0.00000  0.00000  0.00000  1.0000
  Ge  Ge2       1.0  0.33300  0.66700  0.11100  1.0000
  Ge  Ge3       1.0  0.85000  0.50900  0.39700  1.0000
  Ge  Ge4       1.0  0.49100  0.34100  0.39700  1.0000
  Ge  Ge5       1.0  0.65900  0.15000  0.39700  1.0000
  Ge  Ge6       1.0  0.17900  0.17900  0.50000  1.0000
  Ge  Ge7       1.0  1.00000  0.82100  0.50000  1.0000
  Ge  Ge8       1.0  0.82100  0.00000  0.50000  1.0000
  Ge  Ge9       1.0  0.34100  0.49100  0.60300  1.0000
  Ge  Ge10      1.0  0.50900  0.85000  0.60300  1.0000
  Ge  Ge11      1.0  0.15000  0.65900  0.60300  1.0000
  Ge  Ge12      1.0  0.66700  0.33300  0.88900  1.0000
  O   O1        1.0  0.60500  0.42600  0.11900  1.0000
  O   O2        1.0  0.57400  0.17900  0.11900  1.0000
  O   O3        1.0  0.82100  0.39500  0.11900  1.0000
  O   O4        1.0  0.84400  0.90200  0.23900  1.0000
  O   O5        1.0  0.09810  0.94200  0.23900  1.0000
  O   O6        1.0  0.05780  0.15600  0.23900  1.0000
  O   O7        1.0  0.78400  0.10800  0.28200  1.0000
  O   O8        1.0  0.89200  0.67600  0.28200  1.0000
  O   O9        1.0  0.32400  0.21600  0.28200  1.0000
  O   O10       1.0  0.26100  0.75400  0.33100  1.0000
  O   O11       1.0  0.24600  0.50700  0.33100  1.0000
  O   O12       1.0  0.49300  0.73900  0.33100  1.0000
  O   O13       1.0  0.49300  0.49300  0.50000  1.0000
  O   O14       1.0  0.00000  0.50700  0.50000  1.0000
  O   O15       1.0  0.50700  0.00000  0.50000  1.0000
  O   O16       1.0  0.50700  0.24600  0.66900  1.0000
  O   O17       1.0  0.75400  0.26100  0.66900  1.0000
  O   O18       1.0  0.73900  0.49300  0.66900  1.0000
  O   O19       1.0  0.67600  0.89200  0.71800  1.0000
  O   O20       1.0  0.10800  0.78400  0.71800  1.0000
  O   O21       1.0  0.21600  0.32400  0.71800  1.0000
  O   O22       1.0  0.94200  0.09820  0.76100  1.0000
  O   O23       1.0  0.90200  0.84400  0.76100  1.0000
  O   O24       1.0  0.15600  0.05780  0.76100  1.0000
  O   O25       1.0  0.17900  0.57400  0.88100  1.0000
  O   O26       1.0  0.42600  0.60500  0.88100  1.0000
  O   O27       1.0  0.39500  0.82100  0.88100  1.0000
  Sr  Sr1       1.0  0.32800  0.00000  0.00000  1.0000
  Sr  Sr2       1.0  0.00000  0.32800  0.00000  1.0000
  Sr  Sr3       1.0  0.67200  0.67200  0.00000  1.0000
