data_image0
_chemical_formula_structural       Au2Si3Sn2
_chemical_formula_sum              "Au2 Si3 Sn2"
_cell_length_a       8.63396
_cell_length_b       8.63396
_cell_length_c       8.63396
_cell_angle_alpha    30.528
_cell_angle_beta     30.528
_cell_angle_gamma    30.528

_space_group_name_H-M_alt    "P 1"
_space_group_IT_number       1

loop_
  _space_group_symop_operation_xyz
  'x, y, z'

loop_
  _atom_site_type_symbol
  _atom_site_label
  _atom_site_symmetry_multiplicity
  _atom_site_fract_x
  _atom_site_fract_y
  _atom_site_fract_z
  _atom_site_occupancy
  Au  Au1       1.0  0.00074  0.00073  0.00073  1.0000
  Au  Au2       1.0  0.48000  0.48000  0.48000  1.0000
  Si  Si1       1.0  0.36700  0.36700  0.36700  1.0000
  Si  Si2       1.0  0.65400  0.65400  0.65400  1.0000
  Si  Si3       1.0  0.87100  0.87100  0.87100  1.0000
  Sn  Sn1       1.0  0.23800  0.23800  0.23800  1.0000
  Sn  Sn2       1.0  0.76400  0.76400  0.76400  1.0000
