data_image0
_chemical_formula_structural       Cu2Ge2Zr3
_chemical_formula_sum              "Cu2 Ge2 Zr3"
_cell_length_a       8.0383
_cell_length_b       8.0383
_cell_length_c       8.0383
_cell_angle_alpha    32.8254
_cell_angle_beta     32.8254
_cell_angle_gamma    32.8254

_space_group_name_H-M_alt    "P 1"
_space_group_IT_number       1

loop_
  _space_group_symop_operation_xyz
  'x, y, z'

loop_
  _atom_site_type_symbol
  _atom_site_label
  _atom_site_symmetry_multiplicity
  _atom_site_fract_x
  _atom_site_fract_y
  _atom_site_fract_z
  _atom_site_occupancy
  Cu  Cu1       1.0  0.24300  0.24300  0.24300  1.0000
  Cu  Cu2       1.0  0.75400  0.75400  0.75400  1.0000
  Ge  Ge1       1.0  0.00118  0.00118  0.00118  1.0000
  Ge  Ge2       1.0  0.50000  0.50000  0.50000  1.0000
  Zr  Zr1       1.0  0.38200  0.38200  0.38200  1.0000
  Zr  Zr2       1.0  0.62500  0.62500  0.62500  1.0000
  Zr  Zr3       1.0  0.87000  0.87000  0.87000  1.0000
