data_image0
_chemical_formula_structural       Ag2Hf3Zr2
_chemical_formula_sum              "Ag2 Hf3 Zr2"
_cell_length_a       7.55213
_cell_length_b       7.55213
_cell_length_c       7.55213
_cell_angle_alpha    38.0568
_cell_angle_beta     38.0568
_cell_angle_gamma    38.0568

_space_group_name_H-M_alt    "P 1"
_space_group_IT_number       1

loop_
  _space_group_symop_operation_xyz
  'x, y, z'

loop_
  _atom_site_type_symbol
  _atom_site_label
  _atom_site_symmetry_multiplicity
  _atom_site_fract_x
  _atom_site_fract_y
  _atom_site_fract_z
  _atom_site_occupancy
  Ag  Ag1       1.0  0.05390  0.05390  0.05390  1.0000
  Ag  Ag2       1.0  0.48100  0.48100  0.48100  1.0000
  Hf  Hf1       1.0  0.34000  0.34000  0.34000  1.0000
  Hf  Hf2       1.0  0.61500  0.61500  0.61500  1.0000
  Hf  Hf3       1.0  0.92100  0.92100  0.92100  1.0000
  Zr  Zr1       1.0  0.19700  0.19700  0.19700  1.0000
  Zr  Zr2       1.0  0.76700  0.76700  0.76700  1.0000
