data_image0
_chemical_formula_structural       Ag2Hf5
_chemical_formula_sum              "Ag2 Hf5"
_cell_length_a       7.54193
_cell_length_b       7.54193
_cell_length_c       7.54193
_cell_angle_alpha    37.8163
_cell_angle_beta     37.8163
_cell_angle_gamma    37.8163

_space_group_name_H-M_alt    "P 1"
_space_group_IT_number       1

loop_
  _space_group_symop_operation_xyz
  'x, y, z'

loop_
  _atom_site_type_symbol
  _atom_site_label
  _atom_site_symmetry_multiplicity
  _atom_site_fract_x
  _atom_site_fract_y
  _atom_site_fract_z
  _atom_site_occupancy
  Ag  Ag1       1.0  0.05550  0.05550  0.05550  1.0000
  Ag  Ag2       1.0  0.48000  0.48000  0.48000  1.0000
  Hf  Hf1       1.0  0.19600  0.19600  0.19600  1.0000
  Hf  Hf2       1.0  0.33900  0.33900  0.33900  1.0000
  Hf  Hf3       1.0  0.61500  0.61500  0.61500  1.0000
  Hf  Hf4       1.0  0.76800  0.76800  0.76800  1.0000
  Hf  Hf5       1.0  0.92100  0.92100  0.92100  1.0000
