data_image0
_chemical_formula_structural       Cu2Hf2Zr3
_chemical_formula_sum              "Cu2 Hf2 Zr3"
_cell_length_a       7.37516
_cell_length_b       7.37516
_cell_length_c       7.37516
_cell_angle_alpha    37.7773
_cell_angle_beta     37.7773
_cell_angle_gamma    37.7773

_space_group_name_H-M_alt    "P 1"
_space_group_IT_number       1

loop_
  _space_group_symop_operation_xyz
  'x, y, z'

loop_
  _atom_site_type_symbol
  _atom_site_label
  _atom_site_symmetry_multiplicity
  _atom_site_fract_x
  _atom_site_fract_y
  _atom_site_fract_z
  _atom_site_occupancy
  Cu  Cu1       1.0  0.05200  0.05200  0.05200  1.0000
  Cu  Cu2       1.0  0.48500  0.48500  0.48500  1.0000
  Hf  Hf1       1.0  0.18800  0.18800  0.18800  1.0000
  Hf  Hf2       1.0  0.76900  0.76900  0.76900  1.0000
  Zr  Zr1       1.0  0.34600  0.34600  0.34600  1.0000
  Zr  Zr2       1.0  0.61600  0.61600  0.61600  1.0000
  Zr  Zr3       1.0  0.91900  0.91900  0.91900  1.0000
