data_image0
_chemical_formula_structural       Cu2Hf3Ti2
_chemical_formula_sum              "Cu2 Hf3 Ti2"
_cell_length_a       7.07655
_cell_length_b       7.07655
_cell_length_c       7.07655
_cell_angle_alpha    38.5792
_cell_angle_beta     38.5792
_cell_angle_gamma    38.5792

_space_group_name_H-M_alt    "P 1"
_space_group_IT_number       1

loop_
  _space_group_symop_operation_xyz
  'x, y, z'

loop_
  _atom_site_type_symbol
  _atom_site_label
  _atom_site_symmetry_multiplicity
  _atom_site_fract_x
  _atom_site_fract_y
  _atom_site_fract_z
  _atom_site_occupancy
  Cu  Cu1       1.0  0.05180  0.05180  0.05180  1.0000
  Cu  Cu2       1.0  0.48500  0.48500  0.48500  1.0000
  Hf  Hf1       1.0  0.34800  0.34800  0.34800  1.0000
  Hf  Hf2       1.0  0.61600  0.61600  0.61600  1.0000
  Hf  Hf3       1.0  0.91300  0.91300  0.91300  1.0000
  Ti  Ti1       1.0  0.19000  0.19000  0.19000  1.0000
  Ti  Ti2       1.0  0.77200  0.77200  0.77200  1.0000
