data_image0
_chemical_formula_structural       Au2Pb2Ti3
_chemical_formula_sum              "Au2 Pb2 Ti3"
_cell_length_a       7.97159
_cell_length_b       7.97159
_cell_length_c       7.97159
_cell_angle_alpha    34.2819
_cell_angle_beta     34.2819
_cell_angle_gamma    34.2819

_space_group_name_H-M_alt    "P 1"
_space_group_IT_number       1

loop_
  _space_group_symop_operation_xyz
  'x, y, z'

loop_
  _atom_site_type_symbol
  _atom_site_label
  _atom_site_symmetry_multiplicity
  _atom_site_fract_x
  _atom_site_fract_y
  _atom_site_fract_z
  _atom_site_occupancy
  Au  Au1       1.0  0.01110  0.01110  0.01110  1.0000
  Au  Au2       1.0  0.49300  0.49300  0.49300  1.0000
  Pb  Pb1       1.0  0.23800  0.23800  0.23800  1.0000
  Pb  Pb2       1.0  0.75700  0.75700  0.75700  1.0000
  Ti  Ti1       1.0  0.36700  0.36700  0.36700  1.0000
  Ti  Ti2       1.0  0.62600  0.62600  0.62600  1.0000
  Ti  Ti3       1.0  0.88300  0.88300  0.88300  1.0000
