data_image0
_chemical_formula_structural       Au2Sn2Zr3
_chemical_formula_sum              "Au2 Sn2 Zr3"
_cell_length_a       8.43102
_cell_length_b       8.43102
_cell_length_c       8.43102
_cell_angle_alpha    33.2306
_cell_angle_beta     33.2306
_cell_angle_gamma    33.2306

_space_group_name_H-M_alt    "P 1"
_space_group_IT_number       1

loop_
  _space_group_symop_operation_xyz
  'x, y, z'

loop_
  _atom_site_type_symbol
  _atom_site_label
  _atom_site_symmetry_multiplicity
  _atom_site_fract_x
  _atom_site_fract_y
  _atom_site_fract_z
  _atom_site_occupancy
  Au  Au1       1.0  0.01290  0.01290  0.01290  1.0000
  Au  Au2       1.0  0.49200  0.49200  0.49200  1.0000
  Sn  Sn1       1.0  0.24600  0.24600  0.24600  1.0000
  Sn  Sn2       1.0  0.75300  0.75300  0.75300  1.0000
  Zr  Zr1       1.0  0.37300  0.37300  0.37300  1.0000
  Zr  Zr2       1.0  0.62400  0.62400  0.62400  1.0000
  Zr  Zr3       1.0  0.87400  0.87400  0.87400  1.0000
