data_image0
_chemical_formula_structural       Cd2Pb3Sc2
_chemical_formula_sum              "Cd2 Pb3 Sc2"
_cell_length_a       8.59974
_cell_length_b       8.59974
_cell_length_c       8.59974
_cell_angle_alpha    34.4722
_cell_angle_beta     34.4722
_cell_angle_gamma    34.4722

_space_group_name_H-M_alt    "P 1"
_space_group_IT_number       1

loop_
  _space_group_symop_operation_xyz
  'x, y, z'

loop_
  _atom_site_type_symbol
  _atom_site_label
  _atom_site_symmetry_multiplicity
  _atom_site_fract_x
  _atom_site_fract_y
  _atom_site_fract_z
  _atom_site_occupancy
  Cd  Cd1       1.0  0.07220  0.07220  0.07220  1.0000
  Cd  Cd2       1.0  0.47900  0.47900  0.47900  1.0000
  Pb  Pb1       1.0  0.34800  0.34800  0.34800  1.0000
  Pb  Pb2       1.0  0.62300  0.62300  0.62300  1.0000
  Pb  Pb3       1.0  0.89200  0.89200  0.89200  1.0000
  Sc  Sc1       1.0  0.19900  0.19900  0.19900  1.0000
  Sc  Sc2       1.0  0.76100  0.76100  0.76100  1.0000
