data_image0
_chemical_formula_structural       Ag2Hf2Zr3
_chemical_formula_sum              "Ag2 Hf2 Zr3"
_cell_length_a       7.58123
_cell_length_b       7.58123
_cell_length_c       7.58123
_cell_angle_alpha    37.7439
_cell_angle_beta     37.7439
_cell_angle_gamma    37.7439

_space_group_name_H-M_alt    "P 1"
_space_group_IT_number       1

loop_
  _space_group_symop_operation_xyz
  'x, y, z'

loop_
  _atom_site_type_symbol
  _atom_site_label
  _atom_site_symmetry_multiplicity
  _atom_site_fract_x
  _atom_site_fract_y
  _atom_site_fract_z
  _atom_site_occupancy
  Ag  Ag1       1.0  0.05250  0.05250  0.05250  1.0000
  Ag  Ag2       1.0  0.48400  0.48400  0.48400  1.0000
  Hf  Hf1       1.0  0.19300  0.19300  0.19300  1.0000
  Hf  Hf2       1.0  0.76900  0.76900  0.76900  1.0000
  Zr  Zr1       1.0  0.34100  0.34100  0.34100  1.0000
  Zr  Zr2       1.0  0.62000  0.62000  0.62000  1.0000
  Zr  Zr3       1.0  0.91500  0.91500  0.91500  1.0000
