data_image0
_chemical_formula_structural       Cu2Ge2Hf3
_chemical_formula_sum              "Cu2 Ge2 Hf3"
_cell_length_a       7.94822
_cell_length_b       7.94822
_cell_length_c       7.94822
_cell_angle_alpha    32.8557
_cell_angle_beta     32.8557
_cell_angle_gamma    32.8557

_space_group_name_H-M_alt    "P 1"
_space_group_IT_number       1

loop_
  _space_group_symop_operation_xyz
  'x, y, z'

loop_
  _atom_site_type_symbol
  _atom_site_label
  _atom_site_symmetry_multiplicity
  _atom_site_fract_x
  _atom_site_fract_y
  _atom_site_fract_z
  _atom_site_occupancy
  Cu  Cu1       1.0  0.24400  0.24400  0.24400  1.0000
  Cu  Cu2       1.0  0.75400  0.75400  0.75400  1.0000
  Ge  Ge1       1.0  0.00218  0.00218  0.00218  1.0000
  Ge  Ge2       1.0  0.49900  0.49900  0.49900  1.0000
  Hf  Hf1       1.0  0.38100  0.38100  0.38100  1.0000
  Hf  Hf2       1.0  0.62400  0.62400  0.62400  1.0000
  Hf  Hf3       1.0  0.87100  0.87100  0.87100  1.0000
