data_image0
_chemical_formula_structural       Au2Ge2Ti3
_chemical_formula_sum              "Au2 Ge2 Ti3"
_cell_length_a       7.62051
_cell_length_b       7.62051
_cell_length_c       7.62051
_cell_angle_alpha    34.2401
_cell_angle_beta     34.2401
_cell_angle_gamma    34.2401

_space_group_name_H-M_alt    "P 1"
_space_group_IT_number       1

loop_
  _space_group_symop_operation_xyz
  'x, y, z'

loop_
  _atom_site_type_symbol
  _atom_site_label
  _atom_site_symmetry_multiplicity
  _atom_site_fract_x
  _atom_site_fract_y
  _atom_site_fract_z
  _atom_site_occupancy
  Au  Au1       1.0  0.02030  0.02030  0.02030  1.0000
  Au  Au2       1.0  0.49100  0.49100  0.49100  1.0000
  Ge  Ge1       1.0  0.24500  0.24500  0.24500  1.0000
  Ge  Ge2       1.0  0.75200  0.75200  0.75200  1.0000
  Ti  Ti1       1.0  0.36800  0.36800  0.36800  1.0000
  Ti  Ti2       1.0  0.62300  0.62300  0.62300  1.0000
  Ti  Ti3       1.0  0.87700  0.87700  0.87700  1.0000
