data_image0
_chemical_formula_structural       Cu2Hf5
_chemical_formula_sum              "Cu2 Hf5"
_cell_length_a       7.31043
_cell_length_b       7.31043
_cell_length_c       7.31043
_cell_angle_alpha    38.075
_cell_angle_beta     38.075
_cell_angle_gamma    38.075

_space_group_name_H-M_alt    "P 1"
_space_group_IT_number       1

loop_
  _space_group_symop_operation_xyz
  'x, y, z'

loop_
  _atom_site_type_symbol
  _atom_site_label
  _atom_site_symmetry_multiplicity
  _atom_site_fract_x
  _atom_site_fract_y
  _atom_site_fract_z
  _atom_site_occupancy
  Cu  Cu1       1.0  0.05540  0.05540  0.05540  1.0000
  Cu  Cu2       1.0  0.48000  0.48000  0.48000  1.0000
  Hf  Hf1       1.0  0.19200  0.19200  0.19200  1.0000
  Hf  Hf2       1.0  0.34400  0.34400  0.34400  1.0000
  Hf  Hf3       1.0  0.61200  0.61200  0.61200  1.0000
  Hf  Hf4       1.0  0.76800  0.76800  0.76800  1.0000
  Hf  Hf5       1.0  0.92400  0.92400  0.92400  1.0000
