data_image0
_chemical_formula_structural       Cu2Hf3Sn2
_chemical_formula_sum              "Cu2 Hf3 Sn2"
_cell_length_a       8.23334
_cell_length_b       8.23334
_cell_length_c       8.23334
_cell_angle_alpha    32.9882
_cell_angle_beta     32.9882
_cell_angle_gamma    32.9882

_space_group_name_H-M_alt    "P 1"
_space_group_IT_number       1

loop_
  _space_group_symop_operation_xyz
  'x, y, z'

loop_
  _atom_site_type_symbol
  _atom_site_label
  _atom_site_symmetry_multiplicity
  _atom_site_fract_x
  _atom_site_fract_y
  _atom_site_fract_z
  _atom_site_occupancy
  Cu  Cu1       1.0  0.24600  0.24600  0.24600  1.0000
  Cu  Cu2       1.0  0.75500  0.75500  0.75500  1.0000
  Hf  Hf1       1.0  0.37600  0.37600  0.37600  1.0000
  Hf  Hf2       1.0  0.62200  0.62200  0.62200  1.0000
  Hf  Hf3       1.0  0.87500  0.87500  0.87500  1.0000
  Sn  Sn1       1.0  0.00623  0.00623  0.00623  1.0000
  Sn  Sn2       1.0  0.49500  0.49500  0.49500  1.0000
