data_image0
_chemical_formula_structural       Ag2Pb2Ti3
_chemical_formula_sum              "Ag2 Pb2 Ti3"
_cell_length_a       7.81895
_cell_length_b       7.81895
_cell_length_c       7.81895
_cell_angle_alpha    35.1865
_cell_angle_beta     35.1865
_cell_angle_gamma    35.1865

_space_group_name_H-M_alt    "P 1"
_space_group_IT_number       1

loop_
  _space_group_symop_operation_xyz
  'x, y, z'

loop_
  _atom_site_type_symbol
  _atom_site_label
  _atom_site_symmetry_multiplicity
  _atom_site_fract_x
  _atom_site_fract_y
  _atom_site_fract_z
  _atom_site_occupancy
  Ag  Ag1       1.0  0.22300  0.22300  0.22300  1.0000
  Ag  Ag2       1.0  0.76000  0.76000  0.76000  1.0000
  Pb  Pb1       1.0  0.02600  0.02600  0.02600  1.0000
  Pb  Pb2       1.0  0.49100  0.49100  0.49100  1.0000
  Ti  Ti1       1.0  0.35100  0.35100  0.35100  1.0000
  Ti  Ti2       1.0  0.62600  0.62600  0.62600  1.0000
  Ti  Ti3       1.0  0.89800  0.89800  0.89800  1.0000
