data_image0
_chemical_formula_structural       Ag2Ge2Ti3
_chemical_formula_sum              "Ag2 Ge2 Ti3"
_cell_length_a       7.69693
_cell_length_b       7.69693
_cell_length_c       7.69693
_cell_angle_alpha    33.721
_cell_angle_beta     33.721
_cell_angle_gamma    33.721

_space_group_name_H-M_alt    "P 1"
_space_group_IT_number       1

loop_
  _space_group_symop_operation_xyz
  'x, y, z'

loop_
  _atom_site_type_symbol
  _atom_site_label
  _atom_site_symmetry_multiplicity
  _atom_site_fract_x
  _atom_site_fract_y
  _atom_site_fract_z
  _atom_site_occupancy
  Ag  Ag1       1.0  0.23500  0.23500  0.23500  1.0000
  Ag  Ag2       1.0  0.75800  0.75800  0.75800  1.0000
  Ge  Ge1       1.0  0.00267  0.00267  0.00267  1.0000
  Ge  Ge2       1.0  0.49900  0.49900  0.49900  1.0000
  Ti  Ti1       1.0  0.37400  0.37400  0.37400  1.0000
  Ti  Ti2       1.0  0.62600  0.62600  0.62600  1.0000
  Ti  Ti3       1.0  0.87900  0.87900  0.87900  1.0000
