data_image0
_chemical_formula_structural       Au2Pb2Zr3
_chemical_formula_sum              "Au2 Pb2 Zr3"
_cell_length_a       8.49896
_cell_length_b       8.49896
_cell_length_c       8.49896
_cell_angle_alpha    33.3482
_cell_angle_beta     33.3482
_cell_angle_gamma    33.3482

_space_group_name_H-M_alt    "P 1"
_space_group_IT_number       1

loop_
  _space_group_symop_operation_xyz
  'x, y, z'

loop_
  _atom_site_type_symbol
  _atom_site_label
  _atom_site_symmetry_multiplicity
  _atom_site_fract_x
  _atom_site_fract_y
  _atom_site_fract_z
  _atom_site_occupancy
  Au  Au1       1.0  0.00983  0.00983  0.00983  1.0000
  Au  Au2       1.0  0.49300  0.49300  0.49300  1.0000
  Pb  Pb1       1.0  0.24300  0.24300  0.24300  1.0000
  Pb  Pb2       1.0  0.75500  0.75500  0.75500  1.0000
  Zr  Zr1       1.0  0.37200  0.37200  0.37200  1.0000
  Zr  Zr2       1.0  0.62600  0.62600  0.62600  1.0000
  Zr  Zr3       1.0  0.87600  0.87600  0.87600  1.0000
