data_image0
_chemical_formula_structural       Ag2Hf3Sn2
_chemical_formula_sum              "Ag2 Hf3 Sn2"
_cell_length_a       8.32678
_cell_length_b       8.32678
_cell_length_c       8.32678
_cell_angle_alpha    33.4811
_cell_angle_beta     33.4811
_cell_angle_gamma    33.4811

_space_group_name_H-M_alt    "P 1"
_space_group_IT_number       1

loop_
  _space_group_symop_operation_xyz
  'x, y, z'

loop_
  _atom_site_type_symbol
  _atom_site_label
  _atom_site_symmetry_multiplicity
  _atom_site_fract_x
  _atom_site_fract_y
  _atom_site_fract_z
  _atom_site_occupancy
  Ag  Ag1       1.0  0.24200  0.24200  0.24200  1.0000
  Ag  Ag2       1.0  0.75700  0.75700  0.75700  1.0000
  Hf  Hf1       1.0  0.37400  0.37400  0.37400  1.0000
  Hf  Hf2       1.0  0.62400  0.62400  0.62400  1.0000
  Hf  Hf3       1.0  0.87700  0.87700  0.87700  1.0000
  Sn  Sn1       1.0  0.00535  0.00535  0.00535  1.0000
  Sn  Sn2       1.0  0.49600  0.49600  0.49600  1.0000
