data_image0
_chemical_formula_structural       Cu2Si2Zr3
_chemical_formula_sum              "Cu2 Si2 Zr3"
_cell_length_a       7.94521
_cell_length_b       7.94521
_cell_length_c       7.94521
_cell_angle_alpha    32.875
_cell_angle_beta     32.875
_cell_angle_gamma    32.875

_space_group_name_H-M_alt    "P 1"
_space_group_IT_number       1

loop_
  _space_group_symop_operation_xyz
  'x, y, z'

loop_
  _atom_site_type_symbol
  _atom_site_label
  _atom_site_symmetry_multiplicity
  _atom_site_fract_x
  _atom_site_fract_y
  _atom_site_fract_z
  _atom_site_occupancy
  Cu  Cu1       1.0  0.00833  0.00833  0.00833  1.0000
  Cu  Cu2       1.0  0.49700  0.49700  0.49700  1.0000
  Si  Si1       1.0  0.24900  0.24900  0.24900  1.0000
  Si  Si2       1.0  0.74800  0.74800  0.74800  1.0000
  Zr  Zr1       1.0  0.38100  0.38100  0.38100  1.0000
  Zr  Zr2       1.0  0.62500  0.62500  0.62500  1.0000
  Zr  Zr3       1.0  0.86700  0.86700  0.86700  1.0000
