data_image0
_chemical_formula_structural       Ag2Sn2Zr3
_chemical_formula_sum              "Ag2 Sn2 Zr3"
_cell_length_a       8.44298
_cell_length_b       8.44298
_cell_length_c       8.44298
_cell_angle_alpha    33.3122
_cell_angle_beta     33.3122
_cell_angle_gamma    33.3122

_space_group_name_H-M_alt    "P 1"
_space_group_IT_number       1

loop_
  _space_group_symop_operation_xyz
  'x, y, z'

loop_
  _atom_site_type_symbol
  _atom_site_label
  _atom_site_symmetry_multiplicity
  _atom_site_fract_x
  _atom_site_fract_y
  _atom_site_fract_z
  _atom_site_occupancy
  Ag  Ag1       1.0  0.24100  0.24100  0.24100  1.0000
  Ag  Ag2       1.0  0.75700  0.75700  0.75700  1.0000
  Sn  Sn1       1.0  0.00394  0.00394  0.00394  1.0000
  Sn  Sn2       1.0  0.49700  0.49700  0.49700  1.0000
  Zr  Zr1       1.0  0.37500  0.37500  0.37500  1.0000
  Zr  Zr2       1.0  0.62500  0.62500  0.62500  1.0000
  Zr  Zr3       1.0  0.87600  0.87600  0.87600  1.0000
