data_image0
_chemical_formula_structural       Cu2Sn2Ti3
_chemical_formula_sum              "Cu2 Sn2 Ti3"
_cell_length_a       7.79865
_cell_length_b       7.79865
_cell_length_c       7.79865
_cell_angle_alpha    33.4458
_cell_angle_beta     33.4458
_cell_angle_gamma    33.4458

_space_group_name_H-M_alt    "P 1"
_space_group_IT_number       1

loop_
  _space_group_symop_operation_xyz
  'x, y, z'

loop_
  _atom_site_type_symbol
  _atom_site_label
  _atom_site_symmetry_multiplicity
  _atom_site_fract_x
  _atom_site_fract_y
  _atom_site_fract_z
  _atom_site_occupancy
  Cu  Cu1       1.0  0.24400  0.24400  0.24400  1.0000
  Cu  Cu2       1.0  0.75600  0.75600  0.75600  1.0000
  Sn  Sn1       1.0  0.00795  0.00795  0.00795  1.0000
  Sn  Sn2       1.0  0.49400  0.49400  0.49400  1.0000
  Ti  Ti1       1.0  0.37200  0.37200  0.37200  1.0000
  Ti  Ti2       1.0  0.62200  0.62200  0.62200  1.0000
  Ti  Ti3       1.0  0.87900  0.87900  0.87900  1.0000
