data_image0
_chemical_formula_structural       Au2Ge2Hf3
_chemical_formula_sum              "Au2 Ge2 Hf3"
_cell_length_a       8.16447
_cell_length_b       8.16447
_cell_length_c       8.16447
_cell_angle_alpha    33.0445
_cell_angle_beta     33.0445
_cell_angle_gamma    33.0445

_space_group_name_H-M_alt    "P 1"
_space_group_IT_number       1

loop_
  _space_group_symop_operation_xyz
  'x, y, z'

loop_
  _atom_site_type_symbol
  _atom_site_label
  _atom_site_symmetry_multiplicity
  _atom_site_fract_x
  _atom_site_fract_y
  _atom_site_fract_z
  _atom_site_occupancy
  Au  Au1       1.0  0.01120  0.01120  0.01120  1.0000
  Au  Au2       1.0  0.49400  0.49400  0.49400  1.0000
  Ge  Ge1       1.0  0.24900  0.24900  0.24900  1.0000
  Ge  Ge2       1.0  0.75000  0.75000  0.75000  1.0000
  Hf  Hf1       1.0  0.37600  0.37600  0.37600  1.0000
  Hf  Hf2       1.0  0.62300  0.62300  0.62300  1.0000
  Hf  Hf3       1.0  0.87100  0.87100  0.87100  1.0000
