data_image0
_chemical_formula_structural       La12O10S16Ti4
_chemical_formula_sum              "La12 O10 S16 Ti4"
_cell_length_a       12.6887
_cell_length_b       4.01797
_cell_length_c       16.3692
_cell_angle_alpha    90
_cell_angle_beta     97
_cell_angle_gamma    90

_space_group_name_H-M_alt    "P 1"
_space_group_IT_number       1

loop_
  _space_group_symop_operation_xyz
  'x, y, z'

loop_
  _atom_site_type_symbol
  _atom_site_label
  _atom_site_symmetry_multiplicity
  _atom_site_fract_x
  _atom_site_fract_y
  _atom_site_fract_z
  _atom_site_occupancy
  La  La1       1.0  0.26800  0.75000  0.10200  1.0000
  La  La2       1.0  0.93200  0.75000  0.11700  1.0000
  La  La3       1.0  0.60500  0.75000  0.12600  1.0000
  La  La4       1.0  0.68000  0.25000  0.35100  1.0000
  La  La5       1.0  0.99900  0.75000  0.38000  1.0000
  La  La6       1.0  0.38500  0.75000  0.39800  1.0000
  La  La7       1.0  0.61500  0.25000  0.60200  1.0000
  La  La8       1.0  0.00137  0.25000  0.62000  1.0000
  La  La9       1.0  0.32000  0.75000  0.64900  1.0000
  La  La10      1.0  0.39500  0.25000  0.87400  1.0000
  La  La11      1.0  0.06810  0.25000  0.88300  1.0000
  La  La12      1.0  0.73200  0.25000  0.89800  1.0000
  O   O1        1.0  0.28700  0.25000  0.19100  1.0000
  O   O2        1.0  0.58600  0.25000  0.21300  1.0000
  O   O3        1.0  0.14900  0.75000  0.21700  1.0000
  O   O4        1.0  0.43400  0.75000  0.21800  1.0000
  O   O5        1.0  0.45400  0.25000  0.34000  1.0000
  O   O6        1.0  0.54600  0.75000  0.66000  1.0000
  O   O7        1.0  0.56600  0.25000  0.78200  1.0000
  O   O8        1.0  0.85100  0.25000  0.78300  1.0000
  O   O9        1.0  0.41400  0.75000  0.78700  1.0000
  O   O10       1.0  0.71300  0.75000  0.80900  1.0000
  S   S1        1.0  0.43100  0.25000  0.06100  1.0000
  S   S2        1.0  0.08590  0.25000  0.06740  1.0000
  S   S3        1.0  0.76500  0.25000  0.07630  1.0000
  S   S4        1.0  0.96800  0.25000  0.24600  1.0000
  S   S5        1.0  0.77500  0.75000  0.26900  1.0000
  S   S6        1.0  0.19500  0.25000  0.37400  1.0000
  S   S7        1.0  0.88600  0.25000  0.45500  1.0000
  S   S8        1.0  0.60800  0.75000  0.46500  1.0000
  S   S9        1.0  0.39200  0.25000  0.53500  1.0000
  S   S10       1.0  0.11400  0.75000  0.54500  1.0000
  S   S11       1.0  0.80500  0.75000  0.62600  1.0000
  S   S12       1.0  0.22500  0.25000  0.73100  1.0000
  S   S13       1.0  0.03150  0.75000  0.75400  1.0000
  S   S14       1.0  0.23500  0.75000  0.92400  1.0000
  S   S15       1.0  0.91400  0.75000  0.93300  1.0000
  S   S16       1.0  0.56900  0.75000  0.93900  1.0000
  Ti  Ti1       1.0  0.44100  0.25000  0.22500  1.0000
  Ti  Ti2       1.0  0.15200  0.25000  0.23300  1.0000
  Ti  Ti3       1.0  0.84800  0.75000  0.76700  1.0000
  Ti  Ti4       1.0  0.55900  0.75000  0.77500  1.0000
