data_image0
_chemical_formula_structural       Cu2Pb2Ti3
_chemical_formula_sum              "Cu2 Pb2 Ti3"
_cell_length_a       7.8699
_cell_length_b       7.8699
_cell_length_c       7.8699
_cell_angle_alpha    33.6487
_cell_angle_beta     33.6487
_cell_angle_gamma    33.6487

_space_group_name_H-M_alt    "P 1"
_space_group_IT_number       1

loop_
  _space_group_symop_operation_xyz
  'x, y, z'

loop_
  _atom_site_type_symbol
  _atom_site_label
  _atom_site_symmetry_multiplicity
  _atom_site_fract_x
  _atom_site_fract_y
  _atom_site_fract_z
  _atom_site_occupancy
  Cu  Cu1       1.0  0.24600  0.24600  0.24600  1.0000
  Cu  Cu2       1.0  0.75500  0.75500  0.75500  1.0000
  Pb  Pb1       1.0  0.01080  0.01080  0.01080  1.0000
  Pb  Pb2       1.0  0.49200  0.49200  0.49200  1.0000
  Ti  Ti1       1.0  0.36900  0.36900  0.36900  1.0000
  Ti  Ti2       1.0  0.62100  0.62100  0.62100  1.0000
  Ti  Ti3       1.0  0.88000  0.88000  0.88000  1.0000
