data_image0
_chemical_formula_structural       Ag2Zr5
_chemical_formula_sum              "Ag2 Zr5"
_cell_length_a       7.5858
_cell_length_b       7.5858
_cell_length_c       7.5858
_cell_angle_alpha    38.0998
_cell_angle_beta     38.0998
_cell_angle_gamma    38.0998

_space_group_name_H-M_alt    "P 1"
_space_group_IT_number       1

loop_
  _space_group_symop_operation_xyz
  'x, y, z'

loop_
  _atom_site_type_symbol
  _atom_site_label
  _atom_site_symmetry_multiplicity
  _atom_site_fract_x
  _atom_site_fract_y
  _atom_site_fract_z
  _atom_site_occupancy
  Ag  Ag1       1.0  0.05130  0.05130  0.05130  1.0000
  Ag  Ag2       1.0  0.48400  0.48400  0.48400  1.0000
  Zr  Zr1       1.0  0.19400  0.19400  0.19400  1.0000
  Zr  Zr2       1.0  0.34200  0.34200  0.34200  1.0000
  Zr  Zr3       1.0  0.62000  0.62000  0.62000  1.0000
  Zr  Zr4       1.0  0.76800  0.76800  0.76800  1.0000
  Zr  Zr5       1.0  0.91600  0.91600  0.91600  1.0000
