data_image0
_chemical_formula_structural       Au2Ge2Sn3
_chemical_formula_sum              "Au2 Ge2 Sn3"
_cell_length_a       8.98501
_cell_length_b       8.98501
_cell_length_c       8.98501
_cell_angle_alpha    30.6835
_cell_angle_beta     30.6835
_cell_angle_gamma    30.6835

_space_group_name_H-M_alt    "P 1"
_space_group_IT_number       1

loop_
  _space_group_symop_operation_xyz
  'x, y, z'

loop_
  _atom_site_type_symbol
  _atom_site_label
  _atom_site_symmetry_multiplicity
  _atom_site_fract_x
  _atom_site_fract_y
  _atom_site_fract_z
  _atom_site_occupancy
  Au  Au1       1.0  0.00993  0.00993  0.00993  1.0000
  Au  Au2       1.0  0.49500  0.49500  0.49500  1.0000
  Ge  Ge1       1.0  0.24700  0.24700  0.24700  1.0000
  Ge  Ge2       1.0  0.75100  0.75100  0.75100  1.0000
  Sn  Sn1       1.0  0.38400  0.38400  0.38400  1.0000
  Sn  Sn2       1.0  0.62500  0.62500  0.62500  1.0000
  Sn  Sn3       1.0  0.86300  0.86300  0.86300  1.0000
