data_image0
_chemical_formula_structural       Au2Si5
_chemical_formula_sum              "Au2 Si5"
_cell_length_a       8.72705
_cell_length_b       8.72705
_cell_length_c       8.72705
_cell_angle_alpha    27.4129
_cell_angle_beta     27.4129
_cell_angle_gamma    27.4129

_space_group_name_H-M_alt    "P 1"
_space_group_IT_number       1

loop_
  _space_group_symop_operation_xyz
  'x, y, z'

loop_
  _atom_site_type_symbol
  _atom_site_label
  _atom_site_symmetry_multiplicity
  _atom_site_fract_x
  _atom_site_fract_y
  _atom_site_fract_z
  _atom_site_occupancy
  Au  Au1       1.0  0.01310  0.01310  0.01310  1.0000
  Au  Au2       1.0  0.48700  0.48700  0.48700  1.0000
  Si  Si1       1.0  0.28600  0.28600  0.28600  1.0000
  Si  Si2       1.0  0.38500  0.38500  0.38500  1.0000
  Si  Si3       1.0  0.58800  0.58800  0.58800  1.0000
  Si  Si4       1.0  0.75800  0.75800  0.75800  1.0000
  Si  Si5       1.0  0.85800  0.85800  0.85800  1.0000
