data_image0
_chemical_formula_structural       Ag2Si5
_chemical_formula_sum              "Ag2 Si5"
_cell_length_a       7.48507
_cell_length_b       7.48507
_cell_length_c       7.48507
_cell_angle_alpha    34.6621
_cell_angle_beta     34.6621
_cell_angle_gamma    34.6621

_space_group_name_H-M_alt    "P 1"
_space_group_IT_number       1

loop_
  _space_group_symop_operation_xyz
  'x, y, z'

loop_
  _atom_site_type_symbol
  _atom_site_label
  _atom_site_symmetry_multiplicity
  _atom_site_fract_x
  _atom_site_fract_y
  _atom_site_fract_z
  _atom_site_occupancy
  Ag  Ag1       1.0  0.01520  0.01520  0.01520  1.0000
  Ag  Ag2       1.0  0.49300  0.49300  0.49300  1.0000
  Si  Si1       1.0  0.25200  0.25200  0.25200  1.0000
  Si  Si2       1.0  0.37200  0.37200  0.37200  1.0000
  Si  Si3       1.0  0.62300  0.62300  0.62300  1.0000
  Si  Si4       1.0  0.74900  0.74900  0.74900  1.0000
  Si  Si5       1.0  0.87000  0.87000  0.87000  1.0000
