data_image0
_chemical_formula_structural       Cu2Hf3Si2
_chemical_formula_sum              "Cu2 Hf3 Si2"
_cell_length_a       7.83747
_cell_length_b       7.83747
_cell_length_c       7.83747
_cell_angle_alpha    32.9453
_cell_angle_beta     32.9453
_cell_angle_gamma    32.9453

_space_group_name_H-M_alt    "P 1"
_space_group_IT_number       1

loop_
  _space_group_symop_operation_xyz
  'x, y, z'

loop_
  _atom_site_type_symbol
  _atom_site_label
  _atom_site_symmetry_multiplicity
  _atom_site_fract_x
  _atom_site_fract_y
  _atom_site_fract_z
  _atom_site_occupancy
  Cu  Cu1       1.0  0.00861  0.00861  0.00861  1.0000
  Cu  Cu2       1.0  0.49600  0.49600  0.49600  1.0000
  Hf  Hf1       1.0  0.37900  0.37900  0.37900  1.0000
  Hf  Hf2       1.0  0.62500  0.62500  0.62500  1.0000
  Hf  Hf3       1.0  0.86800  0.86800  0.86800  1.0000
  Si  Si1       1.0  0.24900  0.24900  0.24900  1.0000
  Si  Si2       1.0  0.75000  0.75000  0.75000  1.0000
