data_image0
_chemical_formula_structural       Ag2Sn3Ti2
_chemical_formula_sum              "Ag2 Sn3 Ti2"
_cell_length_a       8.41232
_cell_length_b       8.41232
_cell_length_c       8.41232
_cell_angle_alpha    32.5154
_cell_angle_beta     32.5154
_cell_angle_gamma    32.5154

_space_group_name_H-M_alt    "P 1"
_space_group_IT_number       1

loop_
  _space_group_symop_operation_xyz
  'x, y, z'

loop_
  _atom_site_type_symbol
  _atom_site_label
  _atom_site_symmetry_multiplicity
  _atom_site_fract_x
  _atom_site_fract_y
  _atom_site_fract_z
  _atom_site_occupancy
  Ag  Ag1       1.0  0.00902  0.00902  0.00902  1.0000
  Ag  Ag2       1.0  0.49700  0.49700  0.49700  1.0000
  Sn  Sn1       1.0  0.38200  0.38200  0.38200  1.0000
  Sn  Sn2       1.0  0.62300  0.62300  0.62300  1.0000
  Sn  Sn3       1.0  0.86500  0.86500  0.86500  1.0000
  Ti  Ti1       1.0  0.25100  0.25100  0.25100  1.0000
  Ti  Ti2       1.0  0.74800  0.74800  0.74800  1.0000
