data_image0
_chemical_formula_structural       Au2Ge3Sn2
_chemical_formula_sum              "Au2 Ge3 Sn2"
_cell_length_a       8.63524
_cell_length_b       8.63524
_cell_length_c       8.63524
_cell_angle_alpha    31.7411
_cell_angle_beta     31.7411
_cell_angle_gamma    31.7411

_space_group_name_H-M_alt    "P 1"
_space_group_IT_number       1

loop_
  _space_group_symop_operation_xyz
  'x, y, z'

loop_
  _atom_site_type_symbol
  _atom_site_label
  _atom_site_symmetry_multiplicity
  _atom_site_fract_x
  _atom_site_fract_y
  _atom_site_fract_z
  _atom_site_occupancy
  Au  Au1       1.0  0.00295  0.00295  0.00295  1.0000
  Au  Au2       1.0  0.48100  0.48100  0.48100  1.0000
  Ge  Ge1       1.0  0.36800  0.36800  0.36800  1.0000
  Ge  Ge2       1.0  0.64600  0.64600  0.64600  1.0000
  Ge  Ge3       1.0  0.87700  0.87700  0.87700  1.0000
  Sn  Sn1       1.0  0.23500  0.23500  0.23500  1.0000
  Sn  Sn2       1.0  0.76500  0.76500  0.76500  1.0000
