data_image0
_chemical_formula_structural       Cu2Si2Sn3
_chemical_formula_sum              "Cu2 Si2 Sn3"
_cell_length_a       8.55926
_cell_length_b       8.55926
_cell_length_c       8.55926
_cell_angle_alpha    31.1165
_cell_angle_beta     31.1165
_cell_angle_gamma    31.1165

_space_group_name_H-M_alt    "P 1"
_space_group_IT_number       1

loop_
  _space_group_symop_operation_xyz
  'x, y, z'

loop_
  _atom_site_type_symbol
  _atom_site_label
  _atom_site_symmetry_multiplicity
  _atom_site_fract_x
  _atom_site_fract_y
  _atom_site_fract_z
  _atom_site_occupancy
  Cu  Cu1       1.0  0.00922  0.00922  0.00922  1.0000
  Cu  Cu2       1.0  0.50100  0.50100  0.50100  1.0000
  Si  Si1       1.0  0.24300  0.24300  0.24300  1.0000
  Si  Si2       1.0  0.74800  0.74800  0.74800  1.0000
  Sn  Sn1       1.0  0.38800  0.38800  0.38800  1.0000
  Sn  Sn2       1.0  0.62700  0.62700  0.62700  1.0000
  Sn  Sn3       1.0  0.85900  0.85900  0.85900  1.0000
