data_image0
_chemical_formula_structural       Cu2Ge5
_chemical_formula_sum              "Cu2 Ge5"
_cell_length_a       7.66606
_cell_length_b       7.66606
_cell_length_c       7.66606
_cell_angle_alpha    34.2239
_cell_angle_beta     34.2239
_cell_angle_gamma    34.2239

_space_group_name_H-M_alt    "P 1"
_space_group_IT_number       1

loop_
  _space_group_symop_operation_xyz
  'x, y, z'

loop_
  _atom_site_type_symbol
  _atom_site_label
  _atom_site_symmetry_multiplicity
  _atom_site_fract_x
  _atom_site_fract_y
  _atom_site_fract_z
  _atom_site_occupancy
  Cu  Cu1       1.0  0.24600  0.24600  0.24600  1.0000
  Cu  Cu2       1.0  0.75300  0.75300  0.75300  1.0000
  Ge  Ge1       1.0  0.00943  0.00943  0.00943  1.0000
  Ge  Ge2       1.0  0.37500  0.37500  0.37500  1.0000
  Ge  Ge3       1.0  0.49500  0.49500  0.49500  1.0000
  Ge  Ge4       1.0  0.62300  0.62300  0.62300  1.0000
  Ge  Ge5       1.0  0.87300  0.87300  0.87300  1.0000
