data_image0
_chemical_formula_structural       Ag2Hf3Pb2
_chemical_formula_sum              "Ag2 Hf3 Pb2"
_cell_length_a       8.39417
_cell_length_b       8.39417
_cell_length_c       8.39417
_cell_angle_alpha    33.6965
_cell_angle_beta     33.6965
_cell_angle_gamma    33.6965

_space_group_name_H-M_alt    "P 1"
_space_group_IT_number       1

loop_
  _space_group_symop_operation_xyz
  'x, y, z'

loop_
  _atom_site_type_symbol
  _atom_site_label
  _atom_site_symmetry_multiplicity
  _atom_site_fract_x
  _atom_site_fract_y
  _atom_site_fract_z
  _atom_site_occupancy
  Ag  Ag1       1.0  0.24200  0.24200  0.24200  1.0000
  Ag  Ag2       1.0  0.75600  0.75600  0.75600  1.0000
  Hf  Hf1       1.0  0.37200  0.37200  0.37200  1.0000
  Hf  Hf2       1.0  0.62400  0.62400  0.62400  1.0000
  Hf  Hf3       1.0  0.87900  0.87900  0.87900  1.0000
  Pb  Pb1       1.0  0.00897  0.00897  0.00897  1.0000
  Pb  Pb2       1.0  0.49400  0.49400  0.49400  1.0000
