data_image0
_chemical_formula_structural       Cu2Sn5
_chemical_formula_sum              "Cu2 Sn5"
_cell_length_a       8.5025
_cell_length_b       8.5025
_cell_length_c       8.5025
_cell_angle_alpha    34.4829
_cell_angle_beta     34.4829
_cell_angle_gamma    34.4829

_space_group_name_H-M_alt    "P 1"
_space_group_IT_number       1

loop_
  _space_group_symop_operation_xyz
  'x, y, z'

loop_
  _atom_site_type_symbol
  _atom_site_label
  _atom_site_symmetry_multiplicity
  _atom_site_fract_x
  _atom_site_fract_y
  _atom_site_fract_z
  _atom_site_occupancy
  Cu  Cu1       1.0  0.24700  0.24700  0.24700  1.0000
  Cu  Cu2       1.0  0.75300  0.75300  0.75300  1.0000
  Sn  Sn1       1.0  0.00817  0.00817  0.00817  1.0000
  Sn  Sn2       1.0  0.37400  0.37400  0.37400  1.0000
  Sn  Sn3       1.0  0.49500  0.49500  0.49500  1.0000
  Sn  Sn4       1.0  0.62400  0.62400  0.62400  1.0000
  Sn  Sn5       1.0  0.87400  0.87400  0.87400  1.0000
