data_image0
_chemical_formula_structural       Ag2Ge2Sn3
_chemical_formula_sum              "Ag2 Ge2 Sn3"
_cell_length_a       8.57658
_cell_length_b       8.57658
_cell_length_c       8.57658
_cell_angle_alpha    33.3813
_cell_angle_beta     33.3813
_cell_angle_gamma    33.3813

_space_group_name_H-M_alt    "P 1"
_space_group_IT_number       1

loop_
  _space_group_symop_operation_xyz
  'x, y, z'

loop_
  _atom_site_type_symbol
  _atom_site_label
  _atom_site_symmetry_multiplicity
  _atom_site_fract_x
  _atom_site_fract_y
  _atom_site_fract_z
  _atom_site_occupancy
  Ag  Ag1       1.0  0.24000  0.24000  0.24000  1.0000
  Ag  Ag2       1.0  0.75300  0.75300  0.75300  1.0000
  Ge  Ge1       1.0  0.00427  0.00427  0.00427  1.0000
  Ge  Ge2       1.0  0.50000  0.50000  0.50000  1.0000
  Sn  Sn1       1.0  0.38200  0.38200  0.38200  1.0000
  Sn  Sn2       1.0  0.62400  0.62400  0.62400  1.0000
  Sn  Sn3       1.0  0.87100  0.87100  0.87100  1.0000
