data_image0
_chemical_formula_structural       Ag2Pb2Zr3
_chemical_formula_sum              "Ag2 Pb2 Zr3"
_cell_length_a       8.50415
_cell_length_b       8.50415
_cell_length_c       8.50415
_cell_angle_alpha    33.4478
_cell_angle_beta     33.4478
_cell_angle_gamma    33.4478

_space_group_name_H-M_alt    "P 1"
_space_group_IT_number       1

loop_
  _space_group_symop_operation_xyz
  'x, y, z'

loop_
  _atom_site_type_symbol
  _atom_site_label
  _atom_site_symmetry_multiplicity
  _atom_site_fract_x
  _atom_site_fract_y
  _atom_site_fract_z
  _atom_site_occupancy
  Ag  Ag1       1.0  0.24100  0.24100  0.24100  1.0000
  Ag  Ag2       1.0  0.75700  0.75700  0.75700  1.0000
  Pb  Pb1       1.0  0.00691  0.00691  0.00691  1.0000
  Pb  Pb2       1.0  0.49500  0.49500  0.49500  1.0000
  Zr  Zr1       1.0  0.37300  0.37300  0.37300  1.0000
  Zr  Zr2       1.0  0.62400  0.62400  0.62400  1.0000
  Zr  Zr3       1.0  0.87800  0.87800  0.87800  1.0000
