data_image0
_chemical_formula_structural       Cu2Hf2Sn3
_chemical_formula_sum              "Cu2 Hf2 Sn3"
_cell_length_a       8.89542
_cell_length_b       8.89542
_cell_length_c       8.89542
_cell_angle_alpha    29.5817
_cell_angle_beta     29.5817
_cell_angle_gamma    29.5817

_space_group_name_H-M_alt    "P 1"
_space_group_IT_number       1

loop_
  _space_group_symop_operation_xyz
  'x, y, z'

loop_
  _atom_site_type_symbol
  _atom_site_label
  _atom_site_symmetry_multiplicity
  _atom_site_fract_x
  _atom_site_fract_y
  _atom_site_fract_z
  _atom_site_occupancy
  Cu  Cu1       1.0  0.01080  0.01080  0.01080  1.0000
  Cu  Cu2       1.0  0.49600  0.49600  0.49600  1.0000
  Hf  Hf1       1.0  0.24700  0.24700  0.24700  1.0000
  Hf  Hf2       1.0  0.75100  0.75100  0.75100  1.0000
  Sn  Sn1       1.0  0.38000  0.38000  0.38000  1.0000
  Sn  Sn2       1.0  0.63000  0.63000  0.63000  1.0000
  Sn  Sn3       1.0  0.85900  0.85900  0.85900  1.0000
