data_image0
_chemical_formula_structural       Cu2Ge2Sn3
_chemical_formula_sum              "Cu2 Ge2 Sn3"
_cell_length_a       8.74321
_cell_length_b       8.74321
_cell_length_c       8.74321
_cell_angle_alpha    30.8203
_cell_angle_beta     30.8203
_cell_angle_gamma    30.8203

_space_group_name_H-M_alt    "P 1"
_space_group_IT_number       1

loop_
  _space_group_symop_operation_xyz
  'x, y, z'

loop_
  _atom_site_type_symbol
  _atom_site_label
  _atom_site_symmetry_multiplicity
  _atom_site_fract_x
  _atom_site_fract_y
  _atom_site_fract_z
  _atom_site_occupancy
  Cu  Cu1       1.0  0.24500  0.24500  0.24500  1.0000
  Cu  Cu2       1.0  0.74800  0.74800  0.74800  1.0000
  Ge  Ge1       1.0  0.00804  0.00804  0.00804  1.0000
  Ge  Ge2       1.0  0.49900  0.49900  0.49900  1.0000
  Sn  Sn1       1.0  0.38900  0.38900  0.38900  1.0000
  Sn  Sn2       1.0  0.62100  0.62100  0.62100  1.0000
  Sn  Sn3       1.0  0.86500  0.86500  0.86500  1.0000
