data_image0
_chemical_formula_structural       Cu2Si3Zr2
_chemical_formula_sum              "Cu2 Si3 Zr2"
_cell_length_a       8.97993
_cell_length_b       8.97993
_cell_length_c       8.97993
_cell_angle_alpha    25.1961
_cell_angle_beta     25.1961
_cell_angle_gamma    25.1961

_space_group_name_H-M_alt    "P 1"
_space_group_IT_number       1

loop_
  _space_group_symop_operation_xyz
  'x, y, z'

loop_
  _atom_site_type_symbol
  _atom_site_label
  _atom_site_symmetry_multiplicity
  _atom_site_fract_x
  _atom_site_fract_y
  _atom_site_fract_z
  _atom_site_occupancy
  Cu  Cu1       1.0  0.00640  0.00640  0.00640  1.0000
  Cu  Cu2       1.0  0.50200  0.50200  0.50200  1.0000
  Si  Si1       1.0  0.36200  0.36200  0.36200  1.0000
  Si  Si2       1.0  0.64500  0.64500  0.64500  1.0000
  Si  Si3       1.0  0.85600  0.85600  0.85600  1.0000
  Zr  Zr1       1.0  0.24900  0.24900  0.24900  1.0000
  Zr  Zr2       1.0  0.75600  0.75600  0.75600  1.0000
