data_image0
_chemical_formula_structural       Cu2Si3Ti2
_chemical_formula_sum              "Cu2 Si3 Ti2"
_cell_length_a       8.07016
_cell_length_b       8.07016
_cell_length_c       8.07016
_cell_angle_alpha    28.2427
_cell_angle_beta     28.2427
_cell_angle_gamma    28.2427

_space_group_name_H-M_alt    "P 1"
_space_group_IT_number       1

loop_
  _space_group_symop_operation_xyz
  'x, y, z'

loop_
  _atom_site_type_symbol
  _atom_site_label
  _atom_site_symmetry_multiplicity
  _atom_site_fract_x
  _atom_site_fract_y
  _atom_site_fract_z
  _atom_site_occupancy
  Cu  Cu1       1.0  0.00600  0.00600  0.00600  1.0000
  Cu  Cu2       1.0  0.49800  0.49800  0.49800  1.0000
  Si  Si1       1.0  0.37300  0.37300  0.37300  1.0000
  Si  Si2       1.0  0.63900  0.63900  0.63900  1.0000
  Si  Si3       1.0  0.85900  0.85900  0.85900  1.0000
  Ti  Ti1       1.0  0.24600  0.24600  0.24600  1.0000
  Ti  Ti2       1.0  0.75400  0.75400  0.75400  1.0000
