data_image0
_chemical_formula_structural       Au2Ge2Si3
_chemical_formula_sum              "Au2 Ge2 Si3"
_cell_length_a       8.42772
_cell_length_b       8.42772
_cell_length_c       8.42772
_cell_angle_alpha    29.8607
_cell_angle_beta     29.8607
_cell_angle_gamma    29.8607

_space_group_name_H-M_alt    "P 1"
_space_group_IT_number       1

loop_
  _space_group_symop_operation_xyz
  'x, y, z'

loop_
  _atom_site_type_symbol
  _atom_site_label
  _atom_site_symmetry_multiplicity
  _atom_site_fract_x
  _atom_site_fract_y
  _atom_site_fract_z
  _atom_site_occupancy
  Au  Au1       1.0  0.00404  0.00404  0.00404  1.0000
  Au  Au2       1.0  0.48300  0.48300  0.48300  1.0000
  Ge  Ge1       1.0  0.23600  0.23600  0.23600  1.0000
  Ge  Ge2       1.0  0.76200  0.76200  0.76200  1.0000
  Si  Si1       1.0  0.37500  0.37500  0.37500  1.0000
  Si  Si2       1.0  0.64700  0.64700  0.64700  1.0000
  Si  Si3       1.0  0.86800  0.86800  0.86800  1.0000
