data_image0
_chemical_formula_structural       Co2H16O20P4
_chemical_formula_sum              "Co2 H16 O20 P4"
_cell_length_a       7
_cell_length_b       9.83542
_cell_length_c       5.15148
_cell_angle_alpha    90
_cell_angle_beta     92.0129
_cell_angle_gamma    90

_space_group_name_H-M_alt    "P 1"
_space_group_IT_number       1

loop_
  _space_group_symop_operation_xyz
  'x, y, z'

loop_
  _atom_site_type_symbol
  _atom_site_label
  _atom_site_symmetry_multiplicity
  _atom_site_fract_x
  _atom_site_fract_y
  _atom_site_fract_z
  _atom_site_occupancy
  Co  Co1       1.0  0.00000  0.00000  0.00000  1.0000
  Co  Co2       1.0  0.50000  0.50000  0.50000  1.0000
  H   H1        1.0  0.67000  0.57800  0.06440  1.0000
  H   H2        1.0  0.99400  0.27100  0.12200  1.0000
  H   H3        1.0  0.60500  0.10400  0.14800  1.0000
  H   H4        1.0  0.77600  0.44800  0.18200  1.0000
  H   H5        1.0  0.72400  0.94800  0.31800  1.0000
  H   H6        1.0  0.89500  0.60400  0.35200  1.0000
  H   H7        1.0  0.50600  0.77100  0.37800  1.0000
  H   H8        1.0  0.83000  0.07750  0.43600  1.0000
  H   H9        1.0  0.17000  0.92200  0.56400  1.0000
  H   H10       1.0  0.49400  0.22900  0.62200  1.0000
  H   H11       1.0  0.10500  0.39600  0.64800  1.0000
  H   H12       1.0  0.27600  0.05160  0.68200  1.0000
  H   H13       1.0  0.22400  0.55200  0.81800  1.0000
  H   H14       1.0  0.39500  0.89600  0.85200  1.0000
  H   H15       1.0  0.00599  0.72900  0.87800  1.0000
  H   H16       1.0  0.33000  0.42200  0.93600  1.0000
  O   O1        1.0  0.88000  0.32900  0.03700  1.0000
  O   O2        1.0  0.47800  0.13900  0.06790  1.0000
  O   O3        1.0  0.13700  0.17100  0.16600  1.0000
  O   O4        1.0  0.36600  0.37000  0.22500  1.0000
  O   O5        1.0  0.71500  0.53600  0.23700  1.0000
  O   O6        1.0  0.78500  0.03600  0.26300  1.0000
  O   O7        1.0  0.13400  0.87000  0.27500  1.0000
  O   O8        1.0  0.36300  0.67100  0.33400  1.0000
  O   O9        1.0  0.02150  0.63900  0.43200  1.0000
  O   O10       1.0  0.62000  0.82900  0.46300  1.0000
  O   O11       1.0  0.38000  0.17100  0.53700  1.0000
  O   O12       1.0  0.97800  0.36100  0.56800  1.0000
  O   O13       1.0  0.63700  0.32900  0.66600  1.0000
  O   O14       1.0  0.86600  0.13000  0.72500  1.0000
  O   O15       1.0  0.21500  0.96400  0.73700  1.0000
  O   O16       1.0  0.28500  0.46400  0.76300  1.0000
  O   O17       1.0  0.63400  0.63000  0.77500  1.0000
  O   O18       1.0  0.86300  0.82900  0.83400  1.0000
  O   O19       1.0  0.52200  0.86100  0.93200  1.0000
  O   O20       1.0  0.12000  0.67100  0.96300  1.0000
  P   P1        1.0  0.33900  0.21600  0.24600  1.0000
  P   P2        1.0  0.16100  0.71600  0.25400  1.0000
  P   P3        1.0  0.83900  0.28400  0.74600  1.0000
  P   P4        1.0  0.66100  0.78400  0.75400  1.0000
