data_image0
_chemical_formula_structural       Cu2Sn3Zr2
_chemical_formula_sum              "Cu2 Sn3 Zr2"
_cell_length_a       8.91207
_cell_length_b       8.91207
_cell_length_c       8.91207
_cell_angle_alpha    29.6011
_cell_angle_beta     29.6011
_cell_angle_gamma    29.6011

_space_group_name_H-M_alt    "P 1"
_space_group_IT_number       1

loop_
  _space_group_symop_operation_xyz
  'x, y, z'

loop_
  _atom_site_type_symbol
  _atom_site_label
  _atom_site_symmetry_multiplicity
  _atom_site_fract_x
  _atom_site_fract_y
  _atom_site_fract_z
  _atom_site_occupancy
  Cu  Cu1       1.0  0.00730  0.00730  0.00730  1.0000
  Cu  Cu2       1.0  0.49800  0.49800  0.49800  1.0000
  Sn  Sn1       1.0  0.38000  0.38000  0.38000  1.0000
  Sn  Sn2       1.0  0.63100  0.63100  0.63100  1.0000
  Sn  Sn3       1.0  0.86000  0.86000  0.86000  1.0000
  Zr  Zr1       1.0  0.24700  0.24700  0.24700  1.0000
  Zr  Zr2       1.0  0.75200  0.75200  0.75200  1.0000
