data_image0
_chemical_formula_structural       Cu2Sn3Ti2
_chemical_formula_sum              "Cu2 Sn3 Ti2"
_cell_length_a       8.49593
_cell_length_b       8.49593
_cell_length_c       8.49593
_cell_angle_alpha    30.5341
_cell_angle_beta     30.5341
_cell_angle_gamma    30.5341

_space_group_name_H-M_alt    "P 1"
_space_group_IT_number       1

loop_
  _space_group_symop_operation_xyz
  'x, y, z'

loop_
  _atom_site_type_symbol
  _atom_site_label
  _atom_site_symmetry_multiplicity
  _atom_site_fract_x
  _atom_site_fract_y
  _atom_site_fract_z
  _atom_site_occupancy
  Cu  Cu1       1.0  0.00823  0.00823  0.00823  1.0000
  Cu  Cu2       1.0  0.50000  0.50000  0.50000  1.0000
  Sn  Sn1       1.0  0.38500  0.38500  0.38500  1.0000
  Sn  Sn2       1.0  0.62700  0.62700  0.62700  1.0000
  Sn  Sn3       1.0  0.85900  0.85900  0.85900  1.0000
  Ti  Ti1       1.0  0.24600  0.24600  0.24600  1.0000
  Ti  Ti2       1.0  0.74900  0.74900  0.74900  1.0000
