data_image0
_chemical_formula_structural       Au2Si2Sn3
_chemical_formula_sum              "Au2 Si2 Sn3"
_cell_length_a       8.55493
_cell_length_b       8.55493
_cell_length_c       8.55493
_cell_angle_alpha    32.7787
_cell_angle_beta     32.7787
_cell_angle_gamma    32.7787

_space_group_name_H-M_alt    "P 1"
_space_group_IT_number       1

loop_
  _space_group_symop_operation_xyz
  'x, y, z'

loop_
  _atom_site_type_symbol
  _atom_site_label
  _atom_site_symmetry_multiplicity
  _atom_site_fract_x
  _atom_site_fract_y
  _atom_site_fract_z
  _atom_site_occupancy
  Au  Au1       1.0  0.01770  0.01770  0.01770  1.0000
  Au  Au2       1.0  0.49700  0.49700  0.49700  1.0000
  Si  Si1       1.0  0.26000  0.26000  0.26000  1.0000
  Si  Si2       1.0  0.74200  0.74200  0.74200  1.0000
  Sn  Sn1       1.0  0.38200  0.38200  0.38200  1.0000
  Sn  Sn2       1.0  0.61900  0.61900  0.61900  1.0000
  Sn  Sn3       1.0  0.85800  0.85800  0.85800  1.0000
