data_image0
_chemical_formula_structural       Cu2Ge2Si3
_chemical_formula_sum              "Cu2 Ge2 Si3"
_cell_length_a       9.24726
_cell_length_b       9.24726
_cell_length_c       9.24726
_cell_angle_alpha    23.7172
_cell_angle_beta     23.7172
_cell_angle_gamma    23.7172

_space_group_name_H-M_alt    "P 1"
_space_group_IT_number       1

loop_
  _space_group_symop_operation_xyz
  'x, y, z'

loop_
  _atom_site_type_symbol
  _atom_site_label
  _atom_site_symmetry_multiplicity
  _atom_site_fract_x
  _atom_site_fract_y
  _atom_site_fract_z
  _atom_site_occupancy
  Cu  Cu1       1.0  0.24200  0.24200  0.24200  1.0000
  Cu  Cu2       1.0  0.77300  0.77300  0.77300  1.0000
  Ge  Ge1       1.0  0.05710  0.05710  0.05710  1.0000
  Ge  Ge2       1.0  0.48100  0.48100  0.48100  1.0000
  Si  Si1       1.0  0.33300  0.33300  0.33300  1.0000
  Si  Si2       1.0  0.62000  0.62000  0.62000  1.0000
  Si  Si3       1.0  0.86900  0.86900  0.86900  1.0000
