data_image0
_chemical_formula_structural       Ag2Ge3Sn2
_chemical_formula_sum              "Ag2 Ge3 Sn2"
_cell_length_a       8.24944
_cell_length_b       8.24944
_cell_length_c       8.24944
_cell_angle_alpha    34.2486
_cell_angle_beta     34.2486
_cell_angle_gamma    34.2486

_space_group_name_H-M_alt    "P 1"
_space_group_IT_number       1

loop_
  _space_group_symop_operation_xyz
  'x, y, z'

loop_
  _atom_site_type_symbol
  _atom_site_label
  _atom_site_symmetry_multiplicity
  _atom_site_fract_x
  _atom_site_fract_y
  _atom_site_fract_z
  _atom_site_occupancy
  Ag  Ag1       1.0  0.24500  0.24500  0.24500  1.0000
  Ag  Ag2       1.0  0.75400  0.75400  0.75400  1.0000
  Ge  Ge1       1.0  0.37400  0.37400  0.37400  1.0000
  Ge  Ge2       1.0  0.62300  0.62300  0.62300  1.0000
  Ge  Ge3       1.0  0.87600  0.87600  0.87600  1.0000
  Sn  Sn1       1.0  0.00770  0.00770  0.00770  1.0000
  Sn  Sn2       1.0  0.49500  0.49500  0.49500  1.0000
