data_image0
_chemical_formula_structural       Cu2Pb2Si3
_chemical_formula_sum              "Cu2 Pb2 Si3"
_cell_length_a       9.28894
_cell_length_b       9.28894
_cell_length_c       9.28894
_cell_angle_alpha    25.9562
_cell_angle_beta     25.9562
_cell_angle_gamma    25.9562

_space_group_name_H-M_alt    "P 1"
_space_group_IT_number       1

loop_
  _space_group_symop_operation_xyz
  'x, y, z'

loop_
  _atom_site_type_symbol
  _atom_site_label
  _atom_site_symmetry_multiplicity
  _atom_site_fract_x
  _atom_site_fract_y
  _atom_site_fract_z
  _atom_site_occupancy
  Cu  Cu1       1.0  0.23200  0.23200  0.23200  1.0000
  Cu  Cu2       1.0  0.77200  0.77200  0.77200  1.0000
  Pb  Pb1       1.0  0.05150  0.05150  0.05150  1.0000
  Pb  Pb2       1.0  0.48800  0.48800  0.48800  1.0000
  Si  Si1       1.0  0.32200  0.32200  0.32200  1.0000
  Si  Si2       1.0  0.62100  0.62100  0.62100  1.0000
  Si  Si3       1.0  0.88800  0.88800  0.88800  1.0000
