data_image0
_chemical_formula_structural       Cu2Ge3Si2
_chemical_formula_sum              "Cu2 Ge3 Si2"
_cell_length_a       8.11883
_cell_length_b       8.11883
_cell_length_c       8.11883
_cell_angle_alpha    30.0762
_cell_angle_beta     30.0762
_cell_angle_gamma    30.0762

_space_group_name_H-M_alt    "P 1"
_space_group_IT_number       1

loop_
  _space_group_symop_operation_xyz
  'x, y, z'

loop_
  _atom_site_type_symbol
  _atom_site_label
  _atom_site_symmetry_multiplicity
  _atom_site_fract_x
  _atom_site_fract_y
  _atom_site_fract_z
  _atom_site_occupancy
  Cu  Cu1       1.0  0.01270  0.01270  0.01270  1.0000
  Cu  Cu2       1.0  0.49800  0.49800  0.49800  1.0000
  Ge  Ge1       1.0  0.38600  0.38600  0.38600  1.0000
  Ge  Ge2       1.0  0.62900  0.62900  0.62900  1.0000
  Ge  Ge3       1.0  0.85900  0.85900  0.85900  1.0000
  Si  Si1       1.0  0.24100  0.24100  0.24100  1.0000
  Si  Si2       1.0  0.75000  0.75000  0.75000  1.0000
