data_image0
_chemical_formula_structural       Ag2Ge3Ti2
_chemical_formula_sum              "Ag2 Ge3 Ti2"
_cell_length_a       8.42769
_cell_length_b       8.42769
_cell_length_c       8.42769
_cell_angle_alpha    29.4945
_cell_angle_beta     29.4945
_cell_angle_gamma    29.4945

_space_group_name_H-M_alt    "P 1"
_space_group_IT_number       1

loop_
  _space_group_symop_operation_xyz
  'x, y, z'

loop_
  _atom_site_type_symbol
  _atom_site_label
  _atom_site_symmetry_multiplicity
  _atom_site_fract_x
  _atom_site_fract_y
  _atom_site_fract_z
  _atom_site_occupancy
  Ag  Ag1       1.0  0.00366  0.00366  0.00366  1.0000
  Ag  Ag2       1.0  0.49900  0.49900  0.49900  1.0000
  Ge  Ge1       1.0  0.38900  0.38900  0.38900  1.0000
  Ge  Ge2       1.0  0.62300  0.62300  0.62300  1.0000
  Ge  Ge3       1.0  0.85900  0.85900  0.85900  1.0000
  Ti  Ti1       1.0  0.25000  0.25000  0.25000  1.0000
  Ti  Ti2       1.0  0.75200  0.75200  0.75200  1.0000
