data_image0
_chemical_formula_structural       Cl8Hf2O32
_chemical_formula_sum              "Cl8 Hf2 O32"
_cell_length_a       7.23097
_cell_length_b       7.23097
_cell_length_c       12.5285
_cell_angle_alpha    105.074
_cell_angle_beta     74.9261
_cell_angle_gamma    116.917

_space_group_name_H-M_alt    "P 1"
_space_group_IT_number       1

loop_
  _space_group_symop_operation_xyz
  'x, y, z'

loop_
  _atom_site_type_symbol
  _atom_site_label
  _atom_site_symmetry_multiplicity
  _atom_site_fract_x
  _atom_site_fract_y
  _atom_site_fract_z
  _atom_site_occupancy
  Cl  Cl1       1.0  0.97800  0.59100  0.17500  1.0000
  Cl  Cl2       1.0  0.59100  0.96800  0.26400  1.0000
  Cl  Cl3       1.0  0.15100  0.27400  0.42000  1.0000
  Cl  Cl4       1.0  0.76300  0.63700  0.49700  1.0000
  Cl  Cl5       1.0  0.40900  0.02180  0.67500  1.0000
  Cl  Cl6       1.0  0.03160  0.40900  0.76400  1.0000
  Cl  Cl7       1.0  0.72600  0.84900  0.92000  1.0000
  Cl  Cl8       1.0  0.36300  0.23700  0.99700  1.0000
  Hf  Hf1       1.0  0.40000  0.65000  0.09020  1.0000
  Hf  Hf2       1.0  0.35000  0.60000  0.59000  1.0000
  O   O1        1.0  0.72400  0.73500  0.00878  1.0000
  O   O2        1.0  0.18900  0.04630  0.01860  1.0000
  O   O3        1.0  0.12600  0.68400  0.07290  1.0000
  O   O4        1.0  0.43300  0.37400  0.10700  1.0000
  O   O5        1.0  0.80000  0.41200  0.14300  1.0000
  O   O6        1.0  0.48000  0.97200  0.17600  1.0000
  O   O7        1.0  0.12200  0.52800  0.21500  1.0000
  O   O8        1.0  0.54700  0.73500  0.23800  1.0000
  O   O9        1.0  0.80900  0.09390  0.24100  1.0000
  O   O10       1.0  0.93600  0.75100  0.25600  1.0000
  O   O11       1.0  0.25400  0.22600  0.31100  1.0000
  O   O12       1.0  0.48800  0.01700  0.37300  1.0000
  O   O13       1.0  0.78500  0.46300  0.42000  1.0000
  O   O14       1.0  0.93500  0.14500  0.44400  1.0000
  O   O15       1.0  0.18900  0.50600  0.44600  1.0000
  O   O16       1.0  0.62000  0.70500  0.46000  1.0000
  O   O17       1.0  0.26500  0.27600  0.50900  1.0000
  O   O18       1.0  0.95400  0.81100  0.51900  1.0000
  O   O19       1.0  0.31600  0.87400  0.57300  1.0000
  O   O20       1.0  0.62600  0.56700  0.60700  1.0000
  O   O21       1.0  0.58800  0.20000  0.64300  1.0000
  O   O22       1.0  0.02750  0.52000  0.67600  1.0000
  O   O23       1.0  0.47200  0.87800  0.71500  1.0000
  O   O24       1.0  0.26500  0.45300  0.73800  1.0000
  O   O25       1.0  0.90600  0.19100  0.74100  1.0000
  O   O26       1.0  0.24900  0.06420  0.75600  1.0000
  O   O27       1.0  0.77400  0.74600  0.81100  1.0000
  O   O28       1.0  0.98300  0.51200  0.87300  1.0000
  O   O29       1.0  0.53700  0.21500  0.92000  1.0000
  O   O30       1.0  0.85500  0.06520  0.94400  1.0000
  O   O31       1.0  0.49400  0.81100  0.94600  1.0000
  O   O32       1.0  0.29500  0.38000  0.96000  1.0000
