data_image0
_chemical_formula_structural       Br2O24P6Sr10
_chemical_formula_sum              "Br2 O24 P6 Sr10"
_cell_length_a       9.92974
_cell_length_b       9.92973
_cell_length_c       7.18944
_cell_angle_alpha    90
_cell_angle_beta     90
_cell_angle_gamma    120

_space_group_name_H-M_alt    "P 1"
_space_group_IT_number       1

loop_
  _space_group_symop_operation_xyz
  'x, y, z'

loop_
  _atom_site_type_symbol
  _atom_site_label
  _atom_site_symmetry_multiplicity
  _atom_site_fract_x
  _atom_site_fract_y
  _atom_site_fract_z
  _atom_site_occupancy
  Br  Br1       1.0  0.00000  0.00000  0.00000  1.0000
  Br  Br2       1.0  0.00000  0.00000  0.50000  1.0000
  O   O1        1.0  0.73300  0.09030  0.07500  1.0000
  O   O2        1.0  0.35700  0.26700  0.07500  1.0000
  O   O3        1.0  0.91000  0.64300  0.07500  1.0000
  O   O4        1.0  0.53400  0.12300  0.25000  1.0000
  O   O5        1.0  0.87700  0.41100  0.25000  1.0000
  O   O6        1.0  0.58900  0.46600  0.25000  1.0000
  O   O7        1.0  0.33900  0.48300  0.25000  1.0000
  O   O8        1.0  0.14400  0.66100  0.25000  1.0000
  O   O9        1.0  0.51700  0.85600  0.25000  1.0000
  O   O10       1.0  0.91000  0.64300  0.42500  1.0000
  O   O11       1.0  0.73300  0.09030  0.42500  1.0000
  O   O12       1.0  0.35700  0.26700  0.42500  1.0000
  O   O13       1.0  0.64300  0.73300  0.57500  1.0000
  O   O14       1.0  0.26700  0.91000  0.57500  1.0000
  O   O15       1.0  0.09030  0.35700  0.57500  1.0000
  O   O16       1.0  0.48300  0.14400  0.75000  1.0000
  O   O17       1.0  0.85600  0.33900  0.75000  1.0000
  O   O18       1.0  0.66100  0.51700  0.75000  1.0000
  O   O19       1.0  0.41100  0.53400  0.75000  1.0000
  O   O20       1.0  0.12300  0.58900  0.75000  1.0000
  O   O21       1.0  0.46600  0.87700  0.75000  1.0000
  O   O22       1.0  0.09030  0.35700  0.92500  1.0000
  O   O23       1.0  0.64300  0.73300  0.92500  1.0000
  O   O24       1.0  0.26700  0.91000  0.92500  1.0000
  P   P1        1.0  0.62800  0.03560  0.25000  1.0000
  P   P2        1.0  0.40800  0.37200  0.25000  1.0000
  P   P3        1.0  0.96400  0.59200  0.25000  1.0000
  P   P4        1.0  0.03560  0.40800  0.75000  1.0000
  P   P5        1.0  0.59200  0.62800  0.75000  1.0000
  P   P6        1.0  0.37200  0.96400  0.75000  1.0000
  Sr  Sr1       1.0  0.33300  0.66700  0.00139  1.0000
  Sr  Sr2       1.0  0.00811  0.26200  0.25000  1.0000
  Sr  Sr3       1.0  0.73800  0.74600  0.25000  1.0000
  Sr  Sr4       1.0  0.25400  0.99200  0.25000  1.0000
  Sr  Sr5       1.0  0.33300  0.66700  0.49900  1.0000
  Sr  Sr6       1.0  0.66700  0.33300  0.50100  1.0000
  Sr  Sr7       1.0  0.74600  0.00812  0.75000  1.0000
  Sr  Sr8       1.0  0.26200  0.25400  0.75000  1.0000
  Sr  Sr9       1.0  0.99200  0.73800  0.75000  1.0000
  Sr  Sr10      1.0  0.66700  0.33300  0.99900  1.0000
