data_image0
_chemical_formula_structural       Au2Pb2Si3
_chemical_formula_sum              "Au2 Pb2 Si3"
_cell_length_a       9.29816
_cell_length_b       9.29816
_cell_length_c       9.29816
_cell_angle_alpha    27.7467
_cell_angle_beta     27.7467
_cell_angle_gamma    27.7467

_space_group_name_H-M_alt    "P 1"
_space_group_IT_number       1

loop_
  _space_group_symop_operation_xyz
  'x, y, z'

loop_
  _atom_site_type_symbol
  _atom_site_label
  _atom_site_symmetry_multiplicity
  _atom_site_fract_x
  _atom_site_fract_y
  _atom_site_fract_z
  _atom_site_occupancy
  Au  Au1       1.0  0.00624  0.00624  0.00624  1.0000
  Au  Au2       1.0  0.50600  0.50600  0.50600  1.0000
  Pb  Pb1       1.0  0.24500  0.24500  0.24500  1.0000
  Pb  Pb2       1.0  0.75600  0.75600  0.75600  1.0000
  Si  Si1       1.0  0.36100  0.36100  0.36100  1.0000
  Si  Si2       1.0  0.64400  0.64400  0.64400  1.0000
  Si  Si3       1.0  0.85600  0.85600  0.85600  1.0000
