data_image0
_chemical_formula_structural       Ag2Si3Zr2
_chemical_formula_sum              "Ag2 Si3 Zr2"
_cell_length_a       8.47503
_cell_length_b       8.47503
_cell_length_c       8.47503
_cell_angle_alpha    29.5636
_cell_angle_beta     29.5636
_cell_angle_gamma    29.5636

_space_group_name_H-M_alt    "P 1"
_space_group_IT_number       1

loop_
  _space_group_symop_operation_xyz
  'x, y, z'

loop_
  _atom_site_type_symbol
  _atom_site_label
  _atom_site_symmetry_multiplicity
  _atom_site_fract_x
  _atom_site_fract_y
  _atom_site_fract_z
  _atom_site_occupancy
  Ag  Ag1       1.0  0.00155  0.00155  0.00155  1.0000
  Ag  Ag2       1.0  0.49900  0.49900  0.49900  1.0000
  Si  Si1       1.0  0.38500  0.38500  0.38500  1.0000
  Si  Si2       1.0  0.63000  0.63000  0.63000  1.0000
  Si  Si3       1.0  0.85900  0.85900  0.85900  1.0000
  Zr  Zr1       1.0  0.24900  0.24900  0.24900  1.0000
  Zr  Zr2       1.0  0.75100  0.75100  0.75100  1.0000
