data_image0
_chemical_formula_structural       Ba2Fe4O28P8
_chemical_formula_sum              "Ba2 Fe4 O28 P8"
_cell_length_a       7.40637
_cell_length_b       7.40637
_cell_length_c       9.59514
_cell_angle_alpha    99.2878
_cell_angle_beta     80.7122
_cell_angle_gamma    91.1404

_space_group_name_H-M_alt    "P 1"
_space_group_IT_number       1

loop_
  _space_group_symop_operation_xyz
  'x, y, z'

loop_
  _atom_site_type_symbol
  _atom_site_label
  _atom_site_symmetry_multiplicity
  _atom_site_fract_x
  _atom_site_fract_y
  _atom_site_fract_z
  _atom_site_occupancy
  Ba  Ba1       1.0  0.00000  0.50000  0.00000  1.0000
  Ba  Ba2       1.0  0.50000  0.00000  0.50000  1.0000
  Fe  Fe1       1.0  0.50000  0.50000  0.00000  1.0000
  Fe  Fe2       1.0  0.05270  0.05270  0.25000  1.0000
  Fe  Fe3       1.0  0.50000  0.50000  0.50000  1.0000
  Fe  Fe4       1.0  0.94700  0.94700  0.75000  1.0000
  O   O1        1.0  0.65000  0.32900  0.07430  1.0000
  O   O2        1.0  0.65300  0.69000  0.09260  1.0000
  O   O3        1.0  0.24200  0.11100  0.09600  1.0000
  O   O4        1.0  0.94000  0.87000  0.10500  1.0000
  O   O5        1.0  0.62300  0.02260  0.16300  1.0000
  O   O6        1.0  0.29500  0.53500  0.16500  1.0000
  O   O7        1.0  0.87600  0.24400  0.21800  1.0000
  O   O8        1.0  0.24400  0.87600  0.28200  1.0000
  O   O9        1.0  0.53500  0.29500  0.33500  1.0000
  O   O10       1.0  0.02260  0.62300  0.33700  1.0000
  O   O11       1.0  0.87000  0.94000  0.39500  1.0000
  O   O12       1.0  0.11100  0.24200  0.40400  1.0000
  O   O13       1.0  0.69000  0.65300  0.40700  1.0000
  O   O14       1.0  0.32900  0.65000  0.42600  1.0000
  O   O15       1.0  0.67100  0.35000  0.57400  1.0000
  O   O16       1.0  0.31000  0.34700  0.59300  1.0000
  O   O17       1.0  0.88900  0.75800  0.59600  1.0000
  O   O18       1.0  0.13000  0.06040  0.60500  1.0000
  O   O19       1.0  0.97700  0.37700  0.66300  1.0000
  O   O20       1.0  0.46500  0.70500  0.66500  1.0000
  O   O21       1.0  0.75600  0.12400  0.71800  1.0000
  O   O22       1.0  0.12400  0.75600  0.78200  1.0000
  O   O23       1.0  0.70500  0.46500  0.83500  1.0000
  O   O24       1.0  0.37700  0.97700  0.83700  1.0000
  O   O25       1.0  0.06040  0.13000  0.89500  1.0000
  O   O26       1.0  0.75800  0.88900  0.90400  1.0000
  O   O27       1.0  0.34700  0.31000  0.90700  1.0000
  O   O28       1.0  0.35000  0.67100  0.92600  1.0000
  P   P1        1.0  0.74900  0.86700  0.05920  1.0000
  P   P2        1.0  0.67400  0.23700  0.20000  1.0000
  P   P3        1.0  0.23700  0.67400  0.30000  1.0000
  P   P4        1.0  0.86700  0.74900  0.44100  1.0000
  P   P5        1.0  0.13300  0.25100  0.55900  1.0000
  P   P6        1.0  0.76300  0.32600  0.70000  1.0000
  P   P7        1.0  0.32600  0.76300  0.80000  1.0000
  P   P8        1.0  0.25100  0.13300  0.94100  1.0000
