data_image0
_chemical_formula_structural       Ni30P9Zn3
_chemical_formula_sum              "Ni30 P9 Zn3"
_cell_length_a       7.65467
_cell_length_b       7.65481
_cell_length_c       9.3465
_cell_angle_alpha    90
_cell_angle_beta     89.9955
_cell_angle_gamma    120.001

_space_group_name_H-M_alt    "P 1"
_space_group_IT_number       1

loop_
  _space_group_symop_operation_xyz
  'x, y, z'

loop_
  _atom_site_type_symbol
  _atom_site_label
  _atom_site_symmetry_multiplicity
  _atom_site_fract_x
  _atom_site_fract_y
  _atom_site_fract_z
  _atom_site_occupancy
  Ni  Ni1       1.0  0.18300  0.81700  0.06630  1.0000
  Ni  Ni2       1.0  0.18300  0.36500  0.06630  1.0000
  Ni  Ni3       1.0  0.63500  0.81700  0.06630  1.0000
  Ni  Ni4       1.0  0.66700  0.33300  0.09740  1.0000
  Ni  Ni5       1.0  0.86000  0.14000  0.20500  1.0000
  Ni  Ni6       1.0  0.86000  0.72000  0.20500  1.0000
  Ni  Ni7       1.0  0.28000  0.14000  0.20500  1.0000
  Ni  Ni8       1.0  0.49100  0.50900  0.24100  1.0000
  Ni  Ni9       1.0  0.49100  0.98300  0.24100  1.0000
  Ni  Ni10      1.0  0.01720  0.50900  0.24100  1.0000
  Ni  Ni11      1.0  0.00000  0.00000  0.37900  1.0000
  Ni  Ni12      1.0  0.33300  0.66700  0.38600  1.0000
  Ni  Ni13      1.0  0.34100  0.34100  0.50000  1.0000
  Ni  Ni14      1.0  0.34100  0.00000  0.50000  1.0000
  Ni  Ni15      1.0  0.00000  0.34100  0.50000  1.0000
  Ni  Ni16      1.0  0.00000  0.65900  0.50000  1.0000
  Ni  Ni17      1.0  0.65900  0.00000  0.50000  1.0000
  Ni  Ni18      1.0  0.65900  0.65900  0.50000  1.0000
  Ni  Ni19      1.0  0.66700  0.33300  0.61400  1.0000
  Ni  Ni20      1.0  0.00000  0.00000  0.62100  1.0000
  Ni  Ni21      1.0  0.98300  0.49100  0.75900  1.0000
  Ni  Ni22      1.0  0.50900  0.01720  0.75900  1.0000
  Ni  Ni23      1.0  0.50900  0.49100  0.75900  1.0000
  Ni  Ni24      1.0  0.72000  0.86000  0.79500  1.0000
  Ni  Ni25      1.0  0.14000  0.86000  0.79500  1.0000
  Ni  Ni26      1.0  0.14000  0.28000  0.79500  1.0000
  Ni  Ni27      1.0  0.33300  0.66700  0.90300  1.0000
  Ni  Ni28      1.0  0.36500  0.18300  0.93400  1.0000
  Ni  Ni29      1.0  0.81700  0.18300  0.93400  1.0000
  Ni  Ni30      1.0  0.81700  0.63500  0.93400  1.0000
  P   P1        1.0  0.50000  0.00000  0.00000  1.0000
  P   P2        1.0  0.00000  0.50000  0.00000  1.0000
  P   P3        1.0  0.50000  0.50000  0.00000  1.0000
  P   P4        1.0  0.67000  0.83500  0.30900  1.0000
  P   P5        1.0  0.16500  0.33000  0.30900  1.0000
  P   P6        1.0  0.16500  0.83500  0.30900  1.0000
  P   P7        1.0  0.83500  0.16500  0.69100  1.0000
  P   P8        1.0  0.83500  0.67000  0.69100  1.0000
  P   P9        1.0  0.33000  0.16500  0.69100  1.0000
  Zn  Zn1       1.0  0.00000  0.00000  0.00000  1.0000
  Zn  Zn2       1.0  0.66700  0.33300  0.36000  1.0000
  Zn  Zn3       1.0  0.33300  0.66700  0.64000  1.0000
