data_image0
_chemical_formula_structural       Ag2Ge5
_chemical_formula_sum              "Ag2 Ge5"
_cell_length_a       7.99124
_cell_length_b       7.99124
_cell_length_c       7.99124
_cell_angle_alpha    34.0143
_cell_angle_beta     34.0143
_cell_angle_gamma    34.0143

_space_group_name_H-M_alt    "P 1"
_space_group_IT_number       1

loop_
  _space_group_symop_operation_xyz
  'x, y, z'

loop_
  _atom_site_type_symbol
  _atom_site_label
  _atom_site_symmetry_multiplicity
  _atom_site_fract_x
  _atom_site_fract_y
  _atom_site_fract_z
  _atom_site_occupancy
  Ag  Ag1       1.0  0.24200  0.24200  0.24200  1.0000
  Ag  Ag2       1.0  0.75400  0.75400  0.75400  1.0000
  Ge  Ge1       1.0  0.00699  0.00699  0.00699  1.0000
  Ge  Ge2       1.0  0.37800  0.37800  0.37800  1.0000
  Ge  Ge3       1.0  0.49700  0.49700  0.49700  1.0000
  Ge  Ge4       1.0  0.62200  0.62200  0.62200  1.0000
  Ge  Ge5       1.0  0.87500  0.87500  0.87500  1.0000
