data_image0
_chemical_formula_structural       Au2Si3Ti2
_chemical_formula_sum              "Au2 Si3 Ti2"
_cell_length_a       8.30721
_cell_length_b       8.30721
_cell_length_c       8.30721
_cell_angle_alpha    28.9993
_cell_angle_beta     28.9993
_cell_angle_gamma    28.9993

_space_group_name_H-M_alt    "P 1"
_space_group_IT_number       1

loop_
  _space_group_symop_operation_xyz
  'x, y, z'

loop_
  _atom_site_type_symbol
  _atom_site_label
  _atom_site_symmetry_multiplicity
  _atom_site_fract_x
  _atom_site_fract_y
  _atom_site_fract_z
  _atom_site_occupancy
  Au  Au1       1.0  0.00160  0.00160  0.00160  1.0000
  Au  Au2       1.0  0.49900  0.49900  0.49900  1.0000
  Si  Si1       1.0  0.38900  0.38900  0.38900  1.0000
  Si  Si2       1.0  0.62800  0.62800  0.62800  1.0000
  Si  Si3       1.0  0.85800  0.85800  0.85800  1.0000
  Ti  Ti1       1.0  0.24800  0.24800  0.24800  1.0000
  Ti  Ti2       1.0  0.75200  0.75200  0.75200  1.0000
