data_image0
_chemical_formula_structural       Cu24Nd6P12
_chemical_formula_sum              "Cu24 Nd6 P12"
_cell_length_a       14.6322
_cell_length_b       10.9765
_cell_length_c       3.87511
_cell_angle_alpha    90
_cell_angle_beta     90
_cell_angle_gamma    90

_space_group_name_H-M_alt    "P 1"
_space_group_IT_number       1

loop_
  _space_group_symop_operation_xyz
  'x, y, z'

loop_
  _atom_site_type_symbol
  _atom_site_label
  _atom_site_symmetry_multiplicity
  _atom_site_fract_x
  _atom_site_fract_y
  _atom_site_fract_z
  _atom_site_occupancy
  Cu  Cu1       1.0  0.43600  0.06830  0.00000  1.0000
  Cu  Cu2       1.0  0.28400  0.17100  0.00000  1.0000
  Cu  Cu3       1.0  0.91100  0.25700  0.00000  1.0000
  Cu  Cu4       1.0  0.53500  0.26500  0.00000  1.0000
  Cu  Cu5       1.0  0.05290  0.40000  0.00000  1.0000
  Cu  Cu6       1.0  0.66800  0.42600  0.00000  1.0000
  Cu  Cu7       1.0  0.33200  0.57400  0.00000  1.0000
  Cu  Cu8       1.0  0.94700  0.60000  0.00000  1.0000
  Cu  Cu9       1.0  0.46500  0.73500  0.00000  1.0000
  Cu  Cu10      1.0  0.08920  0.74300  0.00000  1.0000
  Cu  Cu11      1.0  0.71600  0.82900  0.00000  1.0000
  Cu  Cu12      1.0  0.56400  0.93200  0.00000  1.0000
  Cu  Cu13      1.0  0.16800  0.07440  0.50000  1.0000
  Cu  Cu14      1.0  0.55300  0.09990  0.50000  1.0000
  Cu  Cu15      1.0  0.03530  0.23500  0.50000  1.0000
  Cu  Cu16      1.0  0.41100  0.24300  0.50000  1.0000
  Cu  Cu17      1.0  0.78400  0.32900  0.50000  1.0000
  Cu  Cu18      1.0  0.93600  0.43200  0.50000  1.0000
  Cu  Cu19      1.0  0.06400  0.56800  0.50000  1.0000
  Cu  Cu20      1.0  0.21600  0.67100  0.50000  1.0000
  Cu  Cu21      1.0  0.58900  0.75700  0.50000  1.0000
  Cu  Cu22      1.0  0.96500  0.76500  0.50000  1.0000
  Cu  Cu23      1.0  0.44700  0.90000  0.50000  1.0000
  Cu  Cu24      1.0  0.83200  0.92600  0.50000  1.0000
  Nd  Nd1       1.0  0.00000  0.00000  0.00000  1.0000
  Nd  Nd2       1.0  0.72700  0.12300  0.00000  1.0000
  Nd  Nd3       1.0  0.27300  0.87700  0.00000  1.0000
  Nd  Nd4       1.0  0.22700  0.37700  0.50000  1.0000
  Nd  Nd5       1.0  0.50000  0.50000  0.50000  1.0000
  Nd  Nd6       1.0  0.77300  0.62300  0.50000  1.0000
  P   P1        1.0  0.12900  0.20700  0.00000  1.0000
  P   P2        1.0  0.38500  0.36600  0.00000  1.0000
  P   P3        1.0  0.83500  0.44200  0.00000  1.0000
  P   P4        1.0  0.16500  0.55800  0.00000  1.0000
  P   P5        1.0  0.61500  0.63400  0.00000  1.0000
  P   P6        1.0  0.87100  0.79300  0.00000  1.0000
  P   P7        1.0  0.33500  0.05830  0.50000  1.0000
  P   P8        1.0  0.88500  0.13400  0.50000  1.0000
  P   P9        1.0  0.62900  0.29300  0.50000  1.0000
  P   P10       1.0  0.37100  0.70700  0.50000  1.0000
  P   P11       1.0  0.11500  0.86600  0.50000  1.0000
  P   P12       1.0  0.66500  0.94200  0.50000  1.0000
