data_image0
_chemical_formula_structural       Au2Ge5
_chemical_formula_sum              "Au2 Ge5"
_cell_length_a       7.9467
_cell_length_b       7.9467
_cell_length_c       7.9467
_cell_angle_alpha    33.8755
_cell_angle_beta     33.8755
_cell_angle_gamma    33.8755

_space_group_name_H-M_alt    "P 1"
_space_group_IT_number       1

loop_
  _space_group_symop_operation_xyz
  'x, y, z'

loop_
  _atom_site_type_symbol
  _atom_site_label
  _atom_site_symmetry_multiplicity
  _atom_site_fract_x
  _atom_site_fract_y
  _atom_site_fract_z
  _atom_site_occupancy
  Au  Au1       1.0  0.00749  0.00749  0.00749  1.0000
  Au  Au2       1.0  0.49400  0.49400  0.49400  1.0000
  Ge  Ge1       1.0  0.24300  0.24300  0.24300  1.0000
  Ge  Ge2       1.0  0.37500  0.37500  0.37500  1.0000
  Ge  Ge3       1.0  0.62600  0.62600  0.62600  1.0000
  Ge  Ge4       1.0  0.75500  0.75500  0.75500  1.0000
  Ge  Ge5       1.0  0.87300  0.87300  0.87300  1.0000
