data_image0
_chemical_formula_structural       Au2Ge3Si2
_chemical_formula_sum              "Au2 Ge3 Si2"
_cell_length_a       7.92823
_cell_length_b       7.92823
_cell_length_c       7.92823
_cell_angle_alpha    33.3461
_cell_angle_beta     33.3461
_cell_angle_gamma    33.3461

_space_group_name_H-M_alt    "P 1"
_space_group_IT_number       1

loop_
  _space_group_symop_operation_xyz
  'x, y, z'

loop_
  _atom_site_type_symbol
  _atom_site_label
  _atom_site_symmetry_multiplicity
  _atom_site_fract_x
  _atom_site_fract_y
  _atom_site_fract_z
  _atom_site_occupancy
  Au  Au1       1.0  0.01140  0.01140  0.01140  1.0000
  Au  Au2       1.0  0.49300  0.49300  0.49300  1.0000
  Ge  Ge1       1.0  0.37600  0.37600  0.37600  1.0000
  Ge  Ge2       1.0  0.62600  0.62600  0.62600  1.0000
  Ge  Ge3       1.0  0.87000  0.87000  0.87000  1.0000
  Si  Si1       1.0  0.24400  0.24400  0.24400  1.0000
  Si  Si2       1.0  0.75400  0.75400  0.75400  1.0000
