data_image0
_chemical_formula_structural       Au2Sn3Ti2
_chemical_formula_sum              "Au2 Sn3 Ti2"
_cell_length_a       8.52302
_cell_length_b       8.52302
_cell_length_c       8.52302
_cell_angle_alpha    31.7414
_cell_angle_beta     31.7414
_cell_angle_gamma    31.7414

_space_group_name_H-M_alt    "P 1"
_space_group_IT_number       1

loop_
  _space_group_symop_operation_xyz
  'x, y, z'

loop_
  _atom_site_type_symbol
  _atom_site_label
  _atom_site_symmetry_multiplicity
  _atom_site_fract_x
  _atom_site_fract_y
  _atom_site_fract_z
  _atom_site_occupancy
  Au  Au1       1.0  0.01330  0.01330  0.01330  1.0000
  Au  Au2       1.0  0.49600  0.49600  0.49600  1.0000
  Sn  Sn1       1.0  0.38200  0.38200  0.38200  1.0000
  Sn  Sn2       1.0  0.62300  0.62300  0.62300  1.0000
  Sn  Sn3       1.0  0.86400  0.86400  0.86400  1.0000
  Ti  Ti1       1.0  0.24800  0.24800  0.24800  1.0000
  Ti  Ti2       1.0  0.74900  0.74900  0.74900  1.0000
