data_image0
_chemical_formula_structural       Au2Hf2Si3
_chemical_formula_sum              "Au2 Hf2 Si3"
_cell_length_a       8.74442
_cell_length_b       8.74442
_cell_length_c       8.74442
_cell_angle_alpha    27.9556
_cell_angle_beta     27.9556
_cell_angle_gamma    27.9556

_space_group_name_H-M_alt    "P 1"
_space_group_IT_number       1

loop_
  _space_group_symop_operation_xyz
  'x, y, z'

loop_
  _atom_site_type_symbol
  _atom_site_label
  _atom_site_symmetry_multiplicity
  _atom_site_fract_x
  _atom_site_fract_y
  _atom_site_fract_z
  _atom_site_occupancy
  Au  Au1       1.0  0.49900  0.49900  0.49900  1.0000
  Au  Au2       1.0  0.99900  0.99900  0.99900  1.0000
  Hf  Hf1       1.0  0.24700  0.24700  0.24700  1.0000
  Hf  Hf2       1.0  0.75300  0.75300  0.75300  1.0000
  Si  Si1       1.0  0.38700  0.38700  0.38700  1.0000
  Si  Si2       1.0  0.63300  0.63300  0.63300  1.0000
  Si  Si3       1.0  0.85700  0.85700  0.85700  1.0000
