data_image0
_chemical_formula_structural       Ag2Ge2Si3
_chemical_formula_sum              "Ag2 Ge2 Si3"
_cell_length_a       7.67303
_cell_length_b       7.67303
_cell_length_c       7.67303
_cell_angle_alpha    34.6851
_cell_angle_beta     34.6851
_cell_angle_gamma    34.6851

_space_group_name_H-M_alt    "P 1"
_space_group_IT_number       1

loop_
  _space_group_symop_operation_xyz
  'x, y, z'

loop_
  _atom_site_type_symbol
  _atom_site_label
  _atom_site_symmetry_multiplicity
  _atom_site_fract_x
  _atom_site_fract_y
  _atom_site_fract_z
  _atom_site_occupancy
  Ag  Ag1       1.0  0.24200  0.24200  0.24200  1.0000
  Ag  Ag2       1.0  0.75500  0.75500  0.75500  1.0000
  Ge  Ge1       1.0  0.00578  0.00578  0.00578  1.0000
  Ge  Ge2       1.0  0.49700  0.49700  0.49700  1.0000
  Si  Si1       1.0  0.37600  0.37600  0.37600  1.0000
  Si  Si2       1.0  0.62300  0.62300  0.62300  1.0000
  Si  Si3       1.0  0.87700  0.87700  0.87700  1.0000
