data_image0
_chemical_formula_structural       Ag2Pb2Sn3
_chemical_formula_sum              "Ag2 Pb2 Sn3"
_cell_length_a       8.84905
_cell_length_b       8.84905
_cell_length_c       8.84905
_cell_angle_alpha    34.0124
_cell_angle_beta     34.0124
_cell_angle_gamma    34.0124

_space_group_name_H-M_alt    "P 1"
_space_group_IT_number       1

loop_
  _space_group_symop_operation_xyz
  'x, y, z'

loop_
  _atom_site_type_symbol
  _atom_site_label
  _atom_site_symmetry_multiplicity
  _atom_site_fract_x
  _atom_site_fract_y
  _atom_site_fract_z
  _atom_site_occupancy
  Ag  Ag1       1.0  0.24600  0.24600  0.24600  1.0000
  Ag  Ag2       1.0  0.75400  0.75400  0.75400  1.0000
  Pb  Pb1       1.0  0.01100  0.01100  0.01100  1.0000
  Pb  Pb2       1.0  0.49400  0.49400  0.49400  1.0000
  Sn  Sn1       1.0  0.37300  0.37300  0.37300  1.0000
  Sn  Sn2       1.0  0.62100  0.62100  0.62100  1.0000
  Sn  Sn3       1.0  0.87600  0.87600  0.87600  1.0000
