data_image0
_chemical_formula_structural       Nb2Pt2Ti3
_chemical_formula_sum              "Nb2 Pt2 Ti3"
_cell_length_a       7.54589
_cell_length_b       7.54589
_cell_length_c       7.54589
_cell_angle_alpha    34.0575
_cell_angle_beta     34.0575
_cell_angle_gamma    34.0575

_space_group_name_H-M_alt    "P 1"
_space_group_IT_number       1

loop_
  _space_group_symop_operation_xyz
  'x, y, z'

loop_
  _atom_site_type_symbol
  _atom_site_label
  _atom_site_symmetry_multiplicity
  _atom_site_fract_x
  _atom_site_fract_y
  _atom_site_fract_z
  _atom_site_occupancy
  Nb  Nb1       1.0  0.24300  0.24300  0.24300  1.0000
  Nb  Nb2       1.0  0.75900  0.75900  0.75900  1.0000
  Pt  Pt1       1.0  0.00355  0.00355  0.00355  1.0000
  Pt  Pt2       1.0  0.49200  0.49200  0.49200  1.0000
  Ti  Ti1       1.0  0.37200  0.37200  0.37200  1.0000
  Ti  Ti2       1.0  0.62600  0.62600  0.62600  1.0000
  Ti  Ti3       1.0  0.87900  0.87900  0.87900  1.0000
