data_image0
_chemical_formula_structural       Pt2Ta2Ti3
_chemical_formula_sum              "Pt2 Ta2 Ti3"
_cell_length_a       7.56194
_cell_length_b       7.56194
_cell_length_c       7.56194
_cell_angle_alpha    33.9781
_cell_angle_beta     33.9781
_cell_angle_gamma    33.9781

_space_group_name_H-M_alt    "P 1"
_space_group_IT_number       1

loop_
  _space_group_symop_operation_xyz
  'x, y, z'

loop_
  _atom_site_type_symbol
  _atom_site_label
  _atom_site_symmetry_multiplicity
  _atom_site_fract_x
  _atom_site_fract_y
  _atom_site_fract_z
  _atom_site_occupancy
  Pt  Pt1       1.0  0.00443  0.00443  0.00443  1.0000
  Pt  Pt2       1.0  0.48900  0.48900  0.48900  1.0000
  Ta  Ta1       1.0  0.24200  0.24200  0.24200  1.0000
  Ta  Ta2       1.0  0.76200  0.76200  0.76200  1.0000
  Ti  Ti1       1.0  0.37100  0.37100  0.37100  1.0000
  Ti  Ti2       1.0  0.62600  0.62600  0.62600  1.0000
  Ti  Ti3       1.0  0.88100  0.88100  0.88100  1.0000
