data_image0
_chemical_formula_structural       As2Pd2Ti3
_chemical_formula_sum              "As2 Pd2 Ti3"
_cell_length_a       7.36166
_cell_length_b       7.36166
_cell_length_c       7.36166
_cell_angle_alpha    34.8201
_cell_angle_beta     34.8201
_cell_angle_gamma    34.8201

_space_group_name_H-M_alt    "P 1"
_space_group_IT_number       1

loop_
  _space_group_symop_operation_xyz
  'x, y, z'

loop_
  _atom_site_type_symbol
  _atom_site_label
  _atom_site_symmetry_multiplicity
  _atom_site_fract_x
  _atom_site_fract_y
  _atom_site_fract_z
  _atom_site_occupancy
  As  As1       1.0  0.24100  0.24100  0.24100  1.0000
  As  As2       1.0  0.75200  0.75200  0.75200  1.0000
  Pd  Pd1       1.0  0.02890  0.02890  0.02890  1.0000
  Pd  Pd2       1.0  0.48800  0.48800  0.48800  1.0000
  Ti  Ti1       1.0  0.36400  0.36400  0.36400  1.0000
  Ti  Ti2       1.0  0.62300  0.62300  0.62300  1.0000
  Ti  Ti3       1.0  0.87900  0.87900  0.87900  1.0000
