data_image0
_chemical_formula_structural       Ag2Ge3Pb2
_chemical_formula_sum              "Ag2 Ge3 Pb2"
_cell_length_a       8.41417
_cell_length_b       8.41417
_cell_length_c       8.41417
_cell_angle_alpha    34.2729
_cell_angle_beta     34.2729
_cell_angle_gamma    34.2729

_space_group_name_H-M_alt    "P 1"
_space_group_IT_number       1

loop_
  _space_group_symop_operation_xyz
  'x, y, z'

loop_
  _atom_site_type_symbol
  _atom_site_label
  _atom_site_symmetry_multiplicity
  _atom_site_fract_x
  _atom_site_fract_y
  _atom_site_fract_z
  _atom_site_occupancy
  Ag  Ag1       1.0  0.24700  0.24700  0.24700  1.0000
  Ag  Ag2       1.0  0.75400  0.75400  0.75400  1.0000
  Ge  Ge1       1.0  0.37200  0.37200  0.37200  1.0000
  Ge  Ge2       1.0  0.62100  0.62100  0.62100  1.0000
  Ge  Ge3       1.0  0.87700  0.87700  0.87700  1.0000
  Pb  Pb1       1.0  0.01060  0.01060  0.01060  1.0000
  Pb  Pb2       1.0  0.49400  0.49400  0.49400  1.0000
