data_image0
_chemical_formula_structural       Ag2Pb5
_chemical_formula_sum              "Ag2 Pb5"
_cell_length_a       9.02465
_cell_length_b       9.02465
_cell_length_c       9.02465
_cell_angle_alpha    34.0486
_cell_angle_beta     34.0486
_cell_angle_gamma    34.0486

_space_group_name_H-M_alt    "P 1"
_space_group_IT_number       1

loop_
  _space_group_symop_operation_xyz
  'x, y, z'

loop_
  _atom_site_type_symbol
  _atom_site_label
  _atom_site_symmetry_multiplicity
  _atom_site_fract_x
  _atom_site_fract_y
  _atom_site_fract_z
  _atom_site_occupancy
  Ag  Ag1       1.0  0.24400  0.24400  0.24400  1.0000
  Ag  Ag2       1.0  0.75400  0.75400  0.75400  1.0000
  Pb  Pb1       1.0  0.01120  0.01120  0.01120  1.0000
  Pb  Pb2       1.0  0.37400  0.37400  0.37400  1.0000
  Pb  Pb3       1.0  0.49400  0.49400  0.49400  1.0000
  Pb  Pb4       1.0  0.62200  0.62200  0.62200  1.0000
  Pb  Pb5       1.0  0.87600  0.87600  0.87600  1.0000
