data_image0
_chemical_formula_structural       Au2Si3Zr2
_chemical_formula_sum              "Au2 Si3 Zr2"
_cell_length_a       8.86704
_cell_length_b       8.86704
_cell_length_c       8.86704
_cell_angle_alpha    27.5014
_cell_angle_beta     27.5014
_cell_angle_gamma    27.5014

_space_group_name_H-M_alt    "P 1"
_space_group_IT_number       1

loop_
  _space_group_symop_operation_xyz
  'x, y, z'

loop_
  _atom_site_type_symbol
  _atom_site_label
  _atom_site_symmetry_multiplicity
  _atom_site_fract_x
  _atom_site_fract_y
  _atom_site_fract_z
  _atom_site_occupancy
  Au  Au1       1.0  0.00056  0.00056  0.00056  1.0000
  Au  Au2       1.0  0.49900  0.49900  0.49900  1.0000
  Si  Si1       1.0  0.38400  0.38400  0.38400  1.0000
  Si  Si2       1.0  0.63400  0.63400  0.63400  1.0000
  Si  Si3       1.0  0.85700  0.85700  0.85700  1.0000
  Zr  Zr1       1.0  0.24700  0.24700  0.24700  1.0000
  Zr  Zr2       1.0  0.75300  0.75300  0.75300  1.0000
