data_image0
_chemical_formula_structural       Ni2Ta2Ti3
_chemical_formula_sum              "Ni2 Ta2 Ti3"
_cell_length_a       6.75187
_cell_length_b       6.75187
_cell_length_c       6.75187
_cell_angle_alpha    38.3693
_cell_angle_beta     38.3693
_cell_angle_gamma    38.3693

_space_group_name_H-M_alt    "P 1"
_space_group_IT_number       1

loop_
  _space_group_symop_operation_xyz
  'x, y, z'

loop_
  _atom_site_type_symbol
  _atom_site_label
  _atom_site_symmetry_multiplicity
  _atom_site_fract_x
  _atom_site_fract_y
  _atom_site_fract_z
  _atom_site_occupancy
  Ni  Ni1       1.0  0.04600  0.04600  0.04600  1.0000
  Ni  Ni2       1.0  0.49000  0.49000  0.49000  1.0000
  Ta  Ta1       1.0  0.18900  0.18900  0.18900  1.0000
  Ta  Ta2       1.0  0.76800  0.76800  0.76800  1.0000
  Ti  Ti1       1.0  0.34600  0.34600  0.34600  1.0000
  Ti  Ti2       1.0  0.61900  0.61900  0.61900  1.0000
  Ti  Ti3       1.0  0.91700  0.91700  0.91700  1.0000
