data_image0
_chemical_formula_structural       Cr2H20O18S2
_chemical_formula_sum              "Cr2 H20 O18 S2"
_cell_length_a       6.34218
_cell_length_b       11.0641
_cell_length_c       6.11803
_cell_angle_alpha    91.0176
_cell_angle_beta     100.277
_cell_angle_gamma    99.6551

_space_group_name_H-M_alt    "P 1"
_space_group_IT_number       1

loop_
  _space_group_symop_operation_xyz
  'x, y, z'

loop_
  _atom_site_type_symbol
  _atom_site_label
  _atom_site_symmetry_multiplicity
  _atom_site_fract_x
  _atom_site_fract_y
  _atom_site_fract_z
  _atom_site_occupancy
  Cr  Cr1       1.0  0.00000  0.00000  0.00000  1.0000
  Cr  Cr2       1.0  0.50000  0.50000  0.00000  1.0000
  H   H1        1.0  0.45300  0.27300  0.03100  1.0000
  H   H2        1.0  0.06770  0.33500  0.16300  1.0000
  H   H3        1.0  0.96900  0.21700  0.27200  1.0000
  H   H4        1.0  0.28300  0.95100  0.30600  1.0000
  H   H5        1.0  0.65500  0.80000  0.33100  1.0000
  H   H6        1.0  0.31500  0.09650  0.34400  1.0000
  H   H7        1.0  0.88600  0.69500  0.36300  1.0000
  H   H8        1.0  0.34500  0.61600  0.38200  1.0000
  H   H9        1.0  0.45000  0.81200  0.43800  1.0000
  H   H10       1.0  0.83600  0.42700  0.48500  1.0000
  H   H11       1.0  0.16400  0.57300  0.51500  1.0000
  H   H12       1.0  0.55000  0.18800  0.56200  1.0000
  H   H13       1.0  0.65500  0.38400  0.61800  1.0000
  H   H14       1.0  0.11400  0.30500  0.63700  1.0000
  H   H15       1.0  0.68500  0.90300  0.65600  1.0000
  H   H16       1.0  0.34500  0.20000  0.66900  1.0000
  H   H17       1.0  0.71700  0.04890  0.69400  1.0000
  H   H18       1.0  0.03080  0.78300  0.72800  1.0000
  H   H19       1.0  0.93200  0.66500  0.83700  1.0000
  H   H20       1.0  0.54700  0.72700  0.96900  1.0000
  O   O1        1.0  0.81400  0.48300  0.04210  1.0000
  O   O2        1.0  0.57300  0.66900  0.08930  1.0000
  O   O3        1.0  0.88800  0.85500  0.14000  1.0000
  O   O4        1.0  0.28800  0.02750  0.21900  1.0000
  O   O5        1.0  0.74000  0.46800  0.23100  1.0000
  O   O6        1.0  0.03700  0.30200  0.30100  1.0000
  O   O7        1.0  0.19700  0.57500  0.36400  1.0000
  O   O8        1.0  0.20700  0.82600  0.42000  1.0000
  O   O9        1.0  0.61100  0.81100  0.47400  1.0000
  O   O10       1.0  0.38900  0.18900  0.52600  1.0000
  O   O11       1.0  0.79300  0.17400  0.58000  1.0000
  O   O12       1.0  0.80300  0.42500  0.63600  1.0000
  O   O13       1.0  0.96300  0.69800  0.69900  1.0000
  O   O14       1.0  0.26000  0.53200  0.76900  1.0000
  O   O15       1.0  0.71200  0.97300  0.78100  1.0000
  O   O16       1.0  0.11200  0.14500  0.86000  1.0000
  O   O17       1.0  0.42700  0.33100  0.91100  1.0000
  O   O18       1.0  0.18600  0.51700  0.95800  1.0000
  S   S1        1.0  0.02670  0.75400  0.23700  1.0000
  S   S2        1.0  0.97300  0.24600  0.76300  1.0000
