data_image0
_chemical_formula_structural       Au2Pb3Ti2
_chemical_formula_sum              "Au2 Pb3 Ti2"
_cell_length_a       8.62351
_cell_length_b       8.62351
_cell_length_c       8.62351
_cell_angle_alpha    32.357
_cell_angle_beta     32.357
_cell_angle_gamma    32.357

_space_group_name_H-M_alt    "P 1"
_space_group_IT_number       1

loop_
  _space_group_symop_operation_xyz
  'x, y, z'

loop_
  _atom_site_type_symbol
  _atom_site_label
  _atom_site_symmetry_multiplicity
  _atom_site_fract_x
  _atom_site_fract_y
  _atom_site_fract_z
  _atom_site_occupancy
  Au  Au1       1.0  0.01510  0.01510  0.01510  1.0000
  Au  Au2       1.0  0.49600  0.49600  0.49600  1.0000
  Pb  Pb1       1.0  0.38100  0.38100  0.38100  1.0000
  Pb  Pb2       1.0  0.62300  0.62300  0.62300  1.0000
  Pb  Pb3       1.0  0.86500  0.86500  0.86500  1.0000
  Ti  Ti1       1.0  0.24700  0.24700  0.24700  1.0000
  Ti  Ti2       1.0  0.74800  0.74800  0.74800  1.0000
