data_image0
_chemical_formula_structural       Ag2Ge3Zr2
_chemical_formula_sum              "Ag2 Ge3 Zr2"
_cell_length_a       8.73587
_cell_length_b       8.73587
_cell_length_c       8.73587
_cell_angle_alpha    29.3264
_cell_angle_beta     29.3264
_cell_angle_gamma    29.3264

_space_group_name_H-M_alt    "P 1"
_space_group_IT_number       1

loop_
  _space_group_symop_operation_xyz
  'x, y, z'

loop_
  _atom_site_type_symbol
  _atom_site_label
  _atom_site_symmetry_multiplicity
  _atom_site_fract_x
  _atom_site_fract_y
  _atom_site_fract_z
  _atom_site_occupancy
  Ag  Ag1       1.0  0.00206  0.00206  0.00206  1.0000
  Ag  Ag2       1.0  0.50000  0.50000  0.50000  1.0000
  Ge  Ge1       1.0  0.38700  0.38700  0.38700  1.0000
  Ge  Ge2       1.0  0.62700  0.62700  0.62700  1.0000
  Ge  Ge3       1.0  0.85900  0.85900  0.85900  1.0000
  Zr  Zr1       1.0  0.25000  0.25000  0.25000  1.0000
  Zr  Zr2       1.0  0.75100  0.75100  0.75100  1.0000
