data_image0
_chemical_formula_structural       Cu2Pb2Sn3
_chemical_formula_sum              "Cu2 Pb2 Sn3"
_cell_length_a       9.35093
_cell_length_b       9.35093
_cell_length_c       9.35093
_cell_angle_alpha    29.2297
_cell_angle_beta     29.2297
_cell_angle_gamma    29.2297

_space_group_name_H-M_alt    "P 1"
_space_group_IT_number       1

loop_
  _space_group_symop_operation_xyz
  'x, y, z'

loop_
  _atom_site_type_symbol
  _atom_site_label
  _atom_site_symmetry_multiplicity
  _atom_site_fract_x
  _atom_site_fract_y
  _atom_site_fract_z
  _atom_site_occupancy
  Cu  Cu1       1.0  0.23800  0.23800  0.23800  1.0000
  Cu  Cu2       1.0  0.77400  0.77400  0.77400  1.0000
  Pb  Pb1       1.0  0.06300  0.06300  0.06300  1.0000
  Pb  Pb2       1.0  0.47500  0.47500  0.47500  1.0000
  Sn  Sn1       1.0  0.33900  0.33900  0.33900  1.0000
  Sn  Sn2       1.0  0.61000  0.61000  0.61000  1.0000
  Sn  Sn3       1.0  0.87700  0.87700  0.87700  1.0000
