data_image0
_chemical_formula_structural       F2O24P6Sr10
_chemical_formula_sum              "F2 O24 P6 Sr10"
_cell_length_a       9.66398
_cell_length_b       9.664
_cell_length_c       7.25613
_cell_angle_alpha    90
_cell_angle_beta     90
_cell_angle_gamma    120

_space_group_name_H-M_alt    "P 1"
_space_group_IT_number       1

loop_
  _space_group_symop_operation_xyz
  'x, y, z'

loop_
  _atom_site_type_symbol
  _atom_site_label
  _atom_site_symmetry_multiplicity
  _atom_site_fract_x
  _atom_site_fract_y
  _atom_site_fract_z
  _atom_site_occupancy
  F   F1        1.0  0.00000  0.00000  0.25000  1.0000
  F   F2        1.0  0.00000  0.00000  0.75000  1.0000
  O   O1        1.0  0.25900  0.34300  0.07700  1.0000
  O   O2        1.0  0.65700  0.91600  0.07700  1.0000
  O   O3        1.0  0.08400  0.74100  0.07700  1.0000
  O   O4        1.0  0.67100  0.15300  0.25000  1.0000
  O   O5        1.0  0.48200  0.32900  0.25000  1.0000
  O   O6        1.0  0.84700  0.51800  0.25000  1.0000
  O   O7        1.0  0.11900  0.53500  0.25000  1.0000
  O   O8        1.0  0.46500  0.58500  0.25000  1.0000
  O   O9        1.0  0.41500  0.88100  0.25000  1.0000
  O   O10       1.0  0.08400  0.74100  0.42300  1.0000
  O   O11       1.0  0.65700  0.91600  0.42300  1.0000
  O   O12       1.0  0.25900  0.34300  0.42300  1.0000
  O   O13       1.0  0.74100  0.65700  0.57700  1.0000
  O   O14       1.0  0.34300  0.08400  0.57700  1.0000
  O   O15       1.0  0.91600  0.25900  0.57700  1.0000
  O   O16       1.0  0.58500  0.11900  0.75000  1.0000
  O   O17       1.0  0.53500  0.41500  0.75000  1.0000
  O   O18       1.0  0.88100  0.46500  0.75000  1.0000
  O   O19       1.0  0.15300  0.48200  0.75000  1.0000
  O   O20       1.0  0.51800  0.67100  0.75000  1.0000
  O   O21       1.0  0.32900  0.84700  0.75000  1.0000
  O   O22       1.0  0.91600  0.25900  0.92300  1.0000
  O   O23       1.0  0.34300  0.08400  0.92300  1.0000
  O   O24       1.0  0.74100  0.65700  0.92300  1.0000
  P   P1        1.0  0.36800  0.39900  0.25000  1.0000
  P   P2        1.0  0.03100  0.63200  0.25000  1.0000
  P   P3        1.0  0.60100  0.96900  0.25000  1.0000
  P   P4        1.0  0.39900  0.03100  0.75000  1.0000
  P   P5        1.0  0.96900  0.36800  0.75000  1.0000
  P   P6        1.0  0.63200  0.60100  0.75000  1.0000
  Sr  Sr1       1.0  0.33300  0.66700  0.00053  1.0000
  Sr  Sr2       1.0  0.25400  0.01470  0.25000  1.0000
  Sr  Sr3       1.0  0.98500  0.23900  0.25000  1.0000
  Sr  Sr4       1.0  0.76100  0.74600  0.25000  1.0000
  Sr  Sr5       1.0  0.33300  0.66700  0.49900  1.0000
  Sr  Sr6       1.0  0.66700  0.33300  0.50100  1.0000
  Sr  Sr7       1.0  0.23900  0.25400  0.75000  1.0000
  Sr  Sr8       1.0  0.01480  0.76100  0.75000  1.0000
  Sr  Sr9       1.0  0.74600  0.98500  0.75000  1.0000
  Sr  Sr10      1.0  0.66700  0.33300  0.99900  1.0000
