data_image0
_chemical_formula_structural       Cu2Ge3Pb2
_chemical_formula_sum              "Cu2 Ge3 Pb2"
_cell_length_a       9.07894
_cell_length_b       9.07894
_cell_length_c       9.07894
_cell_angle_alpha    28.1333
_cell_angle_beta     28.1333
_cell_angle_gamma    28.1333

_space_group_name_H-M_alt    "P 1"
_space_group_IT_number       1

loop_
  _space_group_symop_operation_xyz
  'x, y, z'

loop_
  _atom_site_type_symbol
  _atom_site_label
  _atom_site_symmetry_multiplicity
  _atom_site_fract_x
  _atom_site_fract_y
  _atom_site_fract_z
  _atom_site_occupancy
  Cu  Cu1       1.0  0.23900  0.23900  0.23900  1.0000
  Cu  Cu2       1.0  0.77300  0.77300  0.77300  1.0000
  Ge  Ge1       1.0  0.33200  0.33200  0.33200  1.0000
  Ge  Ge2       1.0  0.61100  0.61100  0.61100  1.0000
  Ge  Ge3       1.0  0.88200  0.88200  0.88200  1.0000
  Pb  Pb1       1.0  0.05520  0.05520  0.05520  1.0000
  Pb  Pb2       1.0  0.48200  0.48200  0.48200  1.0000
