data_image0
_chemical_formula_structural       Au2Pb3Zr2
_chemical_formula_sum              "Au2 Pb3 Zr2"
_cell_length_a       8.96373
_cell_length_b       8.96373
_cell_length_c       8.96373
_cell_angle_alpha    31.3491
_cell_angle_beta     31.3491
_cell_angle_gamma    31.3491

_space_group_name_H-M_alt    "P 1"
_space_group_IT_number       1

loop_
  _space_group_symop_operation_xyz
  'x, y, z'

loop_
  _atom_site_type_symbol
  _atom_site_label
  _atom_site_symmetry_multiplicity
  _atom_site_fract_x
  _atom_site_fract_y
  _atom_site_fract_z
  _atom_site_occupancy
  Au  Au1       1.0  0.01520  0.01520  0.01520  1.0000
  Au  Au2       1.0  0.49500  0.49500  0.49500  1.0000
  Pb  Pb1       1.0  0.38100  0.38100  0.38100  1.0000
  Pb  Pb2       1.0  0.62200  0.62200  0.62200  1.0000
  Pb  Pb3       1.0  0.86400  0.86400  0.86400  1.0000
  Zr  Zr1       1.0  0.24800  0.24800  0.24800  1.0000
  Zr  Zr2       1.0  0.75100  0.75100  0.75100  1.0000
