data_image0
_chemical_formula_structural       Cu2Ge3Sn2
_chemical_formula_sum              "Cu2 Ge3 Sn2"
_cell_length_a       7.94981
_cell_length_b       7.94981
_cell_length_c       7.94981
_cell_angle_alpha    34.5293
_cell_angle_beta     34.5293
_cell_angle_gamma    34.5293

_space_group_name_H-M_alt    "P 1"
_space_group_IT_number       1

loop_
  _space_group_symop_operation_xyz
  'x, y, z'

loop_
  _atom_site_type_symbol
  _atom_site_label
  _atom_site_symmetry_multiplicity
  _atom_site_fract_x
  _atom_site_fract_y
  _atom_site_fract_z
  _atom_site_occupancy
  Cu  Cu1       1.0  0.24800  0.24800  0.24800  1.0000
  Cu  Cu2       1.0  0.75300  0.75300  0.75300  1.0000
  Ge  Ge1       1.0  0.37200  0.37200  0.37200  1.0000
  Ge  Ge2       1.0  0.62200  0.62200  0.62200  1.0000
  Ge  Ge3       1.0  0.87300  0.87300  0.87300  1.0000
  Sn  Sn1       1.0  0.01200  0.01200  0.01200  1.0000
  Sn  Sn2       1.0  0.49400  0.49400  0.49400  1.0000
