data_image0
_chemical_formula_structural       Ag2Pb3Zr2
_chemical_formula_sum              "Ag2 Pb3 Zr2"
_cell_length_a       9.02108
_cell_length_b       9.02108
_cell_length_c       9.02108
_cell_angle_alpha    31.2557
_cell_angle_beta     31.2557
_cell_angle_gamma    31.2557

_space_group_name_H-M_alt    "P 1"
_space_group_IT_number       1

loop_
  _space_group_symop_operation_xyz
  'x, y, z'

loop_
  _atom_site_type_symbol
  _atom_site_label
  _atom_site_symmetry_multiplicity
  _atom_site_fract_x
  _atom_site_fract_y
  _atom_site_fract_z
  _atom_site_occupancy
  Ag  Ag1       1.0  0.00648  0.00648  0.00648  1.0000
  Ag  Ag2       1.0  0.49800  0.49800  0.49800  1.0000
  Pb  Pb1       1.0  0.38400  0.38400  0.38400  1.0000
  Pb  Pb2       1.0  0.62400  0.62400  0.62400  1.0000
  Pb  Pb3       1.0  0.86200  0.86200  0.86200  1.0000
  Zr  Zr1       1.0  0.25100  0.25100  0.25100  1.0000
  Zr  Zr2       1.0  0.74900  0.74900  0.74900  1.0000
