data_image0
_chemical_formula_structural       B10Pd28Y4
_chemical_formula_sum              "B10 Pd28 Y4"
_cell_length_a       10.4084
_cell_length_b       8.29429
_cell_length_c       8.29429
_cell_angle_alpha    90
_cell_angle_beta     113.481
_cell_angle_gamma    113.481

_space_group_name_H-M_alt    "P 1"
_space_group_IT_number       1

loop_
  _space_group_symop_operation_xyz
  'x, y, z'

loop_
  _atom_site_type_symbol
  _atom_site_label
  _atom_site_symmetry_multiplicity
  _atom_site_fract_x
  _atom_site_fract_y
  _atom_site_fract_z
  _atom_site_occupancy
  B   B1        1.0  0.00000  0.21100  0.00000  1.0000
  B   B2        1.0  0.00000  0.78900  0.00000  1.0000
  B   B3        1.0  0.50000  0.00000  0.21100  1.0000
  B   B4        1.0  0.50000  0.50000  0.21100  1.0000
  B   B5        1.0  0.25000  0.62500  0.37500  1.0000
  B   B6        1.0  0.00000  0.21100  0.50000  1.0000
  B   B7        1.0  0.00000  0.78900  0.50000  1.0000
  B   B8        1.0  0.75000  0.37500  0.62500  1.0000
  B   B9        1.0  0.50000  0.00000  0.78900  1.0000
  B   B10       1.0  0.50000  0.50000  0.78900  1.0000
  Pd  Pd1       1.0  0.00000  0.50000  0.00000  1.0000
  Pd  Pd2       1.0  0.86500  0.93300  0.01380  1.0000
  Pd  Pd3       1.0  0.63500  0.64900  0.06740  1.0000
  Pd  Pd4       1.0  0.63500  0.98600  0.06740  1.0000
  Pd  Pd5       1.0  0.25000  0.43800  0.18800  1.0000
  Pd  Pd6       1.0  0.25000  0.81200  0.18800  1.0000
  Pd  Pd7       1.0  0.96100  0.26700  0.23100  1.0000
  Pd  Pd8       1.0  0.96100  0.69400  0.23100  1.0000
  Pd  Pd9       1.0  0.46100  0.23100  0.26700  1.0000
  Pd  Pd10      1.0  0.53900  0.76900  0.30600  1.0000
  Pd  Pd11      1.0  0.86500  0.93300  0.35100  1.0000
  Pd  Pd12      1.0  0.75000  0.18800  0.43800  1.0000
  Pd  Pd13      1.0  0.75000  0.56200  0.43800  1.0000
  Pd  Pd14      1.0  0.00000  0.50000  0.50000  1.0000
  Pd  Pd15      1.0  0.50000  0.00000  0.50000  1.0000
  Pd  Pd16      1.0  0.50000  0.50000  0.50000  1.0000
  Pd  Pd17      1.0  0.25000  0.43800  0.56200  1.0000
  Pd  Pd18      1.0  0.25000  0.81200  0.56200  1.0000
  Pd  Pd19      1.0  0.13500  0.06740  0.64900  1.0000
  Pd  Pd20      1.0  0.46100  0.23100  0.69400  1.0000
  Pd  Pd21      1.0  0.53900  0.76900  0.73300  1.0000
  Pd  Pd22      1.0  0.03890  0.30600  0.76900  1.0000
  Pd  Pd23      1.0  0.03890  0.73300  0.76900  1.0000
  Pd  Pd24      1.0  0.75000  0.18800  0.81200  1.0000
  Pd  Pd25      1.0  0.75000  0.56200  0.81200  1.0000
  Pd  Pd26      1.0  0.36500  0.01380  0.93300  1.0000
  Pd  Pd27      1.0  0.36500  0.35100  0.93300  1.0000
  Pd  Pd28      1.0  0.13500  0.06740  0.98600  1.0000
  Y   Y1        1.0  0.68200  0.34100  0.09090  1.0000
  Y   Y2        1.0  0.18200  0.09090  0.34100  1.0000
  Y   Y3        1.0  0.81800  0.90900  0.65900  1.0000
  Y   Y4        1.0  0.31800  0.65900  0.90900  1.0000
