data_image0
_chemical_formula_structural       Bi2Pd2Ti3
_chemical_formula_sum              "Bi2 Pd2 Ti3"
_cell_length_a       7.66311
_cell_length_b       7.66311
_cell_length_c       7.66311
_cell_angle_alpha    35.4815
_cell_angle_beta     35.4815
_cell_angle_gamma    35.4815

_space_group_name_H-M_alt    "P 1"
_space_group_IT_number       1

loop_
  _space_group_symop_operation_xyz
  'x, y, z'

loop_
  _atom_site_type_symbol
  _atom_site_label
  _atom_site_symmetry_multiplicity
  _atom_site_fract_x
  _atom_site_fract_y
  _atom_site_fract_z
  _atom_site_occupancy
  Bi  Bi1       1.0  0.21500  0.21500  0.21500  1.0000
  Bi  Bi2       1.0  0.75900  0.75900  0.75900  1.0000
  Pd  Pd1       1.0  0.02880  0.02880  0.02880  1.0000
  Pd  Pd2       1.0  0.49300  0.49300  0.49300  1.0000
  Ti  Ti1       1.0  0.34900  0.34900  0.34900  1.0000
  Ti  Ti2       1.0  0.62200  0.62200  0.62200  1.0000
  Ti  Ti3       1.0  0.90800  0.90800  0.90800  1.0000
