data_image0
_chemical_formula_structural       Pt2Ta2Zr3
_chemical_formula_sum              "Pt2 Ta2 Zr3"
_cell_length_a       7.99926
_cell_length_b       7.99926
_cell_length_c       7.99926
_cell_angle_alpha    33.8068
_cell_angle_beta     33.8068
_cell_angle_gamma    33.8068

_space_group_name_H-M_alt    "P 1"
_space_group_IT_number       1

loop_
  _space_group_symop_operation_xyz
  'x, y, z'

loop_
  _atom_site_type_symbol
  _atom_site_label
  _atom_site_symmetry_multiplicity
  _atom_site_fract_x
  _atom_site_fract_y
  _atom_site_fract_z
  _atom_site_occupancy
  Pt  Pt1       1.0  0.00682  0.00682  0.00682  1.0000
  Pt  Pt2       1.0  0.49000  0.49000  0.49000  1.0000
  Ta  Ta1       1.0  0.24200  0.24200  0.24200  1.0000
  Ta  Ta2       1.0  0.76000  0.76000  0.76000  1.0000
  Zr  Zr1       1.0  0.37200  0.37200  0.37200  1.0000
  Zr  Zr2       1.0  0.62600  0.62600  0.62600  1.0000
  Zr  Zr3       1.0  0.87800  0.87800  0.87800  1.0000
