data_image0
_chemical_formula_structural       Cu2Pb3Ti2
_chemical_formula_sum              "Cu2 Pb3 Ti2"
_cell_length_a       8.80394
_cell_length_b       8.80394
_cell_length_c       8.80394
_cell_angle_alpha    30.088
_cell_angle_beta     30.088
_cell_angle_gamma    30.088

_space_group_name_H-M_alt    "P 1"
_space_group_IT_number       1

loop_
  _space_group_symop_operation_xyz
  'x, y, z'

loop_
  _atom_site_type_symbol
  _atom_site_label
  _atom_site_symmetry_multiplicity
  _atom_site_fract_x
  _atom_site_fract_y
  _atom_site_fract_z
  _atom_site_occupancy
  Cu  Cu1       1.0  0.01050  0.01050  0.01050  1.0000
  Cu  Cu2       1.0  0.50000  0.50000  0.50000  1.0000
  Pb  Pb1       1.0  0.38700  0.38700  0.38700  1.0000
  Pb  Pb2       1.0  0.62500  0.62500  0.62500  1.0000
  Pb  Pb3       1.0  0.85800  0.85800  0.85800  1.0000
  Ti  Ti1       1.0  0.24600  0.24600  0.24600  1.0000
  Ti  Ti2       1.0  0.74800  0.74800  0.74800  1.0000
