data_image0
_chemical_formula_structural       Ag2Hf2Sn3
_chemical_formula_sum              "Ag2 Hf2 Sn3"
_cell_length_a       8.77047
_cell_length_b       8.77047
_cell_length_c       8.77047
_cell_angle_alpha    31.489
_cell_angle_beta     31.489
_cell_angle_gamma    31.489

_space_group_name_H-M_alt    "P 1"
_space_group_IT_number       1

loop_
  _space_group_symop_operation_xyz
  'x, y, z'

loop_
  _atom_site_type_symbol
  _atom_site_label
  _atom_site_symmetry_multiplicity
  _atom_site_fract_x
  _atom_site_fract_y
  _atom_site_fract_z
  _atom_site_occupancy
  Ag  Ag1       1.0  0.00851  0.00851  0.00851  1.0000
  Ag  Ag2       1.0  0.49700  0.49700  0.49700  1.0000
  Hf  Hf1       1.0  0.25000  0.25000  0.25000  1.0000
  Hf  Hf2       1.0  0.74900  0.74900  0.74900  1.0000
  Sn  Sn1       1.0  0.38300  0.38300  0.38300  1.0000
  Sn  Sn2       1.0  0.62500  0.62500  0.62500  1.0000
  Sn  Sn3       1.0  0.86200  0.86200  0.86200  1.0000
