data_image0
_chemical_formula_structural       Au2Ge3Hf2
_chemical_formula_sum              "Au2 Ge3 Hf2"
_cell_length_a       8.84636
_cell_length_b       8.84636
_cell_length_c       8.84636
_cell_angle_alpha    28.5077
_cell_angle_beta     28.5077
_cell_angle_gamma    28.5077

_space_group_name_H-M_alt    "P 1"
_space_group_IT_number       1

loop_
  _space_group_symop_operation_xyz
  'x, y, z'

loop_
  _atom_site_type_symbol
  _atom_site_label
  _atom_site_symmetry_multiplicity
  _atom_site_fract_x
  _atom_site_fract_y
  _atom_site_fract_z
  _atom_site_occupancy
  Au  Au1       1.0  0.50000  0.50000  0.50000  1.0000
  Au  Au2       1.0  0.99900  0.99900  0.99900  1.0000
  Ge  Ge1       1.0  0.39000  0.39000  0.39000  1.0000
  Ge  Ge2       1.0  0.62900  0.62900  0.62900  1.0000
  Ge  Ge3       1.0  0.85700  0.85700  0.85700  1.0000
  Hf  Hf1       1.0  0.24700  0.24700  0.24700  1.0000
  Hf  Hf2       1.0  0.75200  0.75200  0.75200  1.0000
