data_image0
_chemical_formula_structural       As2Ni2Ti3
_chemical_formula_sum              "As2 Ni2 Ti3"
_cell_length_a       7.27649
_cell_length_b       7.27649
_cell_length_c       7.27649
_cell_angle_alpha    33.956
_cell_angle_beta     33.956
_cell_angle_gamma    33.956

_space_group_name_H-M_alt    "P 1"
_space_group_IT_number       1

loop_
  _space_group_symop_operation_xyz
  'x, y, z'

loop_
  _atom_site_type_symbol
  _atom_site_label
  _atom_site_symmetry_multiplicity
  _atom_site_fract_x
  _atom_site_fract_y
  _atom_site_fract_z
  _atom_site_occupancy
  As  As1       1.0  0.00791  0.00791  0.00791  1.0000
  As  As2       1.0  0.49800  0.49800  0.49800  1.0000
  Ni  Ni1       1.0  0.22400  0.22400  0.22400  1.0000
  Ni  Ni2       1.0  0.76100  0.76100  0.76100  1.0000
  Ti  Ti1       1.0  0.37600  0.37600  0.37600  1.0000
  Ti  Ti2       1.0  0.62700  0.62700  0.62700  1.0000
  Ti  Ti3       1.0  0.88100  0.88100  0.88100  1.0000
