data_image0
_chemical_formula_structural       Pd2Sb2Ti3
_chemical_formula_sum              "Pd2 Sb2 Ti3"
_cell_length_a       7.4862
_cell_length_b       7.4862
_cell_length_c       7.4862
_cell_angle_alpha    35.633
_cell_angle_beta     35.633
_cell_angle_gamma    35.633

_space_group_name_H-M_alt    "P 1"
_space_group_IT_number       1

loop_
  _space_group_symop_operation_xyz
  'x, y, z'

loop_
  _atom_site_type_symbol
  _atom_site_label
  _atom_site_symmetry_multiplicity
  _atom_site_fract_x
  _atom_site_fract_y
  _atom_site_fract_z
  _atom_site_occupancy
  Pd  Pd1       1.0  0.03130  0.03130  0.03130  1.0000
  Pd  Pd2       1.0  0.48800  0.48800  0.48800  1.0000
  Sb  Sb1       1.0  0.22300  0.22300  0.22300  1.0000
  Sb  Sb2       1.0  0.75800  0.75800  0.75800  1.0000
  Ti  Ti1       1.0  0.35400  0.35400  0.35400  1.0000
  Ti  Ti2       1.0  0.62200  0.62200  0.62200  1.0000
  Ti  Ti3       1.0  0.89900  0.89900  0.89900  1.0000
