data_image0
_chemical_formula_structural       Au2Pb5
_chemical_formula_sum              "Au2 Pb5"
_cell_length_a       8.4559
_cell_length_b       8.4559
_cell_length_c       8.4559
_cell_angle_alpha    36.1154
_cell_angle_beta     36.1154
_cell_angle_gamma    36.1154

_space_group_name_H-M_alt    "P 1"
_space_group_IT_number       1

loop_
  _space_group_symop_operation_xyz
  'x, y, z'

loop_
  _atom_site_type_symbol
  _atom_site_label
  _atom_site_symmetry_multiplicity
  _atom_site_fract_x
  _atom_site_fract_y
  _atom_site_fract_z
  _atom_site_occupancy
  Au  Au1       1.0  0.04610  0.04610  0.04610  1.0000
  Au  Au2       1.0  0.49000  0.49000  0.49000  1.0000
  Pb  Pb1       1.0  0.17600  0.17600  0.17600  1.0000
  Pb  Pb2       1.0  0.35900  0.35900  0.35900  1.0000
  Pb  Pb3       1.0  0.62400  0.62400  0.62400  1.0000
  Pb  Pb4       1.0  0.76800  0.76800  0.76800  1.0000
  Pb  Pb5       1.0  0.91200  0.91200  0.91200  1.0000
