data_image0
_chemical_formula_structural       Cu2Pb5
_chemical_formula_sum              "Cu2 Pb5"
_cell_length_a       9.24824
_cell_length_b       9.24824
_cell_length_c       9.24824
_cell_angle_alpha    30.8784
_cell_angle_beta     30.8784
_cell_angle_gamma    30.8784

_space_group_name_H-M_alt    "P 1"
_space_group_IT_number       1

loop_
  _space_group_symop_operation_xyz
  'x, y, z'

loop_
  _atom_site_type_symbol
  _atom_site_label
  _atom_site_symmetry_multiplicity
  _atom_site_fract_x
  _atom_site_fract_y
  _atom_site_fract_z
  _atom_site_occupancy
  Cu  Cu1       1.0  0.23500  0.23500  0.23500  1.0000
  Cu  Cu2       1.0  0.76500  0.76500  0.76500  1.0000
  Pb  Pb1       1.0  0.07100  0.07100  0.07100  1.0000
  Pb  Pb2       1.0  0.34200  0.34200  0.34200  1.0000
  Pb  Pb3       1.0  0.47500  0.47500  0.47500  1.0000
  Pb  Pb4       1.0  0.61100  0.61100  0.61100  1.0000
  Pb  Pb5       1.0  0.87600  0.87600  0.87600  1.0000
