data_image0
_chemical_formula_structural       Nb2Ni2Ti3
_chemical_formula_sum              "Nb2 Ni2 Ti3"
_cell_length_a       6.68896
_cell_length_b       6.68896
_cell_length_c       6.68896
_cell_angle_alpha    39.1092
_cell_angle_beta     39.1092
_cell_angle_gamma    39.1092

_space_group_name_H-M_alt    "P 1"
_space_group_IT_number       1

loop_
  _space_group_symop_operation_xyz
  'x, y, z'

loop_
  _atom_site_type_symbol
  _atom_site_label
  _atom_site_symmetry_multiplicity
  _atom_site_fract_x
  _atom_site_fract_y
  _atom_site_fract_z
  _atom_site_occupancy
  Nb  Nb1       1.0  0.18900  0.18900  0.18900  1.0000
  Nb  Nb2       1.0  0.76700  0.76700  0.76700  1.0000
  Ni  Ni1       1.0  0.04350  0.04350  0.04350  1.0000
  Ni  Ni2       1.0  0.49100  0.49100  0.49100  1.0000
  Ti  Ti1       1.0  0.34800  0.34800  0.34800  1.0000
  Ti  Ti2       1.0  0.61900  0.61900  0.61900  1.0000
  Ti  Ti3       1.0  0.91700  0.91700  0.91700  1.0000
