data_image0
_chemical_formula_structural       Br2Cs2F2
_chemical_formula_sum              "Br2 Cs2 F2"
_cell_length_a       4.22823
_cell_length_b       4.22823
_cell_length_c       10.5382
_cell_angle_alpha    101.573
_cell_angle_beta     101.573
_cell_angle_gamma    90

_space_group_name_H-M_alt    "P 1"
_space_group_IT_number       1

loop_
  _space_group_symop_operation_xyz
  'x, y, z'

loop_
  _atom_site_type_symbol
  _atom_site_label
  _atom_site_symmetry_multiplicity
  _atom_site_fract_x
  _atom_site_fract_y
  _atom_site_fract_z
  _atom_site_occupancy
  Br  Br1       1.0  0.05940  0.05940  0.11900  1.0000
  Br  Br2       1.0  0.94100  0.94100  0.88100  1.0000
  Cs  Cs1       1.0  0.67100  0.67100  0.34200  1.0000
  Cs  Cs2       1.0  0.32900  0.32900  0.65800  1.0000
  F   F1        1.0  0.18200  0.18200  0.36300  1.0000
  F   F2        1.0  0.81800  0.81800  0.63700  1.0000
