data_image0
_chemical_formula_structural       Ag2Ge2Pb3
_chemical_formula_sum              "Ag2 Ge2 Pb3"
_cell_length_a       8.78505
_cell_length_b       8.78505
_cell_length_c       8.78505
_cell_angle_alpha    33.5947
_cell_angle_beta     33.5947
_cell_angle_gamma    33.5947

_space_group_name_H-M_alt    "P 1"
_space_group_IT_number       1

loop_
  _space_group_symop_operation_xyz
  'x, y, z'

loop_
  _atom_site_type_symbol
  _atom_site_label
  _atom_site_symmetry_multiplicity
  _atom_site_fract_x
  _atom_site_fract_y
  _atom_site_fract_z
  _atom_site_occupancy
  Ag  Ag1       1.0  0.23800  0.23800  0.23800  1.0000
  Ag  Ag2       1.0  0.75200  0.75200  0.75200  1.0000
  Ge  Ge1       1.0  0.00537  0.00537  0.00537  1.0000
  Ge  Ge2       1.0  0.50100  0.50100  0.50100  1.0000
  Pb  Pb1       1.0  0.38300  0.38300  0.38300  1.0000
  Pb  Pb2       1.0  0.62500  0.62500  0.62500  1.0000
  Pb  Pb3       1.0  0.87100  0.87100  0.87100  1.0000
