data_image0
_chemical_formula_structural       Cu2Pb3Si2
_chemical_formula_sum              "Cu2 Pb3 Si2"
_cell_length_a       10.0749
_cell_length_b       10.0749
_cell_length_c       10.0749
_cell_angle_alpha    24.7645
_cell_angle_beta     24.7645
_cell_angle_gamma    24.7645

_space_group_name_H-M_alt    "P 1"
_space_group_IT_number       1

loop_
  _space_group_symop_operation_xyz
  'x, y, z'

loop_
  _atom_site_type_symbol
  _atom_site_label
  _atom_site_symmetry_multiplicity
  _atom_site_fract_x
  _atom_site_fract_y
  _atom_site_fract_z
  _atom_site_occupancy
  Cu  Cu1       1.0  0.03280  0.03280  0.03280  1.0000
  Cu  Cu2       1.0  0.53300  0.53300  0.53300  1.0000
  Pb  Pb1       1.0  0.42300  0.42300  0.42300  1.0000
  Pb  Pb2       1.0  0.62100  0.62100  0.62100  1.0000
  Pb  Pb3       1.0  0.83000  0.83000  0.83000  1.0000
  Si  Si1       1.0  0.22500  0.22500  0.22500  1.0000
  Si  Si2       1.0  0.71000  0.71000  0.71000  1.0000
