data_image0
_chemical_formula_structural       Nb2Pd2Ti3
_chemical_formula_sum              "Nb2 Pd2 Ti3"
_cell_length_a       7.40685
_cell_length_b       7.40685
_cell_length_c       7.40685
_cell_angle_alpha    35.158
_cell_angle_beta     35.158
_cell_angle_gamma    35.158

_space_group_name_H-M_alt    "P 1"
_space_group_IT_number       1

loop_
  _space_group_symop_operation_xyz
  'x, y, z'

loop_
  _atom_site_type_symbol
  _atom_site_label
  _atom_site_symmetry_multiplicity
  _atom_site_fract_x
  _atom_site_fract_y
  _atom_site_fract_z
  _atom_site_occupancy
  Nb  Nb1       1.0  0.24000  0.24000  0.24000  1.0000
  Nb  Nb2       1.0  0.76000  0.76000  0.76000  1.0000
  Pd  Pd1       1.0  0.00666  0.00666  0.00666  1.0000
  Pd  Pd2       1.0  0.49000  0.49000  0.49000  1.0000
  Ti  Ti1       1.0  0.36800  0.36800  0.36800  1.0000
  Ti  Ti2       1.0  0.62800  0.62800  0.62800  1.0000
  Ti  Ti3       1.0  0.88300  0.88300  0.88300  1.0000
