data_image0
_chemical_formula_structural       Ag2Sn5
_chemical_formula_sum              "Ag2 Sn5"
_cell_length_a       8.77015
_cell_length_b       8.77015
_cell_length_c       8.77015
_cell_angle_alpha    33.9477
_cell_angle_beta     33.9477
_cell_angle_gamma    33.9477

_space_group_name_H-M_alt    "P 1"
_space_group_IT_number       1

loop_
  _space_group_symop_operation_xyz
  'x, y, z'

loop_
  _atom_site_type_symbol
  _atom_site_label
  _atom_site_symmetry_multiplicity
  _atom_site_fract_x
  _atom_site_fract_y
  _atom_site_fract_z
  _atom_site_occupancy
  Ag  Ag1       1.0  0.24400  0.24400  0.24400  1.0000
  Ag  Ag2       1.0  0.75400  0.75400  0.75400  1.0000
  Sn  Sn1       1.0  0.00785  0.00785  0.00785  1.0000
  Sn  Sn2       1.0  0.37600  0.37600  0.37600  1.0000
  Sn  Sn3       1.0  0.49600  0.49600  0.49600  1.0000
  Sn  Sn4       1.0  0.62300  0.62300  0.62300  1.0000
  Sn  Sn5       1.0  0.87400  0.87400  0.87400  1.0000
