data_image0
_chemical_formula_structural       Au2Hf2Pb3
_chemical_formula_sum              "Au2 Hf2 Pb3"
_cell_length_a       8.73217
_cell_length_b       8.73217
_cell_length_c       8.73217
_cell_angle_alpha    32.3011
_cell_angle_beta     32.3011
_cell_angle_gamma    32.3011

_space_group_name_H-M_alt    "P 1"
_space_group_IT_number       1

loop_
  _space_group_symop_operation_xyz
  'x, y, z'

loop_
  _atom_site_type_symbol
  _atom_site_label
  _atom_site_symmetry_multiplicity
  _atom_site_fract_x
  _atom_site_fract_y
  _atom_site_fract_z
  _atom_site_occupancy
  Au  Au1       1.0  0.07080  0.07080  0.07080  1.0000
  Au  Au2       1.0  0.48400  0.48400  0.48400  1.0000
  Hf  Hf1       1.0  0.18300  0.18300  0.18300  1.0000
  Hf  Hf2       1.0  0.76400  0.76400  0.76400  1.0000
  Pb  Pb1       1.0  0.35700  0.35700  0.35700  1.0000
  Pb  Pb2       1.0  0.62100  0.62100  0.62100  1.0000
  Pb  Pb3       1.0  0.89500  0.89500  0.89500  1.0000
