data_image0
_chemical_formula_structural       C2Cl28Ti12
_chemical_formula_sum              "C2 Cl28 Ti12"
_cell_length_a       9.44465
_cell_length_b       9.44465
_cell_length_c       11.1648
_cell_angle_alpha    90
_cell_angle_beta     90
_cell_angle_gamma    88.567

_space_group_name_H-M_alt    "P 1"
_space_group_IT_number       1

loop_
  _space_group_symop_operation_xyz
  'x, y, z'

loop_
  _atom_site_type_symbol
  _atom_site_label
  _atom_site_symmetry_multiplicity
  _atom_site_fract_x
  _atom_site_fract_y
  _atom_site_fract_z
  _atom_site_occupancy
  C   C1        1.0  0.50000  0.50000  0.00000  1.0000
  C   C2        1.0  0.00000  0.00000  0.50000  1.0000
  Cl  Cl1       1.0  0.25200  0.25200  0.00000  1.0000
  Cl  Cl2       1.0  0.74800  0.74800  0.00000  1.0000
  Cl  Cl3       1.0  0.59900  0.15700  0.01540  1.0000
  Cl  Cl4       1.0  0.84300  0.40100  0.01540  1.0000
  Cl  Cl5       1.0  0.28900  0.46800  0.23900  1.0000
  Cl  Cl6       1.0  0.53200  0.71100  0.23900  1.0000
  Cl  Cl7       1.0  0.13500  0.86500  0.24000  1.0000
  Cl  Cl8       1.0  0.38400  0.11600  0.25000  1.0000
  Cl  Cl9       1.0  0.88400  0.61600  0.25000  1.0000
  Cl  Cl10      1.0  0.63500  0.36500  0.26000  1.0000
  Cl  Cl11      1.0  0.03170  0.21100  0.26100  1.0000
  Cl  Cl12      1.0  0.78900  0.96800  0.26100  1.0000
  Cl  Cl13      1.0  0.09890  0.65700  0.48500  1.0000
  Cl  Cl14      1.0  0.34300  0.90100  0.48500  1.0000
  Cl  Cl15      1.0  0.24800  0.24800  0.50000  1.0000
  Cl  Cl16      1.0  0.75200  0.75200  0.50000  1.0000
  Cl  Cl17      1.0  0.65700  0.09890  0.51500  1.0000
  Cl  Cl18      1.0  0.90100  0.34300  0.51500  1.0000
  Cl  Cl19      1.0  0.21100  0.03170  0.73900  1.0000
  Cl  Cl20      1.0  0.96800  0.78900  0.73900  1.0000
  Cl  Cl21      1.0  0.36500  0.63500  0.74000  1.0000
  Cl  Cl22      1.0  0.11600  0.38400  0.75000  1.0000
  Cl  Cl23      1.0  0.61600  0.88400  0.75000  1.0000
  Cl  Cl24      1.0  0.86500  0.13500  0.76000  1.0000
  Cl  Cl25      1.0  0.46800  0.28900  0.76100  1.0000
  Cl  Cl26      1.0  0.71100  0.53200  0.76100  1.0000
  Cl  Cl27      1.0  0.15700  0.59900  0.98500  1.0000
  Cl  Cl28      1.0  0.40100  0.84300  0.98500  1.0000
  Ti  Ti1       1.0  0.36700  0.63300  0.09520  1.0000
  Ti  Ti2       1.0  0.44600  0.32700  0.11700  1.0000
  Ti  Ti3       1.0  0.67300  0.55400  0.11700  1.0000
  Ti  Ti4       1.0  0.17300  0.05370  0.38300  1.0000
  Ti  Ti5       1.0  0.94600  0.82700  0.38300  1.0000
  Ti  Ti6       1.0  0.86700  0.13300  0.40500  1.0000
  Ti  Ti7       1.0  0.13300  0.86700  0.59500  1.0000
  Ti  Ti8       1.0  0.05370  0.17300  0.61700  1.0000
  Ti  Ti9       1.0  0.82700  0.94600  0.61700  1.0000
  Ti  Ti10      1.0  0.32700  0.44600  0.88300  1.0000
  Ti  Ti11      1.0  0.55400  0.67300  0.88300  1.0000
  Ti  Ti12      1.0  0.63300  0.36700  0.90500  1.0000
