data_image0
_chemical_formula_structural       Bi2Ni2Ti3
_chemical_formula_sum              "Bi2 Ni2 Ti3"
_cell_length_a       7.64598
_cell_length_b       7.64598
_cell_length_c       7.64598
_cell_angle_alpha    35.2018
_cell_angle_beta     35.2018
_cell_angle_gamma    35.2018

_space_group_name_H-M_alt    "P 1"
_space_group_IT_number       1

loop_
  _space_group_symop_operation_xyz
  'x, y, z'

loop_
  _atom_site_type_symbol
  _atom_site_label
  _atom_site_symmetry_multiplicity
  _atom_site_fract_x
  _atom_site_fract_y
  _atom_site_fract_z
  _atom_site_occupancy
  Bi  Bi1       1.0  0.01800  0.01800  0.01800  1.0000
  Bi  Bi2       1.0  0.48800  0.48800  0.48800  1.0000
  Ni  Ni1       1.0  0.25200  0.25200  0.25200  1.0000
  Ni  Ni2       1.0  0.75500  0.75500  0.75500  1.0000
  Ti  Ti1       1.0  0.36100  0.36100  0.36100  1.0000
  Ti  Ti2       1.0  0.62000  0.62000  0.62000  1.0000
  Ti  Ti3       1.0  0.88100  0.88100  0.88100  1.0000
