data_image0
_chemical_formula_structural       Ba6Co6O24Si6
_chemical_formula_sum              "Ba6 Co6 O24 Si6"
_cell_length_a       9.11643
_cell_length_b       9.11764
_cell_length_c       8.62964
_cell_angle_alpha    90
_cell_angle_beta     90
_cell_angle_gamma    120

_space_group_name_H-M_alt    "P 1"
_space_group_IT_number       1

loop_
  _space_group_symop_operation_xyz
  'x, y, z'

loop_
  _atom_site_type_symbol
  _atom_site_label
  _atom_site_symmetry_multiplicity
  _atom_site_fract_x
  _atom_site_fract_y
  _atom_site_fract_z
  _atom_site_occupancy
  Ba  Ba1       1.0  0.66700  0.33300  0.21300  1.0000
  Ba  Ba2       1.0  0.33300  0.66700  0.21900  1.0000
  Ba  Ba3       1.0  0.00000  0.00000  0.26000  1.0000
  Ba  Ba4       1.0  0.33300  0.66700  0.71300  1.0000
  Ba  Ba5       1.0  0.66700  0.33300  0.71900  1.0000
  Ba  Ba6       1.0  0.00000  0.00000  0.76000  1.0000
  Co  Co1       1.0  0.01350  0.68800  0.03200  1.0000
  Co  Co2       1.0  0.67400  0.98700  0.03210  1.0000
  Co  Co3       1.0  0.31200  0.32600  0.03210  1.0000
  Co  Co4       1.0  0.98600  0.31200  0.53200  1.0000
  Co  Co5       1.0  0.32600  0.01340  0.53200  1.0000
  Co  Co6       1.0  0.68800  0.67400  0.53200  1.0000
  O   O1        1.0  0.91700  0.15400  0.03120  1.0000
  O   O2        1.0  0.84600  0.76300  0.03130  1.0000
  O   O3        1.0  0.23700  0.08350  0.03160  1.0000
  O   O4        1.0  0.65500  0.92300  0.25100  1.0000
  O   O5        1.0  0.07710  0.73200  0.25100  1.0000
  O   O6        1.0  0.26700  0.34500  0.25100  1.0000
  O   O7        1.0  0.80500  0.56500  0.44000  1.0000
  O   O8        1.0  0.43500  0.24100  0.44100  1.0000
  O   O9        1.0  0.75900  0.19500  0.44100  1.0000
  O   O10       1.0  0.45900  0.90400  0.48400  1.0000
  O   O11       1.0  0.44500  0.54100  0.48400  1.0000
  O   O12       1.0  0.09550  0.55500  0.48400  1.0000
  O   O13       1.0  0.08350  0.84600  0.53100  1.0000
  O   O14       1.0  0.15400  0.23700  0.53100  1.0000
  O   O15       1.0  0.76300  0.91600  0.53200  1.0000
  O   O16       1.0  0.34500  0.07700  0.75100  1.0000
  O   O17       1.0  0.92300  0.26800  0.75100  1.0000
  O   O18       1.0  0.73300  0.65500  0.75100  1.0000
  O   O19       1.0  0.19500  0.43500  0.94000  1.0000
  O   O20       1.0  0.56500  0.75900  0.94100  1.0000
  O   O21       1.0  0.24100  0.80500  0.94100  1.0000
  O   O22       1.0  0.54100  0.09570  0.98400  1.0000
  O   O23       1.0  0.55500  0.45900  0.98400  1.0000
  O   O24       1.0  0.90400  0.44500  0.98400  1.0000
  Si  Si1       1.0  0.01300  0.67100  0.43000  1.0000
  Si  Si2       1.0  0.32900  0.34200  0.43000  1.0000
  Si  Si3       1.0  0.65800  0.98700  0.43000  1.0000
  Si  Si4       1.0  0.98700  0.32900  0.93000  1.0000
  Si  Si5       1.0  0.67100  0.65800  0.93000  1.0000
  Si  Si6       1.0  0.34200  0.01300  0.93000  1.0000
