data_image0
_chemical_formula_structural       Ag2Pb3Si2
_chemical_formula_sum              "Ag2 Pb3 Si2"
_cell_length_a       8.63703
_cell_length_b       8.63703
_cell_length_c       8.63703
_cell_angle_alpha    33.7226
_cell_angle_beta     33.7226
_cell_angle_gamma    33.7226

_space_group_name_H-M_alt    "P 1"
_space_group_IT_number       1

loop_
  _space_group_symop_operation_xyz
  'x, y, z'

loop_
  _atom_site_type_symbol
  _atom_site_label
  _atom_site_symmetry_multiplicity
  _atom_site_fract_x
  _atom_site_fract_y
  _atom_site_fract_z
  _atom_site_occupancy
  Ag  Ag1       1.0  0.01390  0.01390  0.01390  1.0000
  Ag  Ag2       1.0  0.49700  0.49700  0.49700  1.0000
  Pb  Pb1       1.0  0.37900  0.37900  0.37900  1.0000
  Pb  Pb2       1.0  0.62500  0.62500  0.62500  1.0000
  Pb  Pb3       1.0  0.86800  0.86800  0.86800  1.0000
  Si  Si1       1.0  0.24400  0.24400  0.24400  1.0000
  Si  Si2       1.0  0.74900  0.74900  0.74900  1.0000
