data_image0
_chemical_formula_structural       Au2Pb2Sn3
_chemical_formula_sum              "Au2 Pb2 Sn3"
_cell_length_a       8.75344
_cell_length_b       8.75344
_cell_length_c       8.75344
_cell_angle_alpha    34.0379
_cell_angle_beta     34.0379
_cell_angle_gamma    34.0379

_space_group_name_H-M_alt    "P 1"
_space_group_IT_number       1

loop_
  _space_group_symop_operation_xyz
  'x, y, z'

loop_
  _atom_site_type_symbol
  _atom_site_label
  _atom_site_symmetry_multiplicity
  _atom_site_fract_x
  _atom_site_fract_y
  _atom_site_fract_z
  _atom_site_occupancy
  Au  Au1       1.0  0.00426  0.00426  0.00426  1.0000
  Au  Au2       1.0  0.49500  0.49500  0.49500  1.0000
  Pb  Pb1       1.0  0.23800  0.23800  0.23800  1.0000
  Pb  Pb2       1.0  0.75700  0.75700  0.75700  1.0000
  Sn  Sn1       1.0  0.37500  0.37500  0.37500  1.0000
  Sn  Sn2       1.0  0.62900  0.62900  0.62900  1.0000
  Sn  Sn3       1.0  0.87700  0.87700  0.87700  1.0000
