data_image0
_chemical_formula_structural       Au2Ge3Pb2
_chemical_formula_sum              "Au2 Ge3 Pb2"
_cell_length_a       8.54399
_cell_length_b       8.54399
_cell_length_c       8.54399
_cell_angle_alpha    33.0142
_cell_angle_beta     33.0142
_cell_angle_gamma    33.0142

_space_group_name_H-M_alt    "P 1"
_space_group_IT_number       1

loop_
  _space_group_symop_operation_xyz
  'x, y, z'

loop_
  _atom_site_type_symbol
  _atom_site_label
  _atom_site_symmetry_multiplicity
  _atom_site_fract_x
  _atom_site_fract_y
  _atom_site_fract_z
  _atom_site_occupancy
  Au  Au1       1.0  0.00000  0.00000  0.00000  1.0000
  Au  Au2       1.0  0.48600  0.48600  0.48600  1.0000
  Ge  Ge1       1.0  0.36700  0.36700  0.36700  1.0000
  Ge  Ge2       1.0  0.64300  0.64300  0.64300  1.0000
  Ge  Ge3       1.0  0.88400  0.88400  0.88400  1.0000
  Pb  Pb1       1.0  0.23000  0.23000  0.23000  1.0000
  Pb  Pb2       1.0  0.76500  0.76500  0.76500  1.0000
