data_image0
_chemical_formula_structural       Cu2Ge2Pb3
_chemical_formula_sum              "Cu2 Ge2 Pb3"
_cell_length_a       8.74248
_cell_length_b       8.74248
_cell_length_c       8.74248
_cell_angle_alpha    32.4385
_cell_angle_beta     32.4385
_cell_angle_gamma    32.4385

_space_group_name_H-M_alt    "P 1"
_space_group_IT_number       1

loop_
  _space_group_symop_operation_xyz
  'x, y, z'

loop_
  _atom_site_type_symbol
  _atom_site_label
  _atom_site_symmetry_multiplicity
  _atom_site_fract_x
  _atom_site_fract_y
  _atom_site_fract_z
  _atom_site_occupancy
  Cu  Cu1       1.0  0.24000  0.24000  0.24000  1.0000
  Cu  Cu2       1.0  0.74900  0.74900  0.74900  1.0000
  Ge  Ge1       1.0  0.00716  0.00716  0.00716  1.0000
  Ge  Ge2       1.0  0.50100  0.50100  0.50100  1.0000
  Pb  Pb1       1.0  0.38600  0.38600  0.38600  1.0000
  Pb  Pb2       1.0  0.62400  0.62400  0.62400  1.0000
  Pb  Pb3       1.0  0.86700  0.86700  0.86700  1.0000
