data_image0
_chemical_formula_structural       Au2Pb3Si2
_chemical_formula_sum              "Au2 Pb3 Si2"
_cell_length_a       9.47073
_cell_length_b       9.47073
_cell_length_c       9.47073
_cell_angle_alpha    28.1601
_cell_angle_beta     28.1601
_cell_angle_gamma    28.1601

_space_group_name_H-M_alt    "P 1"
_space_group_IT_number       1

loop_
  _space_group_symop_operation_xyz
  'x, y, z'

loop_
  _atom_site_type_symbol
  _atom_site_label
  _atom_site_symmetry_multiplicity
  _atom_site_fract_x
  _atom_site_fract_y
  _atom_site_fract_z
  _atom_site_occupancy
  Au  Au1       1.0  0.08390  0.08390  0.08390  1.0000
  Au  Au2       1.0  0.47000  0.47000  0.47000  1.0000
  Pb  Pb1       1.0  0.35500  0.35500  0.35500  1.0000
  Pb  Pb2       1.0  0.61600  0.61600  0.61600  1.0000
  Pb  Pb3       1.0  0.85800  0.85800  0.85800  1.0000
  Si  Si1       1.0  0.24200  0.24200  0.24200  1.0000
  Si  Si2       1.0  0.75100  0.75100  0.75100  1.0000
