data_image0
_chemical_formula_structural       Pd2Ta2Ti3
_chemical_formula_sum              "Pd2 Ta2 Ti3"
_cell_length_a       6.90076
_cell_length_b       6.90076
_cell_length_c       6.90076
_cell_angle_alpha    38.7424
_cell_angle_beta     38.7424
_cell_angle_gamma    38.7424

_space_group_name_H-M_alt    "P 1"
_space_group_IT_number       1

loop_
  _space_group_symop_operation_xyz
  'x, y, z'

loop_
  _atom_site_type_symbol
  _atom_site_label
  _atom_site_symmetry_multiplicity
  _atom_site_fract_x
  _atom_site_fract_y
  _atom_site_fract_z
  _atom_site_occupancy
  Pd  Pd1       1.0  0.04860  0.04860  0.04860  1.0000
  Pd  Pd2       1.0  0.48700  0.48700  0.48700  1.0000
  Ta  Ta1       1.0  0.19500  0.19500  0.19500  1.0000
  Ta  Ta2       1.0  0.76900  0.76900  0.76900  1.0000
  Ti  Ti1       1.0  0.34100  0.34100  0.34100  1.0000
  Ti  Ti2       1.0  0.62200  0.62200  0.62200  1.0000
  Ti  Ti3       1.0  0.91300  0.91300  0.91300  1.0000
