data_image0
_chemical_formula_structural       Bi2Hf3Pt2
_chemical_formula_sum              "Bi2 Hf3 Pt2"
_cell_length_a       8.43144
_cell_length_b       8.43144
_cell_length_c       8.43144
_cell_angle_alpha    33.3838
_cell_angle_beta     33.3838
_cell_angle_gamma    33.3838

_space_group_name_H-M_alt    "P 1"
_space_group_IT_number       1

loop_
  _space_group_symop_operation_xyz
  'x, y, z'

loop_
  _atom_site_type_symbol
  _atom_site_label
  _atom_site_symmetry_multiplicity
  _atom_site_fract_x
  _atom_site_fract_y
  _atom_site_fract_z
  _atom_site_occupancy
  Bi  Bi1       1.0  0.24500  0.24500  0.24500  1.0000
  Bi  Bi2       1.0  0.75600  0.75600  0.75600  1.0000
  Hf  Hf1       1.0  0.37800  0.37800  0.37800  1.0000
  Hf  Hf2       1.0  0.63600  0.63600  0.63600  1.0000
  Hf  Hf3       1.0  0.87300  0.87300  0.87300  1.0000
  Pt  Pt1       1.0  0.50400  0.50400  0.50400  1.0000
  Pt  Pt2       1.0  0.98500  0.98500  0.98500  1.0000
