data_image0
_chemical_formula_structural       Pd2Sb2Si3
_chemical_formula_sum              "Pd2 Sb2 Si3"
_cell_length_a       8.46458
_cell_length_b       8.46458
_cell_length_c       8.46458
_cell_angle_alpha    30.0213
_cell_angle_beta     30.0213
_cell_angle_gamma    30.0213

_space_group_name_H-M_alt    "P 1"
_space_group_IT_number       1

loop_
  _space_group_symop_operation_xyz
  'x, y, z'

loop_
  _atom_site_type_symbol
  _atom_site_label
  _atom_site_symmetry_multiplicity
  _atom_site_fract_x
  _atom_site_fract_y
  _atom_site_fract_z
  _atom_site_occupancy
  Pd  Pd1       1.0  0.00672  0.00672  0.00672  1.0000
  Pd  Pd2       1.0  0.47500  0.47500  0.47500  1.0000
  Sb  Sb1       1.0  0.19800  0.19800  0.19800  1.0000
  Sb  Sb2       1.0  0.76700  0.76700  0.76700  1.0000
  Si  Si1       1.0  0.36900  0.36900  0.36900  1.0000
  Si  Si2       1.0  0.64900  0.64900  0.64900  1.0000
  Si  Si3       1.0  0.91100  0.91100  0.91100  1.0000
