data_image0
_chemical_formula_structural       Hf3Pt2Ta2
_chemical_formula_sum              "Hf3 Pt2 Ta2"
_cell_length_a       7.20046
_cell_length_b       7.20046
_cell_length_c       7.20046
_cell_angle_alpha    38.3955
_cell_angle_beta     38.3955
_cell_angle_gamma    38.3955

_space_group_name_H-M_alt    "P 1"
_space_group_IT_number       1

loop_
  _space_group_symop_operation_xyz
  'x, y, z'

loop_
  _atom_site_type_symbol
  _atom_site_label
  _atom_site_symmetry_multiplicity
  _atom_site_fract_x
  _atom_site_fract_y
  _atom_site_fract_z
  _atom_site_occupancy
  Hf  Hf1       1.0  0.34700  0.34700  0.34700  1.0000
  Hf  Hf2       1.0  0.62100  0.62100  0.62100  1.0000
  Hf  Hf3       1.0  0.91000  0.91000  0.91000  1.0000
  Pt  Pt1       1.0  0.04500  0.04500  0.04500  1.0000
  Pt  Pt2       1.0  0.49000  0.49000  0.49000  1.0000
  Ta  Ta1       1.0  0.19000  0.19000  0.19000  1.0000
  Ta  Ta2       1.0  0.77300  0.77300  0.77300  1.0000
