data_image0
_chemical_formula_structural       Hf3Pd2Sb2
_chemical_formula_sum              "Hf3 Pd2 Sb2"
_cell_length_a       7.69138
_cell_length_b       7.69138
_cell_length_c       7.69138
_cell_angle_alpha    36.5894
_cell_angle_beta     36.5894
_cell_angle_gamma    36.5894

_space_group_name_H-M_alt    "P 1"
_space_group_IT_number       1

loop_
  _space_group_symop_operation_xyz
  'x, y, z'

loop_
  _atom_site_type_symbol
  _atom_site_label
  _atom_site_symmetry_multiplicity
  _atom_site_fract_x
  _atom_site_fract_y
  _atom_site_fract_z
  _atom_site_occupancy
  Hf  Hf1       1.0  0.35800  0.35800  0.35800  1.0000
  Hf  Hf2       1.0  0.62300  0.62300  0.62300  1.0000
  Hf  Hf3       1.0  0.89600  0.89600  0.89600  1.0000
  Pd  Pd1       1.0  0.03100  0.03100  0.03100  1.0000
  Pd  Pd2       1.0  0.48900  0.48900  0.48900  1.0000
  Sb  Sb1       1.0  0.22100  0.22100  0.22100  1.0000
  Sb  Sb2       1.0  0.75800  0.75800  0.75800  1.0000
