data_image0
_chemical_formula_structural       Ag2Pb2Si3
_chemical_formula_sum              "Ag2 Pb2 Si3"
_cell_length_a       8.83912
_cell_length_b       8.83912
_cell_length_c       8.83912
_cell_angle_alpha    30.2976
_cell_angle_beta     30.2976
_cell_angle_gamma    30.2976

_space_group_name_H-M_alt    "P 1"
_space_group_IT_number       1

loop_
  _space_group_symop_operation_xyz
  'x, y, z'

loop_
  _atom_site_type_symbol
  _atom_site_label
  _atom_site_symmetry_multiplicity
  _atom_site_fract_x
  _atom_site_fract_y
  _atom_site_fract_z
  _atom_site_occupancy
  Ag  Ag1       1.0  0.25200  0.25200  0.25200  1.0000
  Ag  Ag2       1.0  0.76000  0.76000  0.76000  1.0000
  Pb  Pb1       1.0  0.00875  0.00875  0.00875  1.0000
  Pb  Pb2       1.0  0.48800  0.48800  0.48800  1.0000
  Si  Si1       1.0  0.38200  0.38200  0.38200  1.0000
  Si  Si2       1.0  0.59700  0.59700  0.59700  1.0000
  Si  Si3       1.0  0.88700  0.88700  0.88700  1.0000
