data_image0
_chemical_formula_structural       Co4Se16Ta22
_chemical_formula_sum              "Co4 Se16 Ta22"
_cell_length_a       12.1516
_cell_length_b       19.5892
_cell_length_c       3.42453
_cell_angle_alpha    90
_cell_angle_beta     90
_cell_angle_gamma    90

_space_group_name_H-M_alt    "P 1"
_space_group_IT_number       1

loop_
  _space_group_symop_operation_xyz
  'x, y, z'

loop_
  _atom_site_type_symbol
  _atom_site_label
  _atom_site_symmetry_multiplicity
  _atom_site_fract_x
  _atom_site_fract_y
  _atom_site_fract_z
  _atom_site_occupancy
  Co  Co1       1.0  0.90500  0.12800  0.00000  1.0000
  Co  Co2       1.0  0.09540  0.87200  0.00000  1.0000
  Co  Co3       1.0  0.40500  0.37200  0.50000  1.0000
  Co  Co4       1.0  0.59500  0.62800  0.50000  1.0000
  Se  Se1       1.0  0.20500  0.05610  0.00000  1.0000
  Se  Se2       1.0  0.45600  0.17400  0.00000  1.0000
  Se  Se3       1.0  0.71400  0.28500  0.00000  1.0000
  Se  Se4       1.0  0.10800  0.44700  0.00000  1.0000
  Se  Se5       1.0  0.89200  0.55300  0.00000  1.0000
  Se  Se6       1.0  0.28600  0.71500  0.00000  1.0000
  Se  Se7       1.0  0.54400  0.82600  0.00000  1.0000
  Se  Se8       1.0  0.79500  0.94400  0.00000  1.0000
  Se  Se9       1.0  0.60800  0.05270  0.50000  1.0000
  Se  Se10      1.0  0.21400  0.21500  0.50000  1.0000
  Se  Se11      1.0  0.95600  0.32600  0.50000  1.0000
  Se  Se12      1.0  0.70500  0.44400  0.50000  1.0000
  Se  Se13      1.0  0.29500  0.55600  0.50000  1.0000
  Se  Se14      1.0  0.04370  0.67400  0.50000  1.0000
  Se  Se15      1.0  0.78600  0.78500  0.50000  1.0000
  Se  Se16      1.0  0.39200  0.94700  0.50000  1.0000
  Ta  Ta1       1.0  0.00000  0.00000  0.00000  1.0000
  Ta  Ta2       1.0  0.67100  0.14600  0.00000  1.0000
  Ta  Ta3       1.0  0.05110  0.24300  0.00000  1.0000
  Ta  Ta4       1.0  0.34500  0.28800  0.00000  1.0000
  Ta  Ta5       1.0  0.56000  0.38400  0.00000  1.0000
  Ta  Ta6       1.0  0.31900  0.44800  0.00000  1.0000
  Ta  Ta7       1.0  0.68100  0.55200  0.00000  1.0000
  Ta  Ta8       1.0  0.44000  0.61600  0.00000  1.0000
  Ta  Ta9       1.0  0.65500  0.71200  0.00000  1.0000
  Ta  Ta10      1.0  0.94900  0.75700  0.00000  1.0000
  Ta  Ta11      1.0  0.32900  0.85400  0.00000  1.0000
  Ta  Ta12      1.0  0.81900  0.05240  0.50000  1.0000
  Ta  Ta13      1.0  0.06010  0.11600  0.50000  1.0000
  Ta  Ta14      1.0  0.84500  0.21200  0.50000  1.0000
  Ta  Ta15      1.0  0.55100  0.25700  0.50000  1.0000
  Ta  Ta16      1.0  0.17100  0.35400  0.50000  1.0000
  Ta  Ta17      1.0  0.50000  0.50000  0.50000  1.0000
  Ta  Ta18      1.0  0.82900  0.64600  0.50000  1.0000
  Ta  Ta19      1.0  0.44900  0.74300  0.50000  1.0000
  Ta  Ta20      1.0  0.15500  0.78800  0.50000  1.0000
  Ta  Ta21      1.0  0.94000  0.88400  0.50000  1.0000
  Ta  Ta22      1.0  0.18100  0.94800  0.50000  1.0000
