data_image0
_chemical_formula_structural       Bi2Pt2Zr3
_chemical_formula_sum              "Bi2 Pt2 Zr3"
_cell_length_a       8.38918
_cell_length_b       8.38918
_cell_length_c       8.38918
_cell_angle_alpha    33.581
_cell_angle_beta     33.581
_cell_angle_gamma    33.581

_space_group_name_H-M_alt    "P 1"
_space_group_IT_number       1

loop_
  _space_group_symop_operation_xyz
  'x, y, z'

loop_
  _atom_site_type_symbol
  _atom_site_label
  _atom_site_symmetry_multiplicity
  _atom_site_fract_x
  _atom_site_fract_y
  _atom_site_fract_z
  _atom_site_occupancy
  Bi  Bi1       1.0  0.24300  0.24300  0.24300  1.0000
  Bi  Bi2       1.0  0.75400  0.75400  0.75400  1.0000
  Pt  Pt1       1.0  0.00658  0.00658  0.00658  1.0000
  Pt  Pt2       1.0  0.49600  0.49600  0.49600  1.0000
  Zr  Zr1       1.0  0.37400  0.37400  0.37400  1.0000
  Zr  Zr2       1.0  0.62700  0.62700  0.62700  1.0000
  Zr  Zr3       1.0  0.87400  0.87400  0.87400  1.0000
