data_image0
_chemical_formula_structural       Bi2Hf3Pd2
_chemical_formula_sum              "Bi2 Hf3 Pd2"
_cell_length_a       8.30398
_cell_length_b       8.30398
_cell_length_c       8.30398
_cell_angle_alpha    33.748
_cell_angle_beta     33.748
_cell_angle_gamma    33.748

_space_group_name_H-M_alt    "P 1"
_space_group_IT_number       1

loop_
  _space_group_symop_operation_xyz
  'x, y, z'

loop_
  _atom_site_type_symbol
  _atom_site_label
  _atom_site_symmetry_multiplicity
  _atom_site_fract_x
  _atom_site_fract_y
  _atom_site_fract_z
  _atom_site_occupancy
  Bi  Bi1       1.0  0.24100  0.24100  0.24100  1.0000
  Bi  Bi2       1.0  0.75600  0.75600  0.75600  1.0000
  Hf  Hf1       1.0  0.37300  0.37300  0.37300  1.0000
  Hf  Hf2       1.0  0.62900  0.62900  0.62900  1.0000
  Hf  Hf3       1.0  0.87800  0.87800  0.87800  1.0000
  Pd  Pd1       1.0  0.00252  0.00252  0.00252  1.0000
  Pd  Pd2       1.0  0.49500  0.49500  0.49500  1.0000
