data_image0
_chemical_formula_structural       Hf3Ni2V2
_chemical_formula_sum              "Hf3 Ni2 V2"
_cell_length_a       7.65595
_cell_length_b       7.65595
_cell_length_c       7.65595
_cell_angle_alpha    32.8637
_cell_angle_beta     32.8637
_cell_angle_gamma    32.8637

_space_group_name_H-M_alt    "P 1"
_space_group_IT_number       1

loop_
  _space_group_symop_operation_xyz
  'x, y, z'

loop_
  _atom_site_type_symbol
  _atom_site_label
  _atom_site_symmetry_multiplicity
  _atom_site_fract_x
  _atom_site_fract_y
  _atom_site_fract_z
  _atom_site_occupancy
  Hf  Hf1       1.0  0.39100  0.39100  0.39100  1.0000
  Hf  Hf2       1.0  0.63800  0.63800  0.63800  1.0000
  Hf  Hf3       1.0  0.89100  0.89100  0.89100  1.0000
  Ni  Ni1       1.0  0.02190  0.02190  0.02190  1.0000
  Ni  Ni2       1.0  0.51300  0.51300  0.51300  1.0000
  V   V1        1.0  0.14800  0.14800  0.14800  1.0000
  V   V2        1.0  0.77200  0.77200  0.77200  1.0000
