data_image0
_chemical_formula_structural       Hf3Ni2Ta2
_chemical_formula_sum              "Hf3 Ni2 Ta2"
_cell_length_a       6.95197
_cell_length_b       6.95197
_cell_length_c       6.95197
_cell_angle_alpha    39.2441
_cell_angle_beta     39.2441
_cell_angle_gamma    39.2441

_space_group_name_H-M_alt    "P 1"
_space_group_IT_number       1

loop_
  _space_group_symop_operation_xyz
  'x, y, z'

loop_
  _atom_site_type_symbol
  _atom_site_label
  _atom_site_symmetry_multiplicity
  _atom_site_fract_x
  _atom_site_fract_y
  _atom_site_fract_z
  _atom_site_occupancy
  Hf  Hf1       1.0  0.35100  0.35100  0.35100  1.0000
  Hf  Hf2       1.0  0.61600  0.61600  0.61600  1.0000
  Hf  Hf3       1.0  0.91400  0.91400  0.91400  1.0000
  Ni  Ni1       1.0  0.04800  0.04800  0.04800  1.0000
  Ni  Ni2       1.0  0.48700  0.48700  0.48700  1.0000
  Ta  Ta1       1.0  0.18600  0.18600  0.18600  1.0000
  Ta  Ta2       1.0  0.77300  0.77300  0.77300  1.0000
