data_image0
_chemical_formula_structural       As2Ni2Si3
_chemical_formula_sum              "As2 Ni2 Si3"
_cell_length_a       8.13637
_cell_length_b       8.13637
_cell_length_c       8.13637
_cell_angle_alpha    28.0992
_cell_angle_beta     28.0992
_cell_angle_gamma    28.0992

_space_group_name_H-M_alt    "P 1"
_space_group_IT_number       1

loop_
  _space_group_symop_operation_xyz
  'x, y, z'

loop_
  _atom_site_type_symbol
  _atom_site_label
  _atom_site_symmetry_multiplicity
  _atom_site_fract_x
  _atom_site_fract_y
  _atom_site_fract_z
  _atom_site_occupancy
  As  As1       1.0  0.05700  0.05700  0.05700  1.0000
  As  As2       1.0  0.47700  0.47700  0.47700  1.0000
  Ni  Ni1       1.0  0.24600  0.24600  0.24600  1.0000
  Ni  Ni2       1.0  0.77700  0.77700  0.77700  1.0000
  Si  Si1       1.0  0.33900  0.33900  0.33900  1.0000
  Si  Si2       1.0  0.60300  0.60300  0.60300  1.0000
  Si  Si3       1.0  0.87700  0.87700  0.87700  1.0000
