data_image0
_chemical_formula_structural       Au2Sn3Zr2
_chemical_formula_sum              "Au2 Sn3 Zr2"
_cell_length_a       8.89607
_cell_length_b       8.89607
_cell_length_c       8.89607
_cell_angle_alpha    30.7288
_cell_angle_beta     30.7288
_cell_angle_gamma    30.7288

_space_group_name_H-M_alt    "P 1"
_space_group_IT_number       1

loop_
  _space_group_symop_operation_xyz
  'x, y, z'

loop_
  _atom_site_type_symbol
  _atom_site_label
  _atom_site_symmetry_multiplicity
  _atom_site_fract_x
  _atom_site_fract_y
  _atom_site_fract_z
  _atom_site_occupancy
  Au  Au1       1.0  0.01000  0.01000  0.01000  1.0000
  Au  Au2       1.0  0.49600  0.49600  0.49600  1.0000
  Sn  Sn1       1.0  0.38200  0.38200  0.38200  1.0000
  Sn  Sn2       1.0  0.62600  0.62600  0.62600  1.0000
  Sn  Sn3       1.0  0.86200  0.86200  0.86200  1.0000
  Zr  Zr1       1.0  0.24900  0.24900  0.24900  1.0000
  Zr  Zr2       1.0  0.75100  0.75100  0.75100  1.0000
