data_image0
_chemical_formula_structural       As2Hf3Ni2
_chemical_formula_sum              "As2 Hf3 Ni2"
_cell_length_a       7.86185
_cell_length_b       7.86185
_cell_length_c       7.86185
_cell_angle_alpha    33.289
_cell_angle_beta     33.289
_cell_angle_gamma    33.289

_space_group_name_H-M_alt    "P 1"
_space_group_IT_number       1

loop_
  _space_group_symop_operation_xyz
  'x, y, z'

loop_
  _atom_site_type_symbol
  _atom_site_label
  _atom_site_symmetry_multiplicity
  _atom_site_fract_x
  _atom_site_fract_y
  _atom_site_fract_z
  _atom_site_occupancy
  As  As1       1.0  0.50300  0.50300  0.50300  1.0000
  As  As2       1.0  0.99900  0.99900  0.99900  1.0000
  Hf  Hf1       1.0  0.38500  0.38500  0.38500  1.0000
  Hf  Hf2       1.0  0.62100  0.62100  0.62100  1.0000
  Hf  Hf3       1.0  0.86400  0.86400  0.86400  1.0000
  Ni  Ni1       1.0  0.26500  0.26500  0.26500  1.0000
  Ni  Ni2       1.0  0.73800  0.73800  0.73800  1.0000
