data_image0
_chemical_formula_structural       Nb2Ni2Zr3
_chemical_formula_sum              "Nb2 Ni2 Zr3"
_cell_length_a       7.67525
_cell_length_b       7.67525
_cell_length_c       7.67525
_cell_angle_alpha    34.5137
_cell_angle_beta     34.5137
_cell_angle_gamma    34.5137

_space_group_name_H-M_alt    "P 1"
_space_group_IT_number       1

loop_
  _space_group_symop_operation_xyz
  'x, y, z'

loop_
  _atom_site_type_symbol
  _atom_site_label
  _atom_site_symmetry_multiplicity
  _atom_site_fract_x
  _atom_site_fract_y
  _atom_site_fract_z
  _atom_site_occupancy
  Nb  Nb1       1.0  0.15500  0.15500  0.15500  1.0000
  Nb  Nb2       1.0  0.77200  0.77200  0.77200  1.0000
  Ni  Ni1       1.0  0.02490  0.02490  0.02490  1.0000
  Ni  Ni2       1.0  0.50900  0.50900  0.50900  1.0000
  Zr  Zr1       1.0  0.38300  0.38300  0.38300  1.0000
  Zr  Zr2       1.0  0.63200  0.63200  0.63200  1.0000
  Zr  Zr3       1.0  0.90000  0.90000  0.90000  1.0000
