data_image0
_chemical_formula_structural       Ni2Ta2Zr3
_chemical_formula_sum              "Ni2 Ta2 Zr3"
_cell_length_a       7.23526
_cell_length_b       7.23526
_cell_length_c       7.23526
_cell_angle_alpha    37.1819
_cell_angle_beta     37.1819
_cell_angle_gamma    37.1819

_space_group_name_H-M_alt    "P 1"
_space_group_IT_number       1

loop_
  _space_group_symop_operation_xyz
  'x, y, z'

loop_
  _atom_site_type_symbol
  _atom_site_label
  _atom_site_symmetry_multiplicity
  _atom_site_fract_x
  _atom_site_fract_y
  _atom_site_fract_z
  _atom_site_occupancy
  Ni  Ni1       1.0  0.04010  0.04010  0.04010  1.0000
  Ni  Ni2       1.0  0.49500  0.49500  0.49500  1.0000
  Ta  Ta1       1.0  0.17300  0.17300  0.17300  1.0000
  Ta  Ta2       1.0  0.77300  0.77300  0.77300  1.0000
  Zr  Zr1       1.0  0.36400  0.36400  0.36400  1.0000
  Zr  Zr2       1.0  0.62000  0.62000  0.62000  1.0000
  Zr  Zr3       1.0  0.91100  0.91100  0.91100  1.0000
