data_image0
_chemical_formula_structural       Ni2Sb2Zr3
_chemical_formula_sum              "Ni2 Sb2 Zr3"
_cell_length_a       8.17839
_cell_length_b       8.17839
_cell_length_c       8.17839
_cell_angle_alpha    33.082
_cell_angle_beta     33.082
_cell_angle_gamma    33.082

_space_group_name_H-M_alt    "P 1"
_space_group_IT_number       1

loop_
  _space_group_symop_operation_xyz
  'x, y, z'

loop_
  _atom_site_type_symbol
  _atom_site_label
  _atom_site_symmetry_multiplicity
  _atom_site_fract_x
  _atom_site_fract_y
  _atom_site_fract_z
  _atom_site_occupancy
  Ni  Ni1       1.0  0.24500  0.24500  0.24500  1.0000
  Ni  Ni2       1.0  0.75400  0.75400  0.75400  1.0000
  Sb  Sb1       1.0  0.00500  0.00500  0.00500  1.0000
  Sb  Sb2       1.0  0.49600  0.49600  0.49600  1.0000
  Zr  Zr1       1.0  0.37800  0.37800  0.37800  1.0000
  Zr  Zr2       1.0  0.62200  0.62200  0.62200  1.0000
  Zr  Zr3       1.0  0.87400  0.87400  0.87400  1.0000
