data_image0
_chemical_formula_structural       Hf3Nb2Pd2
_chemical_formula_sum              "Hf3 Nb2 Pd2"
_cell_length_a       7.77586
_cell_length_b       7.77586
_cell_length_c       7.77586
_cell_angle_alpha    35.0768
_cell_angle_beta     35.0768
_cell_angle_gamma    35.0768

_space_group_name_H-M_alt    "P 1"
_space_group_IT_number       1

loop_
  _space_group_symop_operation_xyz
  'x, y, z'

loop_
  _atom_site_type_symbol
  _atom_site_label
  _atom_site_symmetry_multiplicity
  _atom_site_fract_x
  _atom_site_fract_y
  _atom_site_fract_z
  _atom_site_occupancy
  Hf  Hf1       1.0  0.37200  0.37200  0.37200  1.0000
  Hf  Hf2       1.0  0.62700  0.62700  0.62700  1.0000
  Hf  Hf3       1.0  0.88200  0.88200  0.88200  1.0000
  Nb  Nb1       1.0  0.23600  0.23600  0.23600  1.0000
  Nb  Nb2       1.0  0.75900  0.75900  0.75900  1.0000
  Pd  Pd1       1.0  0.00777  0.00777  0.00777  1.0000
  Pd  Pd2       1.0  0.49200  0.49200  0.49200  1.0000
