data_image0
_chemical_formula_structural       Hf3Pd2V2
_chemical_formula_sum              "Hf3 Pd2 V2"
_cell_length_a       7.70852
_cell_length_b       7.70852
_cell_length_c       7.70852
_cell_angle_alpha    34.48
_cell_angle_beta     34.48
_cell_angle_gamma    34.48

_space_group_name_H-M_alt    "P 1"
_space_group_IT_number       1

loop_
  _space_group_symop_operation_xyz
  'x, y, z'

loop_
  _atom_site_type_symbol
  _atom_site_label
  _atom_site_symmetry_multiplicity
  _atom_site_fract_x
  _atom_site_fract_y
  _atom_site_fract_z
  _atom_site_occupancy
  Hf  Hf1       1.0  0.37400  0.37400  0.37400  1.0000
  Hf  Hf2       1.0  0.62600  0.62600  0.62600  1.0000
  Hf  Hf3       1.0  0.87400  0.87400  0.87400  1.0000
  Pd  Pd1       1.0  0.00680  0.00680  0.00680  1.0000
  Pd  Pd2       1.0  0.49400  0.49400  0.49400  1.0000
  V   V1        1.0  0.24400  0.24400  0.24400  1.0000
  V   V2        1.0  0.75400  0.75400  0.75400  1.0000
