data_image0
_chemical_formula_structural       As2Pd2Zr3
_chemical_formula_sum              "As2 Pd2 Zr3"
_cell_length_a       7.97415
_cell_length_b       7.97415
_cell_length_c       7.97415
_cell_angle_alpha    33.7806
_cell_angle_beta     33.7806
_cell_angle_gamma    33.7806

_space_group_name_H-M_alt    "P 1"
_space_group_IT_number       1

loop_
  _space_group_symop_operation_xyz
  'x, y, z'

loop_
  _atom_site_type_symbol
  _atom_site_label
  _atom_site_symmetry_multiplicity
  _atom_site_fract_x
  _atom_site_fract_y
  _atom_site_fract_z
  _atom_site_occupancy
  As  As1       1.0  0.25000  0.25000  0.25000  1.0000
  As  As2       1.0  0.74800  0.74800  0.74800  1.0000
  Pd  Pd1       1.0  0.01290  0.01290  0.01290  1.0000
  Pd  Pd2       1.0  0.49400  0.49400  0.49400  1.0000
  Zr  Zr1       1.0  0.37700  0.37700  0.37700  1.0000
  Zr  Zr2       1.0  0.62300  0.62300  0.62300  1.0000
  Zr  Zr3       1.0  0.87000  0.87000  0.87000  1.0000
