data_image0
_chemical_formula_structural       Pt2V2Zr3
_chemical_formula_sum              "Pt2 V2 Zr3"
_cell_length_a       8.00515
_cell_length_b       8.00515
_cell_length_c       8.00515
_cell_angle_alpha    33.241
_cell_angle_beta     33.241
_cell_angle_gamma    33.241

_space_group_name_H-M_alt    "P 1"
_space_group_IT_number       1

loop_
  _space_group_symop_operation_xyz
  'x, y, z'

loop_
  _atom_site_type_symbol
  _atom_site_label
  _atom_site_symmetry_multiplicity
  _atom_site_fract_x
  _atom_site_fract_y
  _atom_site_fract_z
  _atom_site_occupancy
  Pt  Pt1       1.0  0.00000  0.00000  0.00000  1.0000
  Pt  Pt2       1.0  0.49900  0.49900  0.49900  1.0000
  V   V1        1.0  0.24800  0.24800  0.24800  1.0000
  V   V2        1.0  0.75200  0.75200  0.75200  1.0000
  Zr  Zr1       1.0  0.38100  0.38100  0.38100  1.0000
  Zr  Zr2       1.0  0.62500  0.62500  0.62500  1.0000
  Zr  Zr3       1.0  0.87000  0.87000  0.87000  1.0000
