data_image0
_chemical_formula_structural       Hf3Pt2Sb2
_chemical_formula_sum              "Hf3 Pt2 Sb2"
_cell_length_a       8.22942
_cell_length_b       8.22942
_cell_length_c       8.22942
_cell_angle_alpha    33.3743
_cell_angle_beta     33.3743
_cell_angle_gamma    33.3743

_space_group_name_H-M_alt    "P 1"
_space_group_IT_number       1

loop_
  _space_group_symop_operation_xyz
  'x, y, z'

loop_
  _atom_site_type_symbol
  _atom_site_label
  _atom_site_symmetry_multiplicity
  _atom_site_fract_x
  _atom_site_fract_y
  _atom_site_fract_z
  _atom_site_occupancy
  Hf  Hf1       1.0  0.37400  0.37400  0.37400  1.0000
  Hf  Hf2       1.0  0.62700  0.62700  0.62700  1.0000
  Hf  Hf3       1.0  0.87200  0.87200  0.87200  1.0000
  Pt  Pt1       1.0  0.00891  0.00891  0.00891  1.0000
  Pt  Pt2       1.0  0.49500  0.49500  0.49500  1.0000
  Sb  Sb1       1.0  0.24500  0.24500  0.24500  1.0000
  Sb  Sb2       1.0  0.75300  0.75300  0.75300  1.0000
