data_image0
_chemical_formula_structural       As2Pt2Si3
_chemical_formula_sum              "As2 Pt2 Si3"
_cell_length_a       8.57214
_cell_length_b       8.57214
_cell_length_c       8.57214
_cell_angle_alpha    28.5223
_cell_angle_beta     28.5223
_cell_angle_gamma    28.5223

_space_group_name_H-M_alt    "P 1"
_space_group_IT_number       1

loop_
  _space_group_symop_operation_xyz
  'x, y, z'

loop_
  _atom_site_type_symbol
  _atom_site_label
  _atom_site_symmetry_multiplicity
  _atom_site_fract_x
  _atom_site_fract_y
  _atom_site_fract_z
  _atom_site_occupancy
  As  As1       1.0  0.19300  0.19300  0.19300  1.0000
  As  As2       1.0  0.77200  0.77200  0.77200  1.0000
  Pt  Pt1       1.0  0.47100  0.47100  0.47100  1.0000
  Pt  Pt2       1.0  0.99800  0.99800  0.99800  1.0000
  Si  Si1       1.0  0.37200  0.37200  0.37200  1.0000
  Si  Si2       1.0  0.66700  0.66700  0.66700  1.0000
  Si  Si3       1.0  0.90200  0.90200  0.90200  1.0000
