data_image0
_chemical_formula_structural       Nb2Ni2Si3
_chemical_formula_sum              "Nb2 Ni2 Si3"
_cell_length_a       8.61633
_cell_length_b       8.61633
_cell_length_c       8.61633
_cell_angle_alpha    25.2366
_cell_angle_beta     25.2366
_cell_angle_gamma    25.2366

_space_group_name_H-M_alt    "P 1"
_space_group_IT_number       1

loop_
  _space_group_symop_operation_xyz
  'x, y, z'

loop_
  _atom_site_type_symbol
  _atom_site_label
  _atom_site_symmetry_multiplicity
  _atom_site_fract_x
  _atom_site_fract_y
  _atom_site_fract_z
  _atom_site_occupancy
  Nb  Nb1       1.0  0.25000  0.25000  0.25000  1.0000
  Nb  Nb2       1.0  0.75500  0.75500  0.75500  1.0000
  Ni  Ni1       1.0  0.00354  0.00354  0.00354  1.0000
  Ni  Ni2       1.0  0.50100  0.50100  0.50100  1.0000
  Si  Si1       1.0  0.36700  0.36700  0.36700  1.0000
  Si  Si2       1.0  0.64300  0.64300  0.64300  1.0000
  Si  Si3       1.0  0.85600  0.85600  0.85600  1.0000
