data_image0
_chemical_formula_structural       Ni2Si3V2
_chemical_formula_sum              "Ni2 Si3 V2"
_cell_length_a       6.93629
_cell_length_b       6.93629
_cell_length_c       6.93629
_cell_angle_alpha    33.5995
_cell_angle_beta     33.5995
_cell_angle_gamma    33.5995

_space_group_name_H-M_alt    "P 1"
_space_group_IT_number       1

loop_
  _space_group_symop_operation_xyz
  'x, y, z'

loop_
  _atom_site_type_symbol
  _atom_site_label
  _atom_site_symmetry_multiplicity
  _atom_site_fract_x
  _atom_site_fract_y
  _atom_site_fract_z
  _atom_site_occupancy
  Ni  Ni1       1.0  0.50300  0.50300  0.50300  1.0000
  Ni  Ni2       1.0  0.99600  0.99600  0.99600  1.0000
  Si  Si1       1.0  0.38100  0.38100  0.38100  1.0000
  Si  Si2       1.0  0.62700  0.62700  0.62700  1.0000
  Si  Si3       1.0  0.87000  0.87000  0.87000  1.0000
  V   V1        1.0  0.24600  0.24600  0.24600  1.0000
  V   V2        1.0  0.75100  0.75100  0.75100  1.0000
