data_image0
_chemical_formula_structural       Ni2Sb2Si3
_chemical_formula_sum              "Ni2 Sb2 Si3"
_cell_length_a       8.67345
_cell_length_b       8.67345
_cell_length_c       8.67345
_cell_angle_alpha    27.0841
_cell_angle_beta     27.0841
_cell_angle_gamma    27.0841

_space_group_name_H-M_alt    "P 1"
_space_group_IT_number       1

loop_
  _space_group_symop_operation_xyz
  'x, y, z'

loop_
  _atom_site_type_symbol
  _atom_site_label
  _atom_site_symmetry_multiplicity
  _atom_site_fract_x
  _atom_site_fract_y
  _atom_site_fract_z
  _atom_site_occupancy
  Ni  Ni1       1.0  0.24300  0.24300  0.24300  1.0000
  Ni  Ni2       1.0  0.78000  0.78000  0.78000  1.0000
  Sb  Sb1       1.0  0.05520  0.05520  0.05520  1.0000
  Sb  Sb2       1.0  0.48100  0.48100  0.48100  1.0000
  Si  Si1       1.0  0.33000  0.33000  0.33000  1.0000
  Si  Si2       1.0  0.60500  0.60500  0.60500  1.0000
  Si  Si3       1.0  0.88100  0.88100  0.88100  1.0000
