data_image0
_chemical_formula_structural       Ag2Hf2Pb3
_chemical_formula_sum              "Ag2 Hf2 Pb3"
_cell_length_a       8.99895
_cell_length_b       8.99895
_cell_length_c       8.99895
_cell_angle_alpha    31.2936
_cell_angle_beta     31.2936
_cell_angle_gamma    31.2936

_space_group_name_H-M_alt    "P 1"
_space_group_IT_number       1

loop_
  _space_group_symop_operation_xyz
  'x, y, z'

loop_
  _atom_site_type_symbol
  _atom_site_label
  _atom_site_symmetry_multiplicity
  _atom_site_fract_x
  _atom_site_fract_y
  _atom_site_fract_z
  _atom_site_occupancy
  Ag  Ag1       1.0  0.00965  0.00965  0.00965  1.0000
  Ag  Ag2       1.0  0.49700  0.49700  0.49700  1.0000
  Hf  Hf1       1.0  0.25100  0.25100  0.25100  1.0000
  Hf  Hf2       1.0  0.74900  0.74900  0.74900  1.0000
  Pb  Pb1       1.0  0.38400  0.38400  0.38400  1.0000
  Pb  Pb2       1.0  0.62300  0.62300  0.62300  1.0000
  Pb  Pb3       1.0  0.86200  0.86200  0.86200  1.0000
