data_image0
_chemical_formula_structural       Co6H4Na2O24P6
_chemical_formula_sum              "Co6 H4 Na2 O24 P6"
_cell_length_a       6.49051
_cell_length_b       8.42992
_cell_length_c       8.42992
_cell_angle_alpha    91.382
_cell_angle_beta     106.488
_cell_angle_gamma    106.488

_space_group_name_H-M_alt    "P 1"
_space_group_IT_number       1

loop_
  _space_group_symop_operation_xyz
  'x, y, z'

loop_
  _atom_site_type_symbol
  _atom_site_label
  _atom_site_symmetry_multiplicity
  _atom_site_fract_x
  _atom_site_fract_y
  _atom_site_fract_z
  _atom_site_occupancy
  Co  Co1       1.0  0.62300  0.37400  0.04610  1.0000
  Co  Co2       1.0  0.25000  0.71700  0.28300  1.0000
  Co  Co3       1.0  0.12300  0.04610  0.37400  1.0000
  Co  Co4       1.0  0.87700  0.95400  0.62600  1.0000
  Co  Co5       1.0  0.75000  0.28300  0.71700  1.0000
  Co  Co6       1.0  0.37700  0.62600  0.95400  1.0000
  H   H1        1.0  0.19300  0.38400  0.38400  1.0000
  H   H2        1.0  0.69300  0.38400  0.38400  1.0000
  H   H3        1.0  0.30700  0.61600  0.61600  1.0000
  H   H4        1.0  0.80700  0.61600  0.61600  1.0000
  Na  Na1       1.0  0.75000  0.97300  0.02730  1.0000
  Na  Na2       1.0  0.25000  0.02730  0.97300  1.0000
  O   O1        1.0  0.11400  0.67300  0.01940  1.0000
  O   O2        1.0  0.30700  0.39300  0.03470  1.0000
  O   O3        1.0  0.59800  0.15400  0.15200  1.0000
  O   O4        1.0  0.09840  0.15200  0.15400  1.0000
  O   O5        1.0  0.53700  0.72200  0.20900  1.0000
  O   O6        1.0  0.15500  0.44900  0.27000  1.0000
  O   O7        1.0  0.96300  0.79100  0.27800  1.0000
  O   O8        1.0  0.73600  0.49700  0.28600  1.0000
  O   O9        1.0  0.38600  0.98100  0.32700  1.0000
  O   O10       1.0  0.80700  0.03470  0.39300  1.0000
  O   O11       1.0  0.65500  0.27000  0.44900  1.0000
  O   O12       1.0  0.23600  0.28600  0.49700  1.0000
  O   O13       1.0  0.76400  0.71400  0.50300  1.0000
  O   O14       1.0  0.34500  0.73000  0.55100  1.0000
  O   O15       1.0  0.19300  0.96500  0.60700  1.0000
  O   O16       1.0  0.61400  0.01940  0.67300  1.0000
  O   O17       1.0  0.26400  0.50300  0.71400  1.0000
  O   O18       1.0  0.03740  0.20900  0.72200  1.0000
  O   O19       1.0  0.84500  0.55100  0.73000  1.0000
  O   O20       1.0  0.46300  0.27800  0.79100  1.0000
  O   O21       1.0  0.90200  0.84800  0.84600  1.0000
  O   O22       1.0  0.40200  0.84600  0.84800  1.0000
  O   O23       1.0  0.69300  0.60700  0.96500  1.0000
  O   O24       1.0  0.88600  0.32700  0.98100  1.0000
  P   P1        1.0  0.11000  0.32800  0.10700  1.0000
  P   P2        1.0  0.75000  0.68200  0.31800  1.0000
  P   P3        1.0  0.61000  0.10700  0.32800  1.0000
  P   P4        1.0  0.39000  0.89300  0.67200  1.0000
  P   P5        1.0  0.25000  0.31800  0.68200  1.0000
  P   P6        1.0  0.89000  0.67200  0.89300  1.0000
