data_image0
_chemical_formula_structural       Ni2Sb2Ti3
_chemical_formula_sum              "Ni2 Sb2 Ti3"
_cell_length_a       7.64708
_cell_length_b       7.64708
_cell_length_c       7.64708
_cell_angle_alpha    33.8535
_cell_angle_beta     33.8535
_cell_angle_gamma    33.8535

_space_group_name_H-M_alt    "P 1"
_space_group_IT_number       1

loop_
  _space_group_symop_operation_xyz
  'x, y, z'

loop_
  _atom_site_type_symbol
  _atom_site_label
  _atom_site_symmetry_multiplicity
  _atom_site_fract_x
  _atom_site_fract_y
  _atom_site_fract_z
  _atom_site_occupancy
  Ni  Ni1       1.0  0.24500  0.24500  0.24500  1.0000
  Ni  Ni2       1.0  0.75400  0.75400  0.75400  1.0000
  Sb  Sb1       1.0  0.00706  0.00706  0.00706  1.0000
  Sb  Sb2       1.0  0.49500  0.49500  0.49500  1.0000
  Ti  Ti1       1.0  0.37300  0.37300  0.37300  1.0000
  Ti  Ti2       1.0  0.62300  0.62300  0.62300  1.0000
  Ti  Ti3       1.0  0.87700  0.87700  0.87700  1.0000
