data_image0
_chemical_formula_structural       As2Hf3Pd2
_chemical_formula_sum              "As2 Hf3 Pd2"
_cell_length_a       7.91824
_cell_length_b       7.91824
_cell_length_c       7.91824
_cell_angle_alpha    33.6841
_cell_angle_beta     33.6841
_cell_angle_gamma    33.6841

_space_group_name_H-M_alt    "P 1"
_space_group_IT_number       1

loop_
  _space_group_symop_operation_xyz
  'x, y, z'

loop_
  _atom_site_type_symbol
  _atom_site_label
  _atom_site_symmetry_multiplicity
  _atom_site_fract_x
  _atom_site_fract_y
  _atom_site_fract_z
  _atom_site_occupancy
  As  As1       1.0  0.24900  0.24900  0.24900  1.0000
  As  As2       1.0  0.74900  0.74900  0.74900  1.0000
  Hf  Hf1       1.0  0.37700  0.37700  0.37700  1.0000
  Hf  Hf2       1.0  0.62400  0.62400  0.62400  1.0000
  Hf  Hf3       1.0  0.87100  0.87100  0.87100  1.0000
  Pd  Pd1       1.0  0.01030  0.01030  0.01030  1.0000
  Pd  Pd2       1.0  0.49500  0.49500  0.49500  1.0000
