data_image0
_chemical_formula_structural       Nb2Pt2Si3
_chemical_formula_sum              "Nb2 Pt2 Si3"
_cell_length_a       8.41755
_cell_length_b       8.41755
_cell_length_c       8.41755
_cell_angle_alpha    27.7705
_cell_angle_beta     27.7705
_cell_angle_gamma    27.7705

_space_group_name_H-M_alt    "P 1"
_space_group_IT_number       1

loop_
  _space_group_symop_operation_xyz
  'x, y, z'

loop_
  _atom_site_type_symbol
  _atom_site_label
  _atom_site_symmetry_multiplicity
  _atom_site_fract_x
  _atom_site_fract_y
  _atom_site_fract_z
  _atom_site_occupancy
  Nb  Nb1       1.0  0.24800  0.24800  0.24800  1.0000
  Nb  Nb2       1.0  0.75200  0.75200  0.75200  1.0000
  Pt  Pt1       1.0  0.00106  0.00106  0.00106  1.0000
  Pt  Pt2       1.0  0.49800  0.49800  0.49800  1.0000
  Si  Si1       1.0  0.38300  0.38300  0.38300  1.0000
  Si  Si2       1.0  0.63600  0.63600  0.63600  1.0000
  Si  Si3       1.0  0.85600  0.85600  0.85600  1.0000
