data_image0
_chemical_formula_structural       Pd2Si3Ta2
_chemical_formula_sum              "Pd2 Si3 Ta2"
_cell_length_a       8.12259
_cell_length_b       8.12259
_cell_length_c       8.12259
_cell_angle_alpha    29.2947
_cell_angle_beta     29.2947
_cell_angle_gamma    29.2947

_space_group_name_H-M_alt    "P 1"
_space_group_IT_number       1

loop_
  _space_group_symop_operation_xyz
  'x, y, z'

loop_
  _atom_site_type_symbol
  _atom_site_label
  _atom_site_symmetry_multiplicity
  _atom_site_fract_x
  _atom_site_fract_y
  _atom_site_fract_z
  _atom_site_occupancy
  Pd  Pd1       1.0  0.49900  0.49900  0.49900  1.0000
  Pd  Pd2       1.0  0.99900  0.99900  0.99900  1.0000
  Si  Si1       1.0  0.38500  0.38500  0.38500  1.0000
  Si  Si2       1.0  0.63300  0.63300  0.63300  1.0000
  Si  Si3       1.0  0.85900  0.85900  0.85900  1.0000
  Ta  Ta1       1.0  0.24700  0.24700  0.24700  1.0000
  Ta  Ta2       1.0  0.75200  0.75200  0.75200  1.0000
