data_image0
_chemical_formula_structural       Pd2V2Zr3
_chemical_formula_sum              "Pd2 V2 Zr3"
_cell_length_a       7.96002
_cell_length_b       7.96002
_cell_length_c       7.96002
_cell_angle_alpha    33.7161
_cell_angle_beta     33.7161
_cell_angle_gamma    33.7161

_space_group_name_H-M_alt    "P 1"
_space_group_IT_number       1

loop_
  _space_group_symop_operation_xyz
  'x, y, z'

loop_
  _atom_site_type_symbol
  _atom_site_label
  _atom_site_symmetry_multiplicity
  _atom_site_fract_x
  _atom_site_fract_y
  _atom_site_fract_z
  _atom_site_occupancy
  Pd  Pd1       1.0  0.00453  0.00453  0.00453  1.0000
  Pd  Pd2       1.0  0.49700  0.49700  0.49700  1.0000
  V   V1        1.0  0.24200  0.24200  0.24200  1.0000
  V   V2        1.0  0.75300  0.75300  0.75300  1.0000
  Zr  Zr1       1.0  0.37900  0.37900  0.37900  1.0000
  Zr  Zr2       1.0  0.62600  0.62600  0.62600  1.0000
  Zr  Zr3       1.0  0.87400  0.87400  0.87400  1.0000
