data_image0
_chemical_formula_structural       Pt2Si3V2
_chemical_formula_sum              "Pt2 Si3 V2"
_cell_length_a       7.65073
_cell_length_b       7.65073
_cell_length_c       7.65073
_cell_angle_alpha    30.8531
_cell_angle_beta     30.8531
_cell_angle_gamma    30.8531

_space_group_name_H-M_alt    "P 1"
_space_group_IT_number       1

loop_
  _space_group_symop_operation_xyz
  'x, y, z'

loop_
  _atom_site_type_symbol
  _atom_site_label
  _atom_site_symmetry_multiplicity
  _atom_site_fract_x
  _atom_site_fract_y
  _atom_site_fract_z
  _atom_site_occupancy
  Pt  Pt1       1.0  0.00467  0.00467  0.00467  1.0000
  Pt  Pt2       1.0  0.49900  0.49900  0.49900  1.0000
  Si  Si1       1.0  0.38400  0.38400  0.38400  1.0000
  Si  Si2       1.0  0.62400  0.62400  0.62400  1.0000
  Si  Si3       1.0  0.86200  0.86200  0.86200  1.0000
  V   V1        1.0  0.25100  0.25100  0.25100  1.0000
  V   V2        1.0  0.75000  0.75000  0.75000  1.0000
