data_image0
_chemical_formula_structural       Nb2Pb3Pd2
_chemical_formula_sum              "Nb2 Pb3 Pd2"
_cell_length_a       8.54602
_cell_length_b       8.54602
_cell_length_c       8.54602
_cell_angle_alpha    31.9181
_cell_angle_beta     31.9181
_cell_angle_gamma    31.9181

_space_group_name_H-M_alt    "P 1"
_space_group_IT_number       1

loop_
  _space_group_symop_operation_xyz
  'x, y, z'

loop_
  _atom_site_type_symbol
  _atom_site_label
  _atom_site_symmetry_multiplicity
  _atom_site_fract_x
  _atom_site_fract_y
  _atom_site_fract_z
  _atom_site_occupancy
  Nb  Nb1       1.0  0.24900  0.24900  0.24900  1.0000
  Nb  Nb2       1.0  0.74900  0.74900  0.74900  1.0000
  Pb  Pb1       1.0  0.38500  0.38500  0.38500  1.0000
  Pb  Pb2       1.0  0.62600  0.62600  0.62600  1.0000
  Pb  Pb3       1.0  0.86300  0.86300  0.86300  1.0000
  Pd  Pd1       1.0  0.00088  0.00088  0.00088  1.0000
  Pd  Pd2       1.0  0.50200  0.50200  0.50200  1.0000
