data_image0
_chemical_formula_structural       Bi2Ge3Ni2
_chemical_formula_sum              "Bi2 Ge3 Ni2"
_cell_length_a       8.37493
_cell_length_b       8.37493
_cell_length_c       8.37493
_cell_angle_alpha    31.1343
_cell_angle_beta     31.1343
_cell_angle_gamma    31.1343

_space_group_name_H-M_alt    "P 1"
_space_group_IT_number       1

loop_
  _space_group_symop_operation_xyz
  'x, y, z'

loop_
  _atom_site_type_symbol
  _atom_site_label
  _atom_site_symmetry_multiplicity
  _atom_site_fract_x
  _atom_site_fract_y
  _atom_site_fract_z
  _atom_site_occupancy
  Bi  Bi1       1.0  0.05880  0.05880  0.05880  1.0000
  Bi  Bi2       1.0  0.48300  0.48300  0.48300  1.0000
  Ge  Ge1       1.0  0.33300  0.33300  0.33300  1.0000
  Ge  Ge2       1.0  0.61100  0.61100  0.61100  1.0000
  Ge  Ge3       1.0  0.88400  0.88400  0.88400  1.0000
  Ni  Ni1       1.0  0.23700  0.23700  0.23700  1.0000
  Ni  Ni2       1.0  0.76900  0.76900  0.76900  1.0000
