data_image0
_chemical_formula_structural       Eu10O14S12V6
_chemical_formula_sum              "Eu10 O14 S12 V6"
_cell_length_a       18.0288
_cell_length_b       3.59902
_cell_length_c       10.0425
_cell_angle_alpha    90
_cell_angle_beta     90
_cell_angle_gamma    90

_space_group_name_H-M_alt    "P 1"
_space_group_IT_number       1

loop_
  _space_group_symop_operation_xyz
  'x, y, z'

loop_
  _atom_site_type_symbol
  _atom_site_label
  _atom_site_symmetry_multiplicity
  _atom_site_fract_x
  _atom_site_fract_y
  _atom_site_fract_z
  _atom_site_occupancy
  Eu  Eu1       1.0  0.58600  0.75000  0.09070  1.0000
  Eu  Eu2       1.0  0.91400  0.75000  0.09070  1.0000
  Eu  Eu3       1.0  0.25000  0.25000  0.29400  1.0000
  Eu  Eu4       1.0  0.62900  0.25000  0.45900  1.0000
  Eu  Eu5       1.0  0.87100  0.25000  0.45900  1.0000
  Eu  Eu6       1.0  0.12900  0.75000  0.54100  1.0000
  Eu  Eu7       1.0  0.37100  0.75000  0.54100  1.0000
  Eu  Eu8       1.0  0.75000  0.75000  0.70600  1.0000
  Eu  Eu9       1.0  0.08570  0.25000  0.90900  1.0000
  Eu  Eu10      1.0  0.41400  0.25000  0.90900  1.0000
  O   O1        1.0  0.00412  0.25000  0.11000  1.0000
  O   O2        1.0  0.49600  0.25000  0.11000  1.0000
  O   O3        1.0  0.65100  0.25000  0.21000  1.0000
  O   O4        1.0  0.84900  0.25000  0.21000  1.0000
  O   O5        1.0  0.12600  0.25000  0.38700  1.0000
  O   O6        1.0  0.37400  0.25000  0.38700  1.0000
  O   O7        1.0  0.25000  0.75000  0.44000  1.0000
  O   O8        1.0  0.75000  0.25000  0.56000  1.0000
  O   O9        1.0  0.62600  0.75000  0.61300  1.0000
  O   O10       1.0  0.87400  0.75000  0.61300  1.0000
  O   O11       1.0  0.15100  0.75000  0.79000  1.0000
  O   O12       1.0  0.34900  0.75000  0.79000  1.0000
  O   O13       1.0  0.50400  0.75000  0.89000  1.0000
  O   O14       1.0  0.99600  0.75000  0.89000  1.0000
  S   S1        1.0  0.75000  0.75000  0.03140  1.0000
  S   S2        1.0  0.13700  0.75000  0.14600  1.0000
  S   S3        1.0  0.36300  0.75000  0.14600  1.0000
  S   S4        1.0  0.50700  0.75000  0.35500  1.0000
  S   S5        1.0  0.99300  0.75000  0.35500  1.0000
  S   S6        1.0  0.75000  0.75000  0.36700  1.0000
  S   S7        1.0  0.25000  0.25000  0.63300  1.0000
  S   S8        1.0  0.00689  0.25000  0.64500  1.0000
  S   S9        1.0  0.49300  0.25000  0.64500  1.0000
  S   S10       1.0  0.63700  0.25000  0.85400  1.0000
  S   S11       1.0  0.86300  0.25000  0.85400  1.0000
  S   S12       1.0  0.25000  0.25000  0.96900  1.0000
  V   V1        1.0  0.75000  0.25000  0.18900  1.0000
  V   V2        1.0  0.06200  0.25000  0.25100  1.0000
  V   V3        1.0  0.43800  0.25000  0.25100  1.0000
  V   V4        1.0  0.56200  0.75000  0.74900  1.0000
  V   V5        1.0  0.93800  0.75000  0.74900  1.0000
  V   V6        1.0  0.25000  0.75000  0.81100  1.0000
