data_image0
_chemical_formula_structural       Ge3Ni2Sb2
_chemical_formula_sum              "Ge3 Ni2 Sb2"
_cell_length_a       8.70208
_cell_length_b       8.70208
_cell_length_c       8.70208
_cell_angle_alpha    28.3822
_cell_angle_beta     28.3822
_cell_angle_gamma    28.3822

_space_group_name_H-M_alt    "P 1"
_space_group_IT_number       1

loop_
  _space_group_symop_operation_xyz
  'x, y, z'

loop_
  _atom_site_type_symbol
  _atom_site_label
  _atom_site_symmetry_multiplicity
  _atom_site_fract_x
  _atom_site_fract_y
  _atom_site_fract_z
  _atom_site_occupancy
  Ge  Ge1       1.0  0.33200  0.33200  0.33200  1.0000
  Ge  Ge2       1.0  0.60400  0.60400  0.60400  1.0000
  Ge  Ge3       1.0  0.88000  0.88000  0.88000  1.0000
  Ni  Ni1       1.0  0.24000  0.24000  0.24000  1.0000
  Ni  Ni2       1.0  0.78000  0.78000  0.78000  1.0000
  Sb  Sb1       1.0  0.06080  0.06080  0.06080  1.0000
  Sb  Sb2       1.0  0.47800  0.47800  0.47800  1.0000
