data_image0
_chemical_formula_structural       Ge3Nb2Ni2
_chemical_formula_sum              "Ge3 Nb2 Ni2"
_cell_length_a       8.63486
_cell_length_b       8.63486
_cell_length_c       8.63486
_cell_angle_alpha    26.3717
_cell_angle_beta     26.3717
_cell_angle_gamma    26.3717

_space_group_name_H-M_alt    "P 1"
_space_group_IT_number       1

loop_
  _space_group_symop_operation_xyz
  'x, y, z'

loop_
  _atom_site_type_symbol
  _atom_site_label
  _atom_site_symmetry_multiplicity
  _atom_site_fract_x
  _atom_site_fract_y
  _atom_site_fract_z
  _atom_site_occupancy
  Ge  Ge1       1.0  0.37600  0.37600  0.37600  1.0000
  Ge  Ge2       1.0  0.63600  0.63600  0.63600  1.0000
  Ge  Ge3       1.0  0.85700  0.85700  0.85700  1.0000
  Nb  Nb1       1.0  0.24700  0.24700  0.24700  1.0000
  Nb  Nb2       1.0  0.75600  0.75600  0.75600  1.0000
  Ni  Ni1       1.0  0.00297  0.00297  0.00297  1.0000
  Ni  Ni2       1.0  0.50000  0.50000  0.50000  1.0000
