data_image0
_chemical_formula_structural       F16H4K8O10Ti4
_chemical_formula_sum              "F16 H4 K8 O10 Ti4"
_cell_length_a       6.26088
_cell_length_b       8.84701
_cell_length_c       11.3888
_cell_angle_alpha    96.3294
_cell_angle_beta     105.954
_cell_angle_gamma    110.722

_space_group_name_H-M_alt    "P 1"
_space_group_IT_number       1

loop_
  _space_group_symop_operation_xyz
  'x, y, z'

loop_
  _atom_site_type_symbol
  _atom_site_label
  _atom_site_symmetry_multiplicity
  _atom_site_fract_x
  _atom_site_fract_y
  _atom_site_fract_z
  _atom_site_occupancy
  F   F1        1.0  0.35300  0.55400  0.01550  1.0000
  F   F2        1.0  0.00668  0.71300  0.01650  1.0000
  F   F3        1.0  0.42200  0.32000  0.14500  1.0000
  F   F4        1.0  0.80500  0.67300  0.20000  1.0000
  F   F5        1.0  0.43100  0.82700  0.30000  1.0000
  F   F6        1.0  0.45700  0.18000  0.35500  1.0000
  F   F7        1.0  0.77700  0.78700  0.48300  1.0000
  F   F8        1.0  0.28400  0.94600  0.48400  1.0000
  F   F9        1.0  0.71600  0.05370  0.51600  1.0000
  F   F10       1.0  0.22300  0.21300  0.51700  1.0000
  F   F11       1.0  0.54300  0.82000  0.64500  1.0000
  F   F12       1.0  0.56900  0.17300  0.70000  1.0000
  F   F13       1.0  0.19500  0.32700  0.80000  1.0000
  F   F14       1.0  0.57800  0.68000  0.85500  1.0000
  F   F15       1.0  0.99300  0.28700  0.98300  1.0000
  F   F16       1.0  0.64700  0.44600  0.98400  1.0000
  H   H1        1.0  0.72500  0.24400  0.17800  1.0000
  H   H2        1.0  0.80400  0.25600  0.32200  1.0000
  H   H3        1.0  0.19600  0.74400  0.67800  1.0000
  H   H4        1.0  0.27500  0.75600  0.82200  1.0000
  K   K1        1.0  0.31600  0.99500  0.13900  1.0000
  K   K2        1.0  0.10900  0.52400  0.17400  1.0000
  K   K3        1.0  0.91100  0.97600  0.32600  1.0000
  K   K4        1.0  0.68200  0.50500  0.36100  1.0000
  K   K5        1.0  0.31800  0.49500  0.63900  1.0000
  K   K6        1.0  0.08870  0.02380  0.67400  1.0000
  K   K7        1.0  0.89100  0.47600  0.82600  1.0000
  K   K8        1.0  0.68400  0.00534  0.86100  1.0000
  O   O1        1.0  0.59700  0.87000  0.07050  1.0000
  O   O2        1.0  0.85000  0.93400  0.07750  1.0000
  O   O3        1.0  0.85900  0.25000  0.25000  1.0000
  O   O4        1.0  0.33900  0.56600  0.42200  1.0000
  O   O5        1.0  0.15600  0.63000  0.43000  1.0000
  O   O6        1.0  0.84400  0.37000  0.57000  1.0000
  O   O7        1.0  0.66100  0.43400  0.57800  1.0000
  O   O8        1.0  0.14100  0.75000  0.75000  1.0000
  O   O9        1.0  0.15000  0.06620  0.92200  1.0000
  O   O10       1.0  0.40300  0.13000  0.93000  1.0000
  Ti  Ti1       1.0  0.69800  0.69600  0.03130  1.0000
  Ti  Ti2       1.0  0.47000  0.80400  0.46900  1.0000
  Ti  Ti3       1.0  0.53000  0.19600  0.53100  1.0000
  Ti  Ti4       1.0  0.30200  0.30400  0.96900  1.0000
