data_image0
_chemical_formula_structural       Pd2Sb2Zr3
_chemical_formula_sum              "Pd2 Sb2 Zr3"
_cell_length_a       8.21193
_cell_length_b       8.21193
_cell_length_c       8.21193
_cell_angle_alpha    33.8757
_cell_angle_beta     33.8757
_cell_angle_gamma    33.8757

_space_group_name_H-M_alt    "P 1"
_space_group_IT_number       1

loop_
  _space_group_symop_operation_xyz
  'x, y, z'

loop_
  _atom_site_type_symbol
  _atom_site_label
  _atom_site_symmetry_multiplicity
  _atom_site_fract_x
  _atom_site_fract_y
  _atom_site_fract_z
  _atom_site_occupancy
  Pd  Pd1       1.0  0.01710  0.01710  0.01710  1.0000
  Pd  Pd2       1.0  0.49100  0.49100  0.49100  1.0000
  Sb  Sb1       1.0  0.24400  0.24400  0.24400  1.0000
  Sb  Sb2       1.0  0.75200  0.75200  0.75200  1.0000
  Zr  Zr1       1.0  0.37200  0.37200  0.37200  1.0000
  Zr  Zr2       1.0  0.62400  0.62400  0.62400  1.0000
  Zr  Zr3       1.0  0.87500  0.87500  0.87500  1.0000
