data_image0
_chemical_formula_structural       Nb2Pd2Zr3
_chemical_formula_sum              "Nb2 Pd2 Zr3"
_cell_length_a       7.9377
_cell_length_b       7.9377
_cell_length_c       7.9377
_cell_angle_alpha    34.3978
_cell_angle_beta     34.3978
_cell_angle_gamma    34.3978

_space_group_name_H-M_alt    "P 1"
_space_group_IT_number       1

loop_
  _space_group_symop_operation_xyz
  'x, y, z'

loop_
  _atom_site_type_symbol
  _atom_site_label
  _atom_site_symmetry_multiplicity
  _atom_site_fract_x
  _atom_site_fract_y
  _atom_site_fract_z
  _atom_site_occupancy
  Nb  Nb1       1.0  0.23900  0.23900  0.23900  1.0000
  Nb  Nb2       1.0  0.75700  0.75700  0.75700  1.0000
  Pd  Pd1       1.0  0.00785  0.00785  0.00785  1.0000
  Pd  Pd2       1.0  0.49300  0.49300  0.49300  1.0000
  Zr  Zr1       1.0  0.37300  0.37300  0.37300  1.0000
  Zr  Zr2       1.0  0.62600  0.62600  0.62600  1.0000
  Zr  Zr3       1.0  0.87900  0.87900  0.87900  1.0000
