data_image0
_chemical_formula_structural       Pd2Sb2Sn3
_chemical_formula_sum              "Pd2 Sb2 Sn3"
_cell_length_a       8.76601
_cell_length_b       8.76601
_cell_length_c       8.76601
_cell_angle_alpha    32.6479
_cell_angle_beta     32.6479
_cell_angle_gamma    32.6479

_space_group_name_H-M_alt    "P 1"
_space_group_IT_number       1

loop_
  _space_group_symop_operation_xyz
  'x, y, z'

loop_
  _atom_site_type_symbol
  _atom_site_label
  _atom_site_symmetry_multiplicity
  _atom_site_fract_x
  _atom_site_fract_y
  _atom_site_fract_z
  _atom_site_occupancy
  Pd  Pd1       1.0  0.50200  0.50200  0.50200  1.0000
  Pd  Pd2       1.0  0.99900  0.99900  0.99900  1.0000
  Sb  Sb1       1.0  0.23400  0.23400  0.23400  1.0000
  Sb  Sb2       1.0  0.75700  0.75700  0.75700  1.0000
  Sn  Sn1       1.0  0.37800  0.37800  0.37800  1.0000
  Sn  Sn2       1.0  0.63200  0.63200  0.63200  1.0000
  Sn  Sn3       1.0  0.87300  0.87300  0.87300  1.0000
