data_image0
_chemical_formula_structural       Bi2Ni2Si3
_chemical_formula_sum              "Bi2 Ni2 Si3"
_cell_length_a       9.98449
_cell_length_b       9.98449
_cell_length_c       9.98449
_cell_angle_alpha    22.4295
_cell_angle_beta     22.4295
_cell_angle_gamma    22.4295

_space_group_name_H-M_alt    "P 1"
_space_group_IT_number       1

loop_
  _space_group_symop_operation_xyz
  'x, y, z'

loop_
  _atom_site_type_symbol
  _atom_site_label
  _atom_site_symmetry_multiplicity
  _atom_site_fract_x
  _atom_site_fract_y
  _atom_site_fract_z
  _atom_site_occupancy
  Bi  Bi1       1.0  0.07830  0.07830  0.07830  1.0000
  Bi  Bi2       1.0  0.49700  0.49700  0.49700  1.0000
  Ni  Ni1       1.0  0.25600  0.25600  0.25600  1.0000
  Ni  Ni2       1.0  0.69300  0.69300  0.69300  1.0000
  Si  Si1       1.0  0.33600  0.33600  0.33600  1.0000
  Si  Si2       1.0  0.61700  0.61700  0.61700  1.0000
  Si  Si3       1.0  0.89800  0.89800  0.89800  1.0000
