data_image0
_chemical_formula_structural       Bi2Hf3Ni2
_chemical_formula_sum              "Bi2 Hf3 Ni2"
_cell_length_a       8.53422
_cell_length_b       8.53422
_cell_length_c       8.53422
_cell_angle_alpha    32.2262
_cell_angle_beta     32.2262
_cell_angle_gamma    32.2262

_space_group_name_H-M_alt    "P 1"
_space_group_IT_number       1

loop_
  _space_group_symop_operation_xyz
  'x, y, z'

loop_
  _atom_site_type_symbol
  _atom_site_label
  _atom_site_symmetry_multiplicity
  _atom_site_fract_x
  _atom_site_fract_y
  _atom_site_fract_z
  _atom_site_occupancy
  Bi  Bi1       1.0  0.00785  0.00785  0.00785  1.0000
  Bi  Bi2       1.0  0.49600  0.49600  0.49600  1.0000
  Hf  Hf1       1.0  0.37900  0.37900  0.37900  1.0000
  Hf  Hf2       1.0  0.61800  0.61800  0.61800  1.0000
  Hf  Hf3       1.0  0.88000  0.88000  0.88000  1.0000
  Ni  Ni1       1.0  0.26700  0.26700  0.26700  1.0000
  Ni  Ni2       1.0  0.72600  0.72600  0.72600  1.0000
