data_image0
_chemical_formula_structural       Ge3Pt2Ta2
_chemical_formula_sum              "Ge3 Pt2 Ta2"
_cell_length_a       8.3273
_cell_length_b       8.3273
_cell_length_c       8.3273
_cell_angle_alpha    29.4511
_cell_angle_beta     29.4511
_cell_angle_gamma    29.4511

_space_group_name_H-M_alt    "P 1"
_space_group_IT_number       1

loop_
  _space_group_symop_operation_xyz
  'x, y, z'

loop_
  _atom_site_type_symbol
  _atom_site_label
  _atom_site_symmetry_multiplicity
  _atom_site_fract_x
  _atom_site_fract_y
  _atom_site_fract_z
  _atom_site_occupancy
  Ge  Ge1       1.0  0.39100  0.39100  0.39100  1.0000
  Ge  Ge2       1.0  0.63000  0.63000  0.63000  1.0000
  Ge  Ge3       1.0  0.85800  0.85800  0.85800  1.0000
  Pt  Pt1       1.0  0.50300  0.50300  0.50300  1.0000
  Pt  Pt2       1.0  0.99700  0.99700  0.99700  1.0000
  Ta  Ta1       1.0  0.24500  0.24500  0.24500  1.0000
  Ta  Ta2       1.0  0.75100  0.75100  0.75100  1.0000
