data_image0
_chemical_formula_structural       Ge3Nb2Pd2
_chemical_formula_sum              "Ge3 Nb2 Pd2"
_cell_length_a       8.32793
_cell_length_b       8.32793
_cell_length_c       8.32793
_cell_angle_alpha    29.3641
_cell_angle_beta     29.3641
_cell_angle_gamma    29.3641

_space_group_name_H-M_alt    "P 1"
_space_group_IT_number       1

loop_
  _space_group_symop_operation_xyz
  'x, y, z'

loop_
  _atom_site_type_symbol
  _atom_site_label
  _atom_site_symmetry_multiplicity
  _atom_site_fract_x
  _atom_site_fract_y
  _atom_site_fract_z
  _atom_site_occupancy
  Ge  Ge1       1.0  0.38800  0.38800  0.38800  1.0000
  Ge  Ge2       1.0  0.63000  0.63000  0.63000  1.0000
  Ge  Ge3       1.0  0.85900  0.85900  0.85900  1.0000
  Nb  Nb1       1.0  0.24700  0.24700  0.24700  1.0000
  Nb  Nb2       1.0  0.75200  0.75200  0.75200  1.0000
  Pd  Pd1       1.0  0.50000  0.50000  0.50000  1.0000
  Pd  Pd2       1.0  0.99900  0.99900  0.99900  1.0000
