data_image0
_chemical_formula_structural       Bi2Ge3Pt2
_chemical_formula_sum              "Bi2 Ge3 Pt2"
_cell_length_a       8.95116
_cell_length_b       8.95116
_cell_length_c       8.95116
_cell_angle_alpha    29.7125
_cell_angle_beta     29.7125
_cell_angle_gamma    29.7125

_space_group_name_H-M_alt    "P 1"
_space_group_IT_number       1

loop_
  _space_group_symop_operation_xyz
  'x, y, z'

loop_
  _atom_site_type_symbol
  _atom_site_label
  _atom_site_symmetry_multiplicity
  _atom_site_fract_x
  _atom_site_fract_y
  _atom_site_fract_z
  _atom_site_occupancy
  Bi  Bi1       1.0  0.19300  0.19300  0.19300  1.0000
  Bi  Bi2       1.0  0.77000  0.77000  0.77000  1.0000
  Ge  Ge1       1.0  0.36900  0.36900  0.36900  1.0000
  Ge  Ge2       1.0  0.64900  0.64900  0.64900  1.0000
  Ge  Ge3       1.0  0.91300  0.91300  0.91300  1.0000
  Pt  Pt1       1.0  0.00704  0.00704  0.00704  1.0000
  Pt  Pt2       1.0  0.47500  0.47500  0.47500  1.0000
