data_image0
_chemical_formula_structural       Ge3Pd2Sb2
_chemical_formula_sum              "Ge3 Pd2 Sb2"
_cell_length_a       8.71961
_cell_length_b       8.71961
_cell_length_c       8.71961
_cell_angle_alpha    29.9303
_cell_angle_beta     29.9303
_cell_angle_gamma    29.9303

_space_group_name_H-M_alt    "P 1"
_space_group_IT_number       1

loop_
  _space_group_symop_operation_xyz
  'x, y, z'

loop_
  _atom_site_type_symbol
  _atom_site_label
  _atom_site_symmetry_multiplicity
  _atom_site_fract_x
  _atom_site_fract_y
  _atom_site_fract_z
  _atom_site_occupancy
  Ge  Ge1       1.0  0.37000  0.37000  0.37000  1.0000
  Ge  Ge2       1.0  0.64700  0.64700  0.64700  1.0000
  Ge  Ge3       1.0  0.91000  0.91000  0.91000  1.0000
  Pd  Pd1       1.0  0.00873  0.00873  0.00873  1.0000
  Pd  Pd2       1.0  0.47700  0.47700  0.47700  1.0000
  Sb  Sb1       1.0  0.19200  0.19200  0.19200  1.0000
  Sb  Sb2       1.0  0.77000  0.77000  0.77000  1.0000
