data_image0
_chemical_formula_structural       Ge3Pd2Ta2
_chemical_formula_sum              "Ge3 Pd2 Ta2"
_cell_length_a       8.32333
_cell_length_b       8.32333
_cell_length_c       8.32333
_cell_angle_alpha    29.4462
_cell_angle_beta     29.4462
_cell_angle_gamma    29.4462

_space_group_name_H-M_alt    "P 1"
_space_group_IT_number       1

loop_
  _space_group_symop_operation_xyz
  'x, y, z'

loop_
  _atom_site_type_symbol
  _atom_site_label
  _atom_site_symmetry_multiplicity
  _atom_site_fract_x
  _atom_site_fract_y
  _atom_site_fract_z
  _atom_site_occupancy
  Ge  Ge1       1.0  0.38900  0.38900  0.38900  1.0000
  Ge  Ge2       1.0  0.62900  0.62900  0.62900  1.0000
  Ge  Ge3       1.0  0.85900  0.85900  0.85900  1.0000
  Pd  Pd1       1.0  0.50100  0.50100  0.50100  1.0000
  Pd  Pd2       1.0  0.99800  0.99800  0.99800  1.0000
  Ta  Ta1       1.0  0.24700  0.24700  0.24700  1.0000
  Ta  Ta2       1.0  0.75100  0.75100  0.75100  1.0000
