data_image0
_chemical_formula_structural       Nb2Pb3Pt2
_chemical_formula_sum              "Nb2 Pb3 Pt2"
_cell_length_a       8.55514
_cell_length_b       8.55514
_cell_length_c       8.55514
_cell_angle_alpha    31.7664
_cell_angle_beta     31.7664
_cell_angle_gamma    31.7664

_space_group_name_H-M_alt    "P 1"
_space_group_IT_number       1

loop_
  _space_group_symop_operation_xyz
  'x, y, z'

loop_
  _atom_site_type_symbol
  _atom_site_label
  _atom_site_symmetry_multiplicity
  _atom_site_fract_x
  _atom_site_fract_y
  _atom_site_fract_z
  _atom_site_occupancy
  Nb  Nb1       1.0  0.24700  0.24700  0.24700  1.0000
  Nb  Nb2       1.0  0.74900  0.74900  0.74900  1.0000
  Pb  Pb1       1.0  0.38500  0.38500  0.38500  1.0000
  Pb  Pb2       1.0  0.62500  0.62500  0.62500  1.0000
  Pb  Pb3       1.0  0.86300  0.86300  0.86300  1.0000
  Pt  Pt1       1.0  0.00445  0.00445  0.00445  1.0000
  Pt  Pt2       1.0  0.50200  0.50200  0.50200  1.0000
