data_image0
_chemical_formula_structural       C4Cd2Cl8H24N4
_chemical_formula_sum              "C4 Cd2 Cl8 H24 N4"
_cell_length_a       7.45945
_cell_length_b       7.39146
_cell_length_c       10.3084
_cell_angle_alpha    90
_cell_angle_beta     68.7883
_cell_angle_gamma    90

_space_group_name_H-M_alt    "P 1"
_space_group_IT_number       1

loop_
  _space_group_symop_operation_xyz
  'x, y, z'

loop_
  _atom_site_type_symbol
  _atom_site_label
  _atom_site_symmetry_multiplicity
  _atom_site_fract_x
  _atom_site_fract_y
  _atom_site_fract_z
  _atom_site_occupancy
  C   C1        1.0  0.81300  0.53800  0.37400  1.0000
  C   C2        1.0  0.31300  0.96200  0.37400  1.0000
  C   C3        1.0  0.68700  0.03760  0.62600  1.0000
  C   C4        1.0  0.18700  0.46200  0.62600  1.0000
  Cd  Cd1       1.0  0.00000  0.00000  0.00000  1.0000
  Cd  Cd2       1.0  0.50000  0.50000  0.00000  1.0000
  Cl  Cl1       1.0  0.22800  0.75000  0.04350  1.0000
  Cl  Cl2       1.0  0.72800  0.75000  0.04350  1.0000
  Cl  Cl3       1.0  0.86800  0.05700  0.26400  1.0000
  Cl  Cl4       1.0  0.36800  0.44300  0.26400  1.0000
  Cl  Cl5       1.0  0.63200  0.55700  0.73600  1.0000
  Cl  Cl6       1.0  0.13200  0.94300  0.73600  1.0000
  Cl  Cl7       1.0  0.27200  0.25000  0.95700  1.0000
  Cl  Cl8       1.0  0.77200  0.25000  0.95700  1.0000
  H   H1        1.0  0.02390  0.53000  0.17500  1.0000
  H   H2        1.0  0.80200  0.53000  0.17500  1.0000
  H   H3        1.0  0.30200  0.97000  0.17500  1.0000
  H   H4        1.0  0.52400  0.97000  0.17500  1.0000
  H   H5        1.0  0.38900  0.16300  0.22100  1.0000
  H   H6        1.0  0.88900  0.33700  0.22100  1.0000
  H   H7        1.0  0.81100  0.68600  0.37800  1.0000
  H   H8        1.0  0.31100  0.81400  0.37800  1.0000
  H   H9        1.0  0.16800  0.01640  0.42400  1.0000
  H   H10       1.0  0.40800  0.01640  0.42400  1.0000
  H   H11       1.0  0.66800  0.48400  0.42400  1.0000
  H   H12       1.0  0.90800  0.48400  0.42400  1.0000
  H   H13       1.0  0.09200  0.51600  0.57600  1.0000
  H   H14       1.0  0.33200  0.51600  0.57600  1.0000
  H   H15       1.0  0.59200  0.98400  0.57600  1.0000
  H   H16       1.0  0.83200  0.98400  0.57600  1.0000
  H   H17       1.0  0.68900  0.18600  0.62200  1.0000
  H   H18       1.0  0.18900  0.31400  0.62200  1.0000
  H   H19       1.0  0.11100  0.66300  0.77900  1.0000
  H   H20       1.0  0.61100  0.83700  0.77900  1.0000
  H   H21       1.0  0.47600  0.02970  0.82500  1.0000
  H   H22       1.0  0.69800  0.02970  0.82500  1.0000
  H   H23       1.0  0.19800  0.47000  0.82500  1.0000
  H   H24       1.0  0.97600  0.47000  0.82500  1.0000
  N   N1        1.0  0.38700  0.02130  0.22700  1.0000
  N   N2        1.0  0.88700  0.47900  0.22700  1.0000
  N   N3        1.0  0.11300  0.52100  0.77300  1.0000
  N   N4        1.0  0.61300  0.97900  0.77300  1.0000
