data_image0
_chemical_formula_structural       Ge3Pd2V2
_chemical_formula_sum              "Ge3 Pd2 V2"
_cell_length_a       7.69602
_cell_length_b       7.69602
_cell_length_c       7.69602
_cell_angle_alpha    32.0816
_cell_angle_beta     32.0816
_cell_angle_gamma    32.0816

_space_group_name_H-M_alt    "P 1"
_space_group_IT_number       1

loop_
  _space_group_symop_operation_xyz
  'x, y, z'

loop_
  _atom_site_type_symbol
  _atom_site_label
  _atom_site_symmetry_multiplicity
  _atom_site_fract_x
  _atom_site_fract_y
  _atom_site_fract_z
  _atom_site_occupancy
  Ge  Ge1       1.0  0.38500  0.38500  0.38500  1.0000
  Ge  Ge2       1.0  0.62400  0.62400  0.62400  1.0000
  Ge  Ge3       1.0  0.86400  0.86400  0.86400  1.0000
  Pd  Pd1       1.0  0.00290  0.00290  0.00290  1.0000
  Pd  Pd2       1.0  0.50000  0.50000  0.50000  1.0000
  V   V1        1.0  0.25100  0.25100  0.25100  1.0000
  V   V2        1.0  0.74800  0.74800  0.74800  1.0000
