data_image0
_chemical_formula_structural       Hf3Pd2Ta2
_chemical_formula_sum              "Hf3 Pd2 Ta2"
_cell_length_a       7.11869
_cell_length_b       7.11869
_cell_length_c       7.11869
_cell_angle_alpha    39.2383
_cell_angle_beta     39.2383
_cell_angle_gamma    39.2383

_space_group_name_H-M_alt    "P 1"
_space_group_IT_number       1

loop_
  _space_group_symop_operation_xyz
  'x, y, z'

loop_
  _atom_site_type_symbol
  _atom_site_label
  _atom_site_symmetry_multiplicity
  _atom_site_fract_x
  _atom_site_fract_y
  _atom_site_fract_z
  _atom_site_occupancy
  Hf  Hf1       1.0  0.34600  0.34600  0.34600  1.0000
  Hf  Hf2       1.0  0.61900  0.61900  0.61900  1.0000
  Hf  Hf3       1.0  0.91100  0.91100  0.91100  1.0000
  Pd  Pd1       1.0  0.04970  0.04970  0.04970  1.0000
  Pd  Pd2       1.0  0.48500  0.48500  0.48500  1.0000
  Ta  Ta1       1.0  0.19200  0.19200  0.19200  1.0000
  Ta  Ta2       1.0  0.77300  0.77300  0.77300  1.0000
