data_image0
_chemical_formula_structural       Bi2Pb3Pd2
_chemical_formula_sum              "Bi2 Pb3 Pd2"
_cell_length_a       8.89415
_cell_length_b       8.89415
_cell_length_c       8.89415
_cell_angle_alpha    33.6687
_cell_angle_beta     33.6687
_cell_angle_gamma    33.6687

_space_group_name_H-M_alt    "P 1"
_space_group_IT_number       1

loop_
  _space_group_symop_operation_xyz
  'x, y, z'

loop_
  _atom_site_type_symbol
  _atom_site_label
  _atom_site_symmetry_multiplicity
  _atom_site_fract_x
  _atom_site_fract_y
  _atom_site_fract_z
  _atom_site_occupancy
  Bi  Bi1       1.0  0.23800  0.23800  0.23800  1.0000
  Bi  Bi2       1.0  0.75500  0.75500  0.75500  1.0000
  Pb  Pb1       1.0  0.37700  0.37700  0.37700  1.0000
  Pb  Pb2       1.0  0.62900  0.62900  0.62900  1.0000
  Pb  Pb3       1.0  0.87400  0.87400  0.87400  1.0000
  Pd  Pd1       1.0  0.00336  0.00336  0.00336  1.0000
  Pd  Pd2       1.0  0.49900  0.49900  0.49900  1.0000
