data_image0
_chemical_formula_structural       Ge3Nb2Pt2
_chemical_formula_sum              "Ge3 Nb2 Pt2"
_cell_length_a       8.38171
_cell_length_b       8.38171
_cell_length_c       8.38171
_cell_angle_alpha    29.1267
_cell_angle_beta     29.1267
_cell_angle_gamma    29.1267

_space_group_name_H-M_alt    "P 1"
_space_group_IT_number       1

loop_
  _space_group_symop_operation_xyz
  'x, y, z'

loop_
  _atom_site_type_symbol
  _atom_site_label
  _atom_site_symmetry_multiplicity
  _atom_site_fract_x
  _atom_site_fract_y
  _atom_site_fract_z
  _atom_site_occupancy
  Ge  Ge1       1.0  0.38900  0.38900  0.38900  1.0000
  Ge  Ge2       1.0  0.63000  0.63000  0.63000  1.0000
  Ge  Ge3       1.0  0.85800  0.85800  0.85800  1.0000
  Nb  Nb1       1.0  0.24600  0.24600  0.24600  1.0000
  Nb  Nb2       1.0  0.75200  0.75200  0.75200  1.0000
  Pt  Pt1       1.0  0.50100  0.50100  0.50100  1.0000
  Pt  Pt2       1.0  0.99900  0.99900  0.99900  1.0000
