data_image0
_chemical_formula_structural       Bi2Ge3Pd2
_chemical_formula_sum              "Bi2 Ge3 Pd2"
_cell_length_a       8.44128
_cell_length_b       8.44128
_cell_length_c       8.44128
_cell_angle_alpha    32.6595
_cell_angle_beta     32.6595
_cell_angle_gamma    32.6595

_space_group_name_H-M_alt    "P 1"
_space_group_IT_number       1

loop_
  _space_group_symop_operation_xyz
  'x, y, z'

loop_
  _atom_site_type_symbol
  _atom_site_label
  _atom_site_symmetry_multiplicity
  _atom_site_fract_x
  _atom_site_fract_y
  _atom_site_fract_z
  _atom_site_occupancy
  Bi  Bi1       1.0  0.23300  0.23300  0.23300  1.0000
  Bi  Bi2       1.0  0.76300  0.76300  0.76300  1.0000
  Ge  Ge1       1.0  0.36800  0.36800  0.36800  1.0000
  Ge  Ge2       1.0  0.64100  0.64100  0.64100  1.0000
  Ge  Ge3       1.0  0.88000  0.88000  0.88000  1.0000
  Pd  Pd1       1.0  0.49900  0.49900  0.49900  1.0000
  Pd  Pd2       1.0  0.99000  0.99000  0.99000  1.0000
