data_image0
_chemical_formula_structural       Ni2Pb3V2
_chemical_formula_sum              "Ni2 Pb3 V2"
_cell_length_a       8.16506
_cell_length_b       8.16506
_cell_length_c       8.16506
_cell_angle_alpha    32.5671
_cell_angle_beta     32.5671
_cell_angle_gamma    32.5671

_space_group_name_H-M_alt    "P 1"
_space_group_IT_number       1

loop_
  _space_group_symop_operation_xyz
  'x, y, z'

loop_
  _atom_site_type_symbol
  _atom_site_label
  _atom_site_symmetry_multiplicity
  _atom_site_fract_x
  _atom_site_fract_y
  _atom_site_fract_z
  _atom_site_occupancy
  Ni  Ni1       1.0  0.00214  0.00214  0.00214  1.0000
  Ni  Ni2       1.0  0.50600  0.50600  0.50600  1.0000
  Pb  Pb1       1.0  0.38700  0.38700  0.38700  1.0000
  Pb  Pb2       1.0  0.62500  0.62500  0.62500  1.0000
  Pb  Pb3       1.0  0.86300  0.86300  0.86300  1.0000
  V   V1        1.0  0.24600  0.24600  0.24600  1.0000
  V   V2        1.0  0.74600  0.74600  0.74600  1.0000
