data_image0
_chemical_formula_structural       As2Pd2Sn3
_chemical_formula_sum              "As2 Pd2 Sn3"
_cell_length_a       8.63004
_cell_length_b       8.63004
_cell_length_c       8.63004
_cell_angle_alpha    31.5787
_cell_angle_beta     31.5787
_cell_angle_gamma    31.5787

_space_group_name_H-M_alt    "P 1"
_space_group_IT_number       1

loop_
  _space_group_symop_operation_xyz
  'x, y, z'

loop_
  _atom_site_type_symbol
  _atom_site_label
  _atom_site_symmetry_multiplicity
  _atom_site_fract_x
  _atom_site_fract_y
  _atom_site_fract_z
  _atom_site_occupancy
  As  As1       1.0  0.23600  0.23600  0.23600  1.0000
  As  As2       1.0  0.75500  0.75500  0.75500  1.0000
  Pd  Pd1       1.0  0.00648  0.00648  0.00648  1.0000
  Pd  Pd2       1.0  0.50000  0.50000  0.50000  1.0000
  Sn  Sn1       1.0  0.38300  0.38300  0.38300  1.0000
  Sn  Sn2       1.0  0.62900  0.62900  0.62900  1.0000
  Sn  Sn3       1.0  0.86600  0.86600  0.86600  1.0000
