data_image0
_chemical_formula_structural       As6Co6H4Na2O24
_chemical_formula_sum              "As6 Co6 H4 Na2 O24"
_cell_length_a       6.77626
_cell_length_b       8.59645
_cell_length_c       8.59645
_cell_angle_alpha    91.6068
_cell_angle_beta     105.68
_cell_angle_gamma    105.68

_space_group_name_H-M_alt    "P 1"
_space_group_IT_number       1

loop_
  _space_group_symop_operation_xyz
  'x, y, z'

loop_
  _atom_site_type_symbol
  _atom_site_label
  _atom_site_symmetry_multiplicity
  _atom_site_fract_x
  _atom_site_fract_y
  _atom_site_fract_z
  _atom_site_occupancy
  As  As1       1.0  0.11100  0.33500  0.10500  1.0000
  As  As2       1.0  0.75000  0.68800  0.31200  1.0000
  As  As3       1.0  0.61100  0.10500  0.33500  1.0000
  As  As4       1.0  0.38900  0.89500  0.66500  1.0000
  As  As5       1.0  0.25000  0.31200  0.68800  1.0000
  As  As6       1.0  0.88900  0.66500  0.89500  1.0000
  Co  Co1       1.0  0.61400  0.36700  0.04500  1.0000
  Co  Co2       1.0  0.25000  0.71500  0.28500  1.0000
  Co  Co3       1.0  0.11400  0.04500  0.36700  1.0000
  Co  Co4       1.0  0.88600  0.95500  0.63300  1.0000
  Co  Co5       1.0  0.75000  0.28500  0.71500  1.0000
  Co  Co6       1.0  0.38600  0.63300  0.95500  1.0000
  H   H1        1.0  0.70000  0.39200  0.38500  1.0000
  H   H2        1.0  0.20000  0.38500  0.39200  1.0000
  H   H3        1.0  0.80000  0.61500  0.60800  1.0000
  H   H4        1.0  0.30000  0.60800  0.61500  1.0000
  Na  Na1       1.0  0.75000  0.99600  0.00408  1.0000
  Na  Na2       1.0  0.25000  0.00408  0.99600  1.0000
  O   O1        1.0  0.31600  0.39900  0.02010  1.0000
  O   O2        1.0  0.13000  0.66800  0.02690  1.0000
  O   O3        1.0  0.59500  0.14900  0.14000  1.0000
  O   O4        1.0  0.09460  0.14000  0.14900  1.0000
  O   O5        1.0  0.52300  0.73100  0.20100  1.0000
  O   O6        1.0  0.97700  0.79900  0.26900  1.0000
  O   O7        1.0  0.73200  0.48400  0.28200  1.0000
  O   O8        1.0  0.16500  0.46300  0.28200  1.0000
  O   O9        1.0  0.37000  0.97300  0.33200  1.0000
  O   O10       1.0  0.81600  0.02010  0.39900  1.0000
  O   O11       1.0  0.66500  0.28200  0.46300  1.0000
  O   O12       1.0  0.23200  0.28200  0.48400  1.0000
  O   O13       1.0  0.76800  0.71800  0.51600  1.0000
  O   O14       1.0  0.33500  0.71800  0.53700  1.0000
  O   O15       1.0  0.18400  0.98000  0.60100  1.0000
  O   O16       1.0  0.63000  0.02690  0.66800  1.0000
  O   O17       1.0  0.83500  0.53700  0.71800  1.0000
  O   O18       1.0  0.26800  0.51600  0.71800  1.0000
  O   O19       1.0  0.02250  0.20100  0.73100  1.0000
  O   O20       1.0  0.47700  0.26900  0.79900  1.0000
  O   O21       1.0  0.90500  0.86000  0.85100  1.0000
  O   O22       1.0  0.40500  0.85100  0.86000  1.0000
  O   O23       1.0  0.87000  0.33200  0.97300  1.0000
  O   O24       1.0  0.68400  0.60100  0.98000  1.0000
