data_image0
_chemical_formula_structural       Bi2Pd2Sn3
_chemical_formula_sum              "Bi2 Pd2 Sn3"
_cell_length_a       9.88707
_cell_length_b       9.88707
_cell_length_c       9.88707
_cell_angle_alpha    28.4201
_cell_angle_beta     28.4201
_cell_angle_gamma    28.4201

_space_group_name_H-M_alt    "P 1"
_space_group_IT_number       1

loop_
  _space_group_symop_operation_xyz
  'x, y, z'

loop_
  _atom_site_type_symbol
  _atom_site_label
  _atom_site_symmetry_multiplicity
  _atom_site_fract_x
  _atom_site_fract_y
  _atom_site_fract_z
  _atom_site_occupancy
  Bi  Bi1       1.0  0.24600  0.24600  0.24600  1.0000
  Bi  Bi2       1.0  0.75300  0.75300  0.75300  1.0000
  Pd  Pd1       1.0  0.54000  0.54000  0.54000  1.0000
  Pd  Pd2       1.0  0.96900  0.96900  0.96900  1.0000
  Sn  Sn1       1.0  0.37100  0.37100  0.37100  1.0000
  Sn  Sn2       1.0  0.64000  0.64000  0.64000  1.0000
  Sn  Sn3       1.0  0.85700  0.85700  0.85700  1.0000
