data_image0
_chemical_formula_structural       Ge3Ni2Ta2
_chemical_formula_sum              "Ge3 Ni2 Ta2"
_cell_length_a       8.38948
_cell_length_b       8.38948
_cell_length_c       8.38948
_cell_angle_alpha    27.7747
_cell_angle_beta     27.7747
_cell_angle_gamma    27.7747

_space_group_name_H-M_alt    "P 1"
_space_group_IT_number       1

loop_
  _space_group_symop_operation_xyz
  'x, y, z'

loop_
  _atom_site_type_symbol
  _atom_site_label
  _atom_site_symmetry_multiplicity
  _atom_site_fract_x
  _atom_site_fract_y
  _atom_site_fract_z
  _atom_site_occupancy
  Ge  Ge1       1.0  0.38400  0.38400  0.38400  1.0000
  Ge  Ge2       1.0  0.63400  0.63400  0.63400  1.0000
  Ge  Ge3       1.0  0.85700  0.85700  0.85700  1.0000
  Ni  Ni1       1.0  0.50300  0.50300  0.50300  1.0000
  Ni  Ni2       1.0  0.99800  0.99800  0.99800  1.0000
  Ta  Ta1       1.0  0.24600  0.24600  0.24600  1.0000
  Ta  Ta2       1.0  0.75400  0.75400  0.75400  1.0000
