data_image0
_chemical_formula_structural       Hf3Ni2Sb2
_chemical_formula_sum              "Hf3 Ni2 Sb2"
_cell_length_a       8.24291
_cell_length_b       8.24291
_cell_length_c       8.24291
_cell_angle_alpha    32.6625
_cell_angle_beta     32.6625
_cell_angle_gamma    32.6625

_space_group_name_H-M_alt    "P 1"
_space_group_IT_number       1

loop_
  _space_group_symop_operation_xyz
  'x, y, z'

loop_
  _atom_site_type_symbol
  _atom_site_label
  _atom_site_symmetry_multiplicity
  _atom_site_fract_x
  _atom_site_fract_y
  _atom_site_fract_z
  _atom_site_occupancy
  Hf  Hf1       1.0  0.37600  0.37600  0.37600  1.0000
  Hf  Hf2       1.0  0.61600  0.61600  0.61600  1.0000
  Hf  Hf3       1.0  0.87100  0.87100  0.87100  1.0000
  Ni  Ni1       1.0  0.26400  0.26400  0.26400  1.0000
  Ni  Ni2       1.0  0.75300  0.75300  0.75300  1.0000
  Sb  Sb1       1.0  0.00197  0.00197  0.00197  1.0000
  Sb  Sb2       1.0  0.49300  0.49300  0.49300  1.0000
