data_image0
_chemical_formula_structural       As2Ni2Zr3
_chemical_formula_sum              "As2 Ni2 Zr3"
_cell_length_a       7.98633
_cell_length_b       7.98633
_cell_length_c       7.98633
_cell_angle_alpha    32.906
_cell_angle_beta     32.906
_cell_angle_gamma    32.906

_space_group_name_H-M_alt    "P 1"
_space_group_IT_number       1

loop_
  _space_group_symop_operation_xyz
  'x, y, z'

loop_
  _atom_site_type_symbol
  _atom_site_label
  _atom_site_symmetry_multiplicity
  _atom_site_fract_x
  _atom_site_fract_y
  _atom_site_fract_z
  _atom_site_occupancy
  As  As1       1.0  0.50400  0.50400  0.50400  1.0000
  As  As2       1.0  0.99800  0.99800  0.99800  1.0000
  Ni  Ni1       1.0  0.26800  0.26800  0.26800  1.0000
  Ni  Ni2       1.0  0.73600  0.73600  0.73600  1.0000
  Zr  Zr1       1.0  0.38700  0.38700  0.38700  1.0000
  Zr  Zr2       1.0  0.62100  0.62100  0.62100  1.0000
  Zr  Zr3       1.0  0.86100  0.86100  0.86100  1.0000
