data_image0
_chemical_formula_structural       As2Pt2Sn3
_chemical_formula_sum              "As2 Pt2 Sn3"
_cell_length_a       9.75483
_cell_length_b       9.75483
_cell_length_c       9.75483
_cell_angle_alpha    25.7495
_cell_angle_beta     25.7495
_cell_angle_gamma    25.7495

_space_group_name_H-M_alt    "P 1"
_space_group_IT_number       1

loop_
  _space_group_symop_operation_xyz
  'x, y, z'

loop_
  _atom_site_type_symbol
  _atom_site_label
  _atom_site_symmetry_multiplicity
  _atom_site_fract_x
  _atom_site_fract_y
  _atom_site_fract_z
  _atom_site_occupancy
  As  As1       1.0  0.18100  0.18100  0.18100  1.0000
  As  As2       1.0  0.78500  0.78500  0.78500  1.0000
  Pt  Pt1       1.0  0.00762  0.00762  0.00762  1.0000
  Pt  Pt2       1.0  0.47800  0.47800  0.47800  1.0000
  Sn  Sn1       1.0  0.38100  0.38100  0.38100  1.0000
  Sn  Sn2       1.0  0.63700  0.63700  0.63700  1.0000
  Sn  Sn3       1.0  0.90600  0.90600  0.90600  1.0000
