data_image0
_chemical_formula_structural       Ni2Sn3V2
_chemical_formula_sum              "Ni2 Sn3 V2"
_cell_length_a       7.82253
_cell_length_b       7.82253
_cell_length_c       7.82253
_cell_angle_alpha    33.2079
_cell_angle_beta     33.2079
_cell_angle_gamma    33.2079

_space_group_name_H-M_alt    "P 1"
_space_group_IT_number       1

loop_
  _space_group_symop_operation_xyz
  'x, y, z'

loop_
  _atom_site_type_symbol
  _atom_site_label
  _atom_site_symmetry_multiplicity
  _atom_site_fract_x
  _atom_site_fract_y
  _atom_site_fract_z
  _atom_site_occupancy
  Ni  Ni1       1.0  0.50600  0.50600  0.50600  1.0000
  Ni  Ni2       1.0  0.99900  0.99900  0.99900  1.0000
  Sn  Sn1       1.0  0.38500  0.38500  0.38500  1.0000
  Sn  Sn2       1.0  0.62500  0.62500  0.62500  1.0000
  Sn  Sn3       1.0  0.86600  0.86600  0.86600  1.0000
  V   V1        1.0  0.24700  0.24700  0.24700  1.0000
  V   V2        1.0  0.74800  0.74800  0.74800  1.0000
