data_image0
_chemical_formula_structural       Hf3Nb2Ni2
_chemical_formula_sum              "Hf3 Nb2 Ni2"
_cell_length_a       7.6761
_cell_length_b       7.6761
_cell_length_c       7.6761
_cell_angle_alpha    34.1016
_cell_angle_beta     34.1016
_cell_angle_gamma    34.1016

_space_group_name_H-M_alt    "P 1"
_space_group_IT_number       1

loop_
  _space_group_symop_operation_xyz
  'x, y, z'

loop_
  _atom_site_type_symbol
  _atom_site_label
  _atom_site_symmetry_multiplicity
  _atom_site_fract_x
  _atom_site_fract_y
  _atom_site_fract_z
  _atom_site_occupancy
  Hf  Hf1       1.0  0.38500  0.38500  0.38500  1.0000
  Hf  Hf2       1.0  0.63600  0.63600  0.63600  1.0000
  Hf  Hf3       1.0  0.89700  0.89700  0.89700  1.0000
  Nb  Nb1       1.0  0.15300  0.15300  0.15300  1.0000
  Nb  Nb2       1.0  0.77000  0.77000  0.77000  1.0000
  Ni  Ni1       1.0  0.02060  0.02060  0.02060  1.0000
  Ni  Ni2       1.0  0.51400  0.51400  0.51400  1.0000
