data_image0
_chemical_formula_structural       Bi2Pd2Si3
_chemical_formula_sum              "Bi2 Pd2 Si3"
_cell_length_a       8.87628
_cell_length_b       8.87628
_cell_length_c       8.87628
_cell_angle_alpha    28.9336
_cell_angle_beta     28.9336
_cell_angle_gamma    28.9336

_space_group_name_H-M_alt    "P 1"
_space_group_IT_number       1

loop_
  _space_group_symop_operation_xyz
  'x, y, z'

loop_
  _atom_site_type_symbol
  _atom_site_label
  _atom_site_symmetry_multiplicity
  _atom_site_fract_x
  _atom_site_fract_y
  _atom_site_fract_z
  _atom_site_occupancy
  Bi  Bi1       1.0  0.19900  0.19900  0.19900  1.0000
  Bi  Bi2       1.0  0.76500  0.76500  0.76500  1.0000
  Pd  Pd1       1.0  0.00767  0.00767  0.00767  1.0000
  Pd  Pd2       1.0  0.47200  0.47200  0.47200  1.0000
  Si  Si1       1.0  0.36700  0.36700  0.36700  1.0000
  Si  Si2       1.0  0.64900  0.64900  0.64900  1.0000
  Si  Si3       1.0  0.91600  0.91600  0.91600  1.0000
