data_image0
_chemical_formula_structural       Nb2Pt2Sn3
_chemical_formula_sum              "Nb2 Pt2 Sn3"
_cell_length_a       8.42722
_cell_length_b       8.42722
_cell_length_c       8.42722
_cell_angle_alpha    31.4085
_cell_angle_beta     31.4085
_cell_angle_gamma    31.4085

_space_group_name_H-M_alt    "P 1"
_space_group_IT_number       1

loop_
  _space_group_symop_operation_xyz
  'x, y, z'

loop_
  _atom_site_type_symbol
  _atom_site_label
  _atom_site_symmetry_multiplicity
  _atom_site_fract_x
  _atom_site_fract_y
  _atom_site_fract_z
  _atom_site_occupancy
  Nb  Nb1       1.0  0.24800  0.24800  0.24800  1.0000
  Nb  Nb2       1.0  0.75100  0.75100  0.75100  1.0000
  Pt  Pt1       1.0  0.50200  0.50200  0.50200  1.0000
  Pt  Pt2       1.0  0.99900  0.99900  0.99900  1.0000
  Sn  Sn1       1.0  0.38500  0.38500  0.38500  1.0000
  Sn  Sn2       1.0  0.62700  0.62700  0.62700  1.0000
  Sn  Sn3       1.0  0.86300  0.86300  0.86300  1.0000
