data_image0
_chemical_formula_structural       Cs15Tl27
_chemical_formula_sum              "Cs15 Tl27"
_cell_length_a       10.5527
_cell_length_b       10.5526
_cell_length_c       18.2617
_cell_angle_alpha    90
_cell_angle_beta     90
_cell_angle_gamma    120

_space_group_name_H-M_alt    "P 1"
_space_group_IT_number       1

loop_
  _space_group_symop_operation_xyz
  'x, y, z'

loop_
  _atom_site_type_symbol
  _atom_site_label
  _atom_site_symmetry_multiplicity
  _atom_site_fract_x
  _atom_site_fract_y
  _atom_site_fract_z
  _atom_site_occupancy
  Cs  Cs1       1.0  0.66700  0.33300  0.00000  1.0000
  Cs  Cs2       1.0  0.33300  0.66700  0.00000  1.0000
  Cs  Cs3       1.0  0.61000  0.00000  0.18700  1.0000
  Cs  Cs4       1.0  0.00000  0.61000  0.18700  1.0000
  Cs  Cs5       1.0  0.39000  0.39000  0.18700  1.0000
  Cs  Cs6       1.0  0.73300  0.73300  0.31300  1.0000
  Cs  Cs7       1.0  0.26700  0.00000  0.31300  1.0000
  Cs  Cs8       1.0  0.00000  0.26700  0.31300  1.0000
  Cs  Cs9       1.0  0.00000  0.00000  0.50000  1.0000
  Cs  Cs10      1.0  0.26700  0.00000  0.68700  1.0000
  Cs  Cs11      1.0  0.00000  0.26700  0.68700  1.0000
  Cs  Cs12      1.0  0.73300  0.73300  0.68700  1.0000
  Cs  Cs13      1.0  0.39000  0.39000  0.81300  1.0000
  Cs  Cs14      1.0  0.61000  0.00000  0.81300  1.0000
  Cs  Cs15      1.0  0.00000  0.61000  0.81300  1.0000
  Tl  Tl1       1.0  0.78800  0.00000  0.00000  1.0000
  Tl  Tl2       1.0  0.21200  0.21200  0.00000  1.0000
  Tl  Tl3       1.0  0.00000  0.78800  0.00000  1.0000
  Tl  Tl4       1.0  0.71700  0.71700  0.08970  1.0000
  Tl  Tl5       1.0  0.28300  0.00000  0.08970  1.0000
  Tl  Tl6       1.0  0.00000  0.28300  0.08970  1.0000
  Tl  Tl7       1.0  0.00000  0.00000  0.14700  1.0000
  Tl  Tl8       1.0  0.66700  0.33300  0.34800  1.0000
  Tl  Tl9       1.0  0.33300  0.66700  0.34800  1.0000
  Tl  Tl10      1.0  0.61800  0.00000  0.40200  1.0000
  Tl  Tl11      1.0  0.00000  0.61800  0.40200  1.0000
  Tl  Tl12      1.0  0.38300  0.38300  0.40200  1.0000
  Tl  Tl13      1.0  0.46400  0.17300  0.50000  1.0000
  Tl  Tl14      1.0  0.82700  0.29100  0.50000  1.0000
  Tl  Tl15      1.0  0.17300  0.46400  0.50000  1.0000
  Tl  Tl16      1.0  0.70900  0.53600  0.50000  1.0000
  Tl  Tl17      1.0  0.53600  0.70900  0.50000  1.0000
  Tl  Tl18      1.0  0.29100  0.82700  0.50000  1.0000
  Tl  Tl19      1.0  0.38300  0.38300  0.59800  1.0000
  Tl  Tl20      1.0  0.61800  0.00000  0.59800  1.0000
  Tl  Tl21      1.0  0.00000  0.61800  0.59800  1.0000
  Tl  Tl22      1.0  0.66700  0.33300  0.65200  1.0000
  Tl  Tl23      1.0  0.33300  0.66700  0.65200  1.0000
  Tl  Tl24      1.0  0.00000  0.00000  0.85300  1.0000
  Tl  Tl25      1.0  0.28300  0.00000  0.91000  1.0000
  Tl  Tl26      1.0  0.00000  0.28300  0.91000  1.0000
  Tl  Tl27      1.0  0.71700  0.71700  0.91000  1.0000
