data_image0
_chemical_formula_structural       Ge3Ni2V2
_chemical_formula_sum              "Ge3 Ni2 V2"
_cell_length_a       7.38332
_cell_length_b       7.38332
_cell_length_c       7.38332
_cell_angle_alpha    32.437
_cell_angle_beta     32.437
_cell_angle_gamma    32.437

_space_group_name_H-M_alt    "P 1"
_space_group_IT_number       1

loop_
  _space_group_symop_operation_xyz
  'x, y, z'

loop_
  _atom_site_type_symbol
  _atom_site_label
  _atom_site_symmetry_multiplicity
  _atom_site_fract_x
  _atom_site_fract_y
  _atom_site_fract_z
  _atom_site_occupancy
  Ge  Ge1       1.0  0.38600  0.38600  0.38600  1.0000
  Ge  Ge2       1.0  0.62600  0.62600  0.62600  1.0000
  Ge  Ge3       1.0  0.86400  0.86400  0.86400  1.0000
  Ni  Ni1       1.0  0.50400  0.50400  0.50400  1.0000
  Ni  Ni2       1.0  0.99800  0.99800  0.99800  1.0000
  V   V1        1.0  0.24800  0.24800  0.24800  1.0000
  V   V2        1.0  0.74900  0.74900  0.74900  1.0000
