data_image0
_chemical_formula_structural       As2Ge3Pd2
_chemical_formula_sum              "As2 Ge3 Pd2"
_cell_length_a       7.99682
_cell_length_b       7.99682
_cell_length_c       7.99682
_cell_angle_alpha    32.4025
_cell_angle_beta     32.4025
_cell_angle_gamma    32.4025

_space_group_name_H-M_alt    "P 1"
_space_group_IT_number       1

loop_
  _space_group_symop_operation_xyz
  'x, y, z'

loop_
  _atom_site_type_symbol
  _atom_site_label
  _atom_site_symmetry_multiplicity
  _atom_site_fract_x
  _atom_site_fract_y
  _atom_site_fract_z
  _atom_site_occupancy
  As  As1       1.0  0.23500  0.23500  0.23500  1.0000
  As  As2       1.0  0.75600  0.75600  0.75600  1.0000
  Ge  Ge1       1.0  0.38000  0.38000  0.38000  1.0000
  Ge  Ge2       1.0  0.63000  0.63000  0.63000  1.0000
  Ge  Ge3       1.0  0.86900  0.86900  0.86900  1.0000
  Pd  Pd1       1.0  0.00665  0.00665  0.00665  1.0000
  Pd  Pd2       1.0  0.49900  0.49900  0.49900  1.0000
