data_image0
_chemical_formula_structural       Pt2Sb2Sn3
_chemical_formula_sum              "Pt2 Sb2 Sn3"
_cell_length_a       10.1115
_cell_length_b       10.1115
_cell_length_c       10.1115
_cell_angle_alpha    25.5365
_cell_angle_beta     25.5365
_cell_angle_gamma    25.5365

_space_group_name_H-M_alt    "P 1"
_space_group_IT_number       1

loop_
  _space_group_symop_operation_xyz
  'x, y, z'

loop_
  _atom_site_type_symbol
  _atom_site_label
  _atom_site_symmetry_multiplicity
  _atom_site_fract_x
  _atom_site_fract_y
  _atom_site_fract_z
  _atom_site_occupancy
  Pt  Pt1       1.0  0.00782  0.00782  0.00782  1.0000
  Pt  Pt2       1.0  0.47600  0.47600  0.47600  1.0000
  Sb  Sb1       1.0  0.18400  0.18400  0.18400  1.0000
  Sb  Sb2       1.0  0.77800  0.77800  0.77800  1.0000
  Sn  Sn1       1.0  0.37700  0.37700  0.37700  1.0000
  Sn  Sn2       1.0  0.63900  0.63900  0.63900  1.0000
  Sn  Sn3       1.0  0.91300  0.91300  0.91300  1.0000
