data_image0
_chemical_formula_structural       Co4O28P8Si2
_chemical_formula_sum              "Co4 O28 P8 Si2"
_cell_length_a       4.88876
_cell_length_b       8.75415
_cell_length_c       12.2245
_cell_angle_alpha    103.28
_cell_angle_beta     90
_cell_angle_gamma    106.214

_space_group_name_H-M_alt    "P 1"
_space_group_IT_number       1

loop_
  _space_group_symop_operation_xyz
  'x, y, z'

loop_
  _atom_site_type_symbol
  _atom_site_label
  _atom_site_symmetry_multiplicity
  _atom_site_fract_x
  _atom_site_fract_y
  _atom_site_fract_z
  _atom_site_occupancy
  Co  Co1       1.0  0.39200  0.49300  0.13000  1.0000
  Co  Co2       1.0  0.89900  0.50700  0.37000  1.0000
  Co  Co3       1.0  0.10100  0.49300  0.63000  1.0000
  Co  Co4       1.0  0.60800  0.50700  0.87000  1.0000
  O   O1        1.0  0.87000  0.18200  0.01290  1.0000
  O   O2        1.0  0.77500  0.58400  0.04600  1.0000
  O   O3        1.0  0.46900  0.27900  0.11300  1.0000
  O   O4        1.0  0.29400  0.69900  0.13500  1.0000
  O   O5        1.0  0.67700  0.08170  0.17100  1.0000
  O   O6        1.0  0.96000  0.86700  0.17400  1.0000
  O   O7        1.0  0.98800  0.38500  0.20300  1.0000
  O   O8        1.0  0.60300  0.61500  0.29700  1.0000
  O   O9        1.0  0.09300  0.13300  0.32600  1.0000
  O   O10       1.0  0.59500  0.91800  0.32900  1.0000
  O   O11       1.0  0.59500  0.30100  0.36500  1.0000
  O   O12       1.0  0.18900  0.72100  0.38700  1.0000
  O   O13       1.0  0.19100  0.41600  0.45400  1.0000
  O   O14       1.0  0.68900  0.81800  0.48700  1.0000
  O   O15       1.0  0.31100  0.18200  0.51300  1.0000
  O   O16       1.0  0.80900  0.58400  0.54600  1.0000
  O   O17       1.0  0.81100  0.27900  0.61300  1.0000
  O   O18       1.0  0.40500  0.69900  0.63500  1.0000
  O   O19       1.0  0.40500  0.08170  0.67100  1.0000
  O   O20       1.0  0.90700  0.86700  0.67400  1.0000
  O   O21       1.0  0.39700  0.38500  0.70300  1.0000
  O   O22       1.0  0.01220  0.61500  0.79700  1.0000
  O   O23       1.0  0.04040  0.13300  0.82600  1.0000
  O   O24       1.0  0.32300  0.91800  0.82900  1.0000
  O   O25       1.0  0.70600  0.30100  0.86500  1.0000
  O   O26       1.0  0.53100  0.72100  0.88700  1.0000
  O   O27       1.0  0.22500  0.41600  0.95400  1.0000
  O   O28       1.0  0.13000  0.81800  0.98700  1.0000
  P   P1        1.0  0.03730  0.72800  0.08710  1.0000
  P   P2        1.0  0.74800  0.24600  0.13100  1.0000
  P   P3        1.0  0.50100  0.75400  0.36900  1.0000
  P   P4        1.0  0.30900  0.27200  0.41300  1.0000
  P   P5        1.0  0.69100  0.72800  0.58700  1.0000
  P   P6        1.0  0.49900  0.24600  0.63100  1.0000
  P   P7        1.0  0.25200  0.75400  0.86900  1.0000
  P   P8        1.0  0.96300  0.27200  0.91300  1.0000
  Si  Si1       1.0  0.82900  0.00000  0.25000  1.0000
  Si  Si2       1.0  0.17100  0.00000  0.75000  1.0000
