data_image0
_chemical_formula_structural       Nb2Pt2Zr3
_chemical_formula_sum              "Nb2 Pt2 Zr3"
_cell_length_a       8.00024
_cell_length_b       8.00024
_cell_length_c       8.00024
_cell_angle_alpha    33.8187
_cell_angle_beta     33.8187
_cell_angle_gamma    33.8187

_space_group_name_H-M_alt    "P 1"
_space_group_IT_number       1

loop_
  _space_group_symop_operation_xyz
  'x, y, z'

loop_
  _atom_site_type_symbol
  _atom_site_label
  _atom_site_symmetry_multiplicity
  _atom_site_fract_x
  _atom_site_fract_y
  _atom_site_fract_z
  _atom_site_occupancy
  Nb  Nb1       1.0  0.24400  0.24400  0.24400  1.0000
  Nb  Nb2       1.0  0.75700  0.75700  0.75700  1.0000
  Pt  Pt1       1.0  0.00420  0.00420  0.00420  1.0000
  Pt  Pt2       1.0  0.49400  0.49400  0.49400  1.0000
  Zr  Zr1       1.0  0.37500  0.37500  0.37500  1.0000
  Zr  Zr2       1.0  0.62600  0.62600  0.62600  1.0000
  Zr  Zr3       1.0  0.87500  0.87500  0.87500  1.0000
