data_image0
_chemical_formula_structural       Co2Mo2Ti3
_chemical_formula_sum              "Co2 Mo2 Ti3"
_cell_length_a       7.14456
_cell_length_b       7.14456
_cell_length_c       7.14456
_cell_angle_alpha    34.7847
_cell_angle_beta     34.7847
_cell_angle_gamma    34.7847

_space_group_name_H-M_alt    "P 1"
_space_group_IT_number       1

loop_
  _space_group_symop_operation_xyz
  'x, y, z'

loop_
  _atom_site_type_symbol
  _atom_site_label
  _atom_site_symmetry_multiplicity
  _atom_site_fract_x
  _atom_site_fract_y
  _atom_site_fract_z
  _atom_site_occupancy
  Co  Co1       1.0  0.24900  0.24900  0.24900  1.0000
  Co  Co2       1.0  0.76000  0.76000  0.76000  1.0000
  Mo  Mo1       1.0  0.00812  0.00812  0.00812  1.0000
  Mo  Mo2       1.0  0.49000  0.49000  0.49000  1.0000
  Ti  Ti1       1.0  0.37000  0.37000  0.37000  1.0000
  Ti  Ti2       1.0  0.62200  0.62200  0.62200  1.0000
  Ti  Ti3       1.0  0.87500  0.87500  0.87500  1.0000
