data_image0
_chemical_formula_structural       C4Cl8H24Mn2N4
_chemical_formula_sum              "C4 Cl8 H24 Mn2 N4"
_cell_length_a       7.1793
_cell_length_b       7.20997
_cell_length_c       10.2462
_cell_angle_alpha    90
_cell_angle_beta     69.4918
_cell_angle_gamma    90

_space_group_name_H-M_alt    "P 1"
_space_group_IT_number       1

loop_
  _space_group_symop_operation_xyz
  'x, y, z'

loop_
  _atom_site_type_symbol
  _atom_site_label
  _atom_site_symmetry_multiplicity
  _atom_site_fract_x
  _atom_site_fract_y
  _atom_site_fract_z
  _atom_site_occupancy
  C   C1        1.0  0.31100  0.04250  0.37800  1.0000
  C   C2        1.0  0.81100  0.45700  0.37800  1.0000
  C   C3        1.0  0.18900  0.54300  0.62200  1.0000
  C   C4        1.0  0.68900  0.95700  0.62200  1.0000
  Cl  Cl1       1.0  0.23500  0.25000  0.03080  1.0000
  Cl  Cl2       1.0  0.73500  0.25000  0.03080  1.0000
  Cl  Cl3       1.0  0.37200  0.54400  0.25600  1.0000
  Cl  Cl4       1.0  0.87200  0.95600  0.25600  1.0000
  Cl  Cl5       1.0  0.12800  0.04360  0.74400  1.0000
  Cl  Cl6       1.0  0.62800  0.45600  0.74400  1.0000
  Cl  Cl7       1.0  0.26500  0.75000  0.96900  1.0000
  Cl  Cl8       1.0  0.76500  0.75000  0.96900  1.0000
  H   H1        1.0  0.29500  0.02540  0.17900  1.0000
  H   H2        1.0  0.52700  0.02540  0.17900  1.0000
  H   H3        1.0  0.02670  0.47500  0.17900  1.0000
  H   H4        1.0  0.79500  0.47500  0.17900  1.0000
  H   H5        1.0  0.88600  0.66900  0.22800  1.0000
  H   H6        1.0  0.38600  0.83100  0.22800  1.0000
  H   H7        1.0  0.31000  0.19500  0.37900  1.0000
  H   H8        1.0  0.81000  0.30500  0.37900  1.0000
  H   H9        1.0  0.66000  0.51100  0.43000  1.0000
  H   H10       1.0  0.90900  0.51100  0.43000  1.0000
  H   H11       1.0  0.16000  0.98900  0.43000  1.0000
  H   H12       1.0  0.40900  0.98900  0.43000  1.0000
  H   H13       1.0  0.59100  0.01080  0.57000  1.0000
  H   H14       1.0  0.84000  0.01080  0.57000  1.0000
  H   H15       1.0  0.09060  0.48900  0.57000  1.0000
  H   H16       1.0  0.34000  0.48900  0.57000  1.0000
  H   H17       1.0  0.19000  0.69500  0.62100  1.0000
  H   H18       1.0  0.69000  0.80500  0.62100  1.0000
  H   H19       1.0  0.61400  0.16900  0.77200  1.0000
  H   H20       1.0  0.11400  0.33100  0.77200  1.0000
  H   H21       1.0  0.20500  0.52500  0.82100  1.0000
  H   H22       1.0  0.97300  0.52500  0.82100  1.0000
  H   H23       1.0  0.47300  0.97500  0.82100  1.0000
  H   H24       1.0  0.70500  0.97500  0.82100  1.0000
  Mn  Mn1       1.0  0.00000  0.00000  0.00000  1.0000
  Mn  Mn2       1.0  0.50000  0.50000  0.00000  1.0000
  N   N1        1.0  0.88400  0.52300  0.23200  1.0000
  N   N2        1.0  0.38400  0.97700  0.23200  1.0000
  N   N3        1.0  0.61600  0.02270  0.76800  1.0000
  N   N4        1.0  0.11600  0.47700  0.76800  1.0000
