data_image0
_chemical_formula_structural       Ga20Hf22
_chemical_formula_sum              "Ga20 Hf22"
_cell_length_a       10.3368
_cell_length_b       10.3368
_cell_length_c       10.3773
_cell_angle_alpha    119.871
_cell_angle_beta     119.871
_cell_angle_gamma    90

_space_group_name_H-M_alt    "P 1"
_space_group_IT_number       1

loop_
  _space_group_symop_operation_xyz
  'x, y, z'

loop_
  _atom_site_type_symbol
  _atom_site_label
  _atom_site_symmetry_multiplicity
  _atom_site_fract_x
  _atom_site_fract_y
  _atom_site_fract_z
  _atom_site_occupancy
  Ga  Ga1       1.0  0.35700  0.00000  0.00000  1.0000
  Ga  Ga2       1.0  0.64300  0.00000  0.00000  1.0000
  Ga  Ga3       1.0  0.00000  0.35700  0.00000  1.0000
  Ga  Ga4       1.0  0.37300  0.37300  0.00000  1.0000
  Ga  Ga5       1.0  0.62700  0.37300  0.00000  1.0000
  Ga  Ga6       1.0  0.37300  0.62700  0.00000  1.0000
  Ga  Ga7       1.0  0.62700  0.62700  0.00000  1.0000
  Ga  Ga8       1.0  0.00000  0.64300  0.00000  1.0000
  Ga  Ga9       1.0  0.10700  0.10700  0.21500  1.0000
  Ga  Ga10      1.0  0.46700  0.46700  0.34700  1.0000
  Ga  Ga11      1.0  0.88000  0.46700  0.34700  1.0000
  Ga  Ga12      1.0  0.46700  0.88000  0.34700  1.0000
  Ga  Ga13      1.0  0.88000  0.88000  0.34700  1.0000
  Ga  Ga14      1.0  0.75000  0.25000  0.50000  1.0000
  Ga  Ga15      1.0  0.25000  0.75000  0.50000  1.0000
  Ga  Ga16      1.0  0.12000  0.12000  0.65300  1.0000
  Ga  Ga17      1.0  0.53300  0.12000  0.65300  1.0000
  Ga  Ga18      1.0  0.12000  0.53300  0.65300  1.0000
  Ga  Ga19      1.0  0.53300  0.53300  0.65300  1.0000
  Ga  Ga20      1.0  0.89300  0.89300  0.78500  1.0000
  Hf  Hf1       1.0  0.17500  0.17500  0.00000  1.0000
  Hf  Hf2       1.0  0.82500  0.17500  0.00000  1.0000
  Hf  Hf3       1.0  0.17500  0.82500  0.00000  1.0000
  Hf  Hf4       1.0  0.82500  0.82500  0.00000  1.0000
  Hf  Hf5       1.0  0.60400  0.27000  0.20700  1.0000
  Hf  Hf6       1.0  0.27000  0.60400  0.20700  1.0000
  Hf  Hf7       1.0  0.93700  0.60400  0.20700  1.0000
  Hf  Hf8       1.0  0.60400  0.93700  0.20700  1.0000
  Hf  Hf9       1.0  0.67900  0.67900  0.35700  1.0000
  Hf  Hf10      1.0  0.43900  0.18800  0.37600  1.0000
  Hf  Hf11      1.0  0.93700  0.18800  0.37600  1.0000
  Hf  Hf12      1.0  0.18800  0.43900  0.37600  1.0000
  Hf  Hf13      1.0  0.18800  0.93700  0.37600  1.0000
  Hf  Hf14      1.0  0.81200  0.06280  0.62400  1.0000
  Hf  Hf15      1.0  0.81200  0.56100  0.62400  1.0000
  Hf  Hf16      1.0  0.06280  0.81200  0.62400  1.0000
  Hf  Hf17      1.0  0.56100  0.81200  0.62400  1.0000
  Hf  Hf18      1.0  0.32100  0.32100  0.64300  1.0000
  Hf  Hf19      1.0  0.39600  0.06280  0.79300  1.0000
  Hf  Hf20      1.0  0.06280  0.39600  0.79300  1.0000
  Hf  Hf21      1.0  0.73000  0.39600  0.79300  1.0000
  Hf  Hf22      1.0  0.39600  0.73000  0.79300  1.0000
