data_image0
_chemical_formula_structural       As2Ni2Sn3
_chemical_formula_sum              "As2 Ni2 Sn3"
_cell_length_a       10.6798
_cell_length_b       10.6798
_cell_length_c       10.6798
_cell_angle_alpha    21.9133
_cell_angle_beta     21.9133
_cell_angle_gamma    21.9133

_space_group_name_H-M_alt    "P 1"
_space_group_IT_number       1

loop_
  _space_group_symop_operation_xyz
  'x, y, z'

loop_
  _atom_site_type_symbol
  _atom_site_label
  _atom_site_symmetry_multiplicity
  _atom_site_fract_x
  _atom_site_fract_y
  _atom_site_fract_z
  _atom_site_occupancy
  As  As1       1.0  0.01850  0.01850  0.01850  1.0000
  As  As2       1.0  0.49600  0.49600  0.49600  1.0000
  Ni  Ni1       1.0  0.25000  0.25000  0.25000  1.0000
  Ni  Ni2       1.0  0.70600  0.70600  0.70600  1.0000
  Sn  Sn1       1.0  0.41100  0.41100  0.41100  1.0000
  Sn  Sn2       1.0  0.62000  0.62000  0.62000  1.0000
  Sn  Sn3       1.0  0.87400  0.87400  0.87400  1.0000
