data_image0
_chemical_formula_structural       Bi2Ni2Zr3
_chemical_formula_sum              "Bi2 Ni2 Zr3"
_cell_length_a       8.61324
_cell_length_b       8.61324
_cell_length_c       8.61324
_cell_angle_alpha    32.3487
_cell_angle_beta     32.3487
_cell_angle_gamma    32.3487

_space_group_name_H-M_alt    "P 1"
_space_group_IT_number       1

loop_
  _space_group_symop_operation_xyz
  'x, y, z'

loop_
  _atom_site_type_symbol
  _atom_site_label
  _atom_site_symmetry_multiplicity
  _atom_site_fract_x
  _atom_site_fract_y
  _atom_site_fract_z
  _atom_site_occupancy
  Bi  Bi1       1.0  0.00514  0.00514  0.00514  1.0000
  Bi  Bi2       1.0  0.49700  0.49700  0.49700  1.0000
  Ni  Ni1       1.0  0.27000  0.27000  0.27000  1.0000
  Ni  Ni2       1.0  0.72700  0.72700  0.72700  1.0000
  Zr  Zr1       1.0  0.38000  0.38000  0.38000  1.0000
  Zr  Zr2       1.0  0.61900  0.61900  0.61900  1.0000
  Zr  Zr3       1.0  0.87700  0.87700  0.87700  1.0000
