data_image0
_chemical_formula_structural       Nb2Ni2Pb3
_chemical_formula_sum              "Nb2 Ni2 Pb3"
_cell_length_a       8.6564
_cell_length_b       8.6564
_cell_length_c       8.6564
_cell_angle_alpha    30.488
_cell_angle_beta     30.488
_cell_angle_gamma    30.488

_space_group_name_H-M_alt    "P 1"
_space_group_IT_number       1

loop_
  _space_group_symop_operation_xyz
  'x, y, z'

loop_
  _atom_site_type_symbol
  _atom_site_label
  _atom_site_symmetry_multiplicity
  _atom_site_fract_x
  _atom_site_fract_y
  _atom_site_fract_z
  _atom_site_occupancy
  Nb  Nb1       1.0  0.24600  0.24600  0.24600  1.0000
  Nb  Nb2       1.0  0.75000  0.75000  0.75000  1.0000
  Ni  Ni1       1.0  0.50500  0.50500  0.50500  1.0000
  Ni  Ni2       1.0  0.99900  0.99900  0.99900  1.0000
  Pb  Pb1       1.0  0.38600  0.38600  0.38600  1.0000
  Pb  Pb2       1.0  0.62800  0.62800  0.62800  1.0000
  Pb  Pb3       1.0  0.86000  0.86000  0.86000  1.0000
