data_image0
_chemical_formula_structural       As2Pb3Pd2
_chemical_formula_sum              "As2 Pb3 Pd2"
_cell_length_a       10.1002
_cell_length_b       10.1002
_cell_length_c       10.1002
_cell_angle_alpha    26.3809
_cell_angle_beta     26.3809
_cell_angle_gamma    26.3809

_space_group_name_H-M_alt    "P 1"
_space_group_IT_number       1

loop_
  _space_group_symop_operation_xyz
  'x, y, z'

loop_
  _atom_site_type_symbol
  _atom_site_label
  _atom_site_symmetry_multiplicity
  _atom_site_fract_x
  _atom_site_fract_y
  _atom_site_fract_z
  _atom_site_occupancy
  As  As1       1.0  0.22700  0.22700  0.22700  1.0000
  As  As2       1.0  0.71100  0.71100  0.71100  1.0000
  Pb  Pb1       1.0  0.42300  0.42300  0.42300  1.0000
  Pb  Pb2       1.0  0.61600  0.61600  0.61600  1.0000
  Pb  Pb3       1.0  0.82800  0.82800  0.82800  1.0000
  Pd  Pd1       1.0  0.04830  0.04830  0.04830  1.0000
  Pd  Pd2       1.0  0.52200  0.52200  0.52200  1.0000
