data_image0
_chemical_formula_structural       Cr2Ir2Ti3
_chemical_formula_sum              "Cr2 Ir2 Ti3"
_cell_length_a       7.45912
_cell_length_b       7.45912
_cell_length_c       7.45912
_cell_angle_alpha    33.0342
_cell_angle_beta     33.0342
_cell_angle_gamma    33.0342

_space_group_name_H-M_alt    "P 1"
_space_group_IT_number       1

loop_
  _space_group_symop_operation_xyz
  'x, y, z'

loop_
  _atom_site_type_symbol
  _atom_site_label
  _atom_site_symmetry_multiplicity
  _atom_site_fract_x
  _atom_site_fract_y
  _atom_site_fract_z
  _atom_site_occupancy
  Cr  Cr1       1.0  0.24800  0.24800  0.24800  1.0000
  Cr  Cr2       1.0  0.75400  0.75400  0.75400  1.0000
  Ir  Ir1       1.0  0.00000  0.00000  0.00000  1.0000
  Ir  Ir2       1.0  0.49800  0.49800  0.49800  1.0000
  Ti  Ti1       1.0  0.37700  0.37700  0.37700  1.0000
  Ti  Ti2       1.0  0.62300  0.62300  0.62300  1.0000
  Ti  Ti3       1.0  0.87300  0.87300  0.87300  1.0000
