data_image0
_chemical_formula_structural       Rh2W2Zr3
_chemical_formula_sum              "Rh2 W2 Zr3"
_cell_length_a       7.85435
_cell_length_b       7.85435
_cell_length_c       7.85435
_cell_angle_alpha    33.9197
_cell_angle_beta     33.9197
_cell_angle_gamma    33.9197

_space_group_name_H-M_alt    "P 1"
_space_group_IT_number       1

loop_
  _space_group_symop_operation_xyz
  'x, y, z'

loop_
  _atom_site_type_symbol
  _atom_site_label
  _atom_site_symmetry_multiplicity
  _atom_site_fract_x
  _atom_site_fract_y
  _atom_site_fract_z
  _atom_site_occupancy
  Rh  Rh1       1.0  0.24600  0.24600  0.24600  1.0000
  Rh  Rh2       1.0  0.75600  0.75600  0.75600  1.0000
  W   W1        1.0  0.00319  0.00319  0.00319  1.0000
  W   W2        1.0  0.49700  0.49700  0.49700  1.0000
  Zr  Zr1       1.0  0.37700  0.37700  0.37700  1.0000
  Zr  Zr2       1.0  0.62400  0.62400  0.62400  1.0000
  Zr  Zr3       1.0  0.87200  0.87200  0.87200  1.0000
