data_image0
_chemical_formula_structural       Mo2Rh2Zr3
_chemical_formula_sum              "Mo2 Rh2 Zr3"
_cell_length_a       7.85694
_cell_length_b       7.85694
_cell_length_c       7.85694
_cell_angle_alpha    33.7743
_cell_angle_beta     33.7743
_cell_angle_gamma    33.7743

_space_group_name_H-M_alt    "P 1"
_space_group_IT_number       1

loop_
  _space_group_symop_operation_xyz
  'x, y, z'

loop_
  _atom_site_type_symbol
  _atom_site_label
  _atom_site_symmetry_multiplicity
  _atom_site_fract_x
  _atom_site_fract_y
  _atom_site_fract_z
  _atom_site_occupancy
  Mo  Mo1       1.0  0.24700  0.24700  0.24700  1.0000
  Mo  Mo2       1.0  0.75200  0.75200  0.75200  1.0000
  Rh  Rh1       1.0  0.00250  0.00250  0.00250  1.0000
  Rh  Rh2       1.0  0.49700  0.49700  0.49700  1.0000
  Zr  Zr1       1.0  0.37900  0.37900  0.37900  1.0000
  Zr  Zr2       1.0  0.62600  0.62600  0.62600  1.0000
  Zr  Zr3       1.0  0.87100  0.87100  0.87100  1.0000
