data_image0
_chemical_formula_structural       As2Ge3Pt2
_chemical_formula_sum              "As2 Ge3 Pt2"
_cell_length_a       9.32992
_cell_length_b       9.32992
_cell_length_c       9.32992
_cell_angle_alpha    25.5525
_cell_angle_beta     25.5525
_cell_angle_gamma    25.5525

_space_group_name_H-M_alt    "P 1"
_space_group_IT_number       1

loop_
  _space_group_symop_operation_xyz
  'x, y, z'

loop_
  _atom_site_type_symbol
  _atom_site_label
  _atom_site_symmetry_multiplicity
  _atom_site_fract_x
  _atom_site_fract_y
  _atom_site_fract_z
  _atom_site_occupancy
  As  As1       1.0  0.18800  0.18800  0.18800  1.0000
  As  As2       1.0  0.77700  0.77700  0.77700  1.0000
  Ge  Ge1       1.0  0.37800  0.37800  0.37800  1.0000
  Ge  Ge2       1.0  0.63500  0.63500  0.63500  1.0000
  Ge  Ge3       1.0  0.91200  0.91200  0.91200  1.0000
  Pt  Pt1       1.0  0.00785  0.00785  0.00785  1.0000
  Pt  Pt2       1.0  0.47800  0.47800  0.47800  1.0000
