data_image0
_chemical_formula_structural       C8Gd2H12N2O18
_chemical_formula_sum              "C8 Gd2 H12 N2 O18"
_cell_length_a       7.62576
_cell_length_b       5.88401
_cell_length_c       9.31787
_cell_angle_alpha    90
_cell_angle_beta     91.2836
_cell_angle_gamma    90

_space_group_name_H-M_alt    "P 1"
_space_group_IT_number       1

loop_
  _space_group_symop_operation_xyz
  'x, y, z'

loop_
  _atom_site_type_symbol
  _atom_site_label
  _atom_site_symmetry_multiplicity
  _atom_site_fract_x
  _atom_site_fract_y
  _atom_site_fract_z
  _atom_site_occupancy
  C   C1        1.0  0.04790  0.61500  0.01130  1.0000
  C   C2        1.0  0.46100  0.40500  0.04660  1.0000
  C   C3        1.0  0.03940  0.40500  0.45300  1.0000
  C   C4        1.0  0.45200  0.61500  0.48900  1.0000
  C   C5        1.0  0.54800  0.38500  0.51100  1.0000
  C   C6        1.0  0.96100  0.59500  0.54700  1.0000
  C   C7        1.0  0.53900  0.59500  0.95300  1.0000
  C   C8        1.0  0.95200  0.38500  0.98900  1.0000
  Gd  Gd1       1.0  0.75000  0.62500  0.25000  1.0000
  Gd  Gd2       1.0  0.25000  0.37500  0.75000  1.0000
  H   H1        1.0  0.77800  0.11000  0.16800  1.0000
  H   H2        1.0  0.31100  0.11300  0.17500  1.0000
  H   H3        1.0  0.15600  0.91100  0.19700  1.0000
  H   H4        1.0  0.34400  0.91100  0.30300  1.0000
  H   H5        1.0  0.18900  0.11300  0.32500  1.0000
  H   H6        1.0  0.72200  0.11000  0.33200  1.0000
  H   H7        1.0  0.27800  0.89000  0.66800  1.0000
  H   H8        1.0  0.81100  0.88700  0.67500  1.0000
  H   H9        1.0  0.65600  0.08870  0.69700  1.0000
  H   H10       1.0  0.84400  0.08870  0.80300  1.0000
  H   H11       1.0  0.68900  0.88700  0.82500  1.0000
  H   H12       1.0  0.22200  0.89000  0.83200  1.0000
  N   N1        1.0  0.25000  0.01130  0.25000  1.0000
  N   N2        1.0  0.75000  0.98900  0.75000  1.0000
  O   O1        1.0  0.63300  0.74500  0.01590  1.0000
  O   O2        1.0  0.82400  0.34400  0.06880  1.0000
  O   O3        1.0  0.99400  0.74500  0.10900  1.0000
  O   O4        1.0  0.49300  0.41300  0.18000  1.0000
  O   O5        1.0  0.75000  0.01180  0.25000  1.0000
  O   O6        1.0  0.00671  0.41300  0.32000  1.0000
  O   O7        1.0  0.50600  0.74500  0.39100  1.0000
  O   O8        1.0  0.67600  0.34400  0.43100  1.0000
  O   O9        1.0  0.86700  0.74500  0.48400  1.0000
  O   O10       1.0  0.13300  0.25500  0.51600  1.0000
  O   O11       1.0  0.32400  0.65600  0.56900  1.0000
  O   O12       1.0  0.49400  0.25500  0.60900  1.0000
  O   O13       1.0  0.99300  0.58700  0.68000  1.0000
  O   O14       1.0  0.25000  0.98800  0.75000  1.0000
  O   O15       1.0  0.50700  0.58700  0.82000  1.0000
  O   O16       1.0  0.00607  0.25500  0.89100  1.0000
  O   O17       1.0  0.17600  0.65600  0.93100  1.0000
  O   O18       1.0  0.36700  0.25500  0.98400  1.0000
