data_image0
_chemical_formula_structural       Ni2Pb3Ta2
_chemical_formula_sum              "Ni2 Pb3 Ta2"
_cell_length_a       8.70211
_cell_length_b       8.70211
_cell_length_c       8.70211
_cell_angle_alpha    30.4017
_cell_angle_beta     30.4017
_cell_angle_gamma    30.4017

_space_group_name_H-M_alt    "P 1"
_space_group_IT_number       1

loop_
  _space_group_symop_operation_xyz
  'x, y, z'

loop_
  _atom_site_type_symbol
  _atom_site_label
  _atom_site_symmetry_multiplicity
  _atom_site_fract_x
  _atom_site_fract_y
  _atom_site_fract_z
  _atom_site_occupancy
  Ni  Ni1       1.0  0.51100  0.51100  0.51100  1.0000
  Ni  Ni2       1.0  0.99900  0.99900  0.99900  1.0000
  Pb  Pb1       1.0  0.38900  0.38900  0.38900  1.0000
  Pb  Pb2       1.0  0.62800  0.62800  0.62800  1.0000
  Pb  Pb3       1.0  0.85800  0.85800  0.85800  1.0000
  Ta  Ta1       1.0  0.24200  0.24200  0.24200  1.0000
  Ta  Ta2       1.0  0.74800  0.74800  0.74800  1.0000
