data_image0
_chemical_formula_structural       As2Pb3Pt2
_chemical_formula_sum              "As2 Pb3 Pt2"
_cell_length_a       9.08884
_cell_length_b       9.08884
_cell_length_c       9.08884
_cell_angle_alpha    29.7135
_cell_angle_beta     29.7135
_cell_angle_gamma    29.7135

_space_group_name_H-M_alt    "P 1"
_space_group_IT_number       1

loop_
  _space_group_symop_operation_xyz
  'x, y, z'

loop_
  _atom_site_type_symbol
  _atom_site_label
  _atom_site_symmetry_multiplicity
  _atom_site_fract_x
  _atom_site_fract_y
  _atom_site_fract_z
  _atom_site_occupancy
  As  As1       1.0  0.15800  0.15800  0.15800  1.0000
  As  As2       1.0  0.78100  0.78100  0.78100  1.0000
  Pb  Pb1       1.0  0.38800  0.38800  0.38800  1.0000
  Pb  Pb2       1.0  0.64000  0.64000  0.64000  1.0000
  Pb  Pb3       1.0  0.89500  0.89500  0.89500  1.0000
  Pt  Pt1       1.0  0.00891  0.00891  0.00891  1.0000
  Pt  Pt2       1.0  0.50400  0.50400  0.50400  1.0000
