data_image0
_chemical_formula_structural       Rh2Ti3W2
_chemical_formula_sum              "Rh2 Ti3 W2"
_cell_length_a       7.37281
_cell_length_b       7.37281
_cell_length_c       7.37281
_cell_angle_alpha    34.3073
_cell_angle_beta     34.3073
_cell_angle_gamma    34.3073

_space_group_name_H-M_alt    "P 1"
_space_group_IT_number       1

loop_
  _space_group_symop_operation_xyz
  'x, y, z'

loop_
  _atom_site_type_symbol
  _atom_site_label
  _atom_site_symmetry_multiplicity
  _atom_site_fract_x
  _atom_site_fract_y
  _atom_site_fract_z
  _atom_site_occupancy
  Rh  Rh1       1.0  0.24700  0.24700  0.24700  1.0000
  Rh  Rh2       1.0  0.75900  0.75900  0.75900  1.0000
  Ti  Ti1       1.0  0.37200  0.37200  0.37200  1.0000
  Ti  Ti2       1.0  0.62300  0.62300  0.62300  1.0000
  Ti  Ti3       1.0  0.87600  0.87600  0.87600  1.0000
  W   W1        1.0  0.00525  0.00525  0.00525  1.0000
  W   W2        1.0  0.49300  0.49300  0.49300  1.0000
