data_image0
_chemical_formula_structural       Ir2Si3W2
_chemical_formula_sum              "Ir2 Si3 W2"
_cell_length_a       7.34128
_cell_length_b       7.34128
_cell_length_c       7.34128
_cell_angle_alpha    33.0463
_cell_angle_beta     33.0463
_cell_angle_gamma    33.0463

_space_group_name_H-M_alt    "P 1"
_space_group_IT_number       1

loop_
  _space_group_symop_operation_xyz
  'x, y, z'

loop_
  _atom_site_type_symbol
  _atom_site_label
  _atom_site_symmetry_multiplicity
  _atom_site_fract_x
  _atom_site_fract_y
  _atom_site_fract_z
  _atom_site_occupancy
  Ir  Ir1       1.0  0.25800  0.25800  0.25800  1.0000
  Ir  Ir2       1.0  0.74500  0.74500  0.74500  1.0000
  Si  Si1       1.0  0.38100  0.38100  0.38100  1.0000
  Si  Si2       1.0  0.62300  0.62300  0.62300  1.0000
  Si  Si3       1.0  0.86400  0.86400  0.86400  1.0000
  W   W1        1.0  0.00391  0.00391  0.00391  1.0000
  W   W2        1.0  0.50000  0.50000  0.50000  1.0000
