data_image0
_chemical_formula_structural       Co2Ti3W2
_chemical_formula_sum              "Co2 Ti3 W2"
_cell_length_a       7.19589
_cell_length_b       7.19589
_cell_length_c       7.19589
_cell_angle_alpha    34.6324
_cell_angle_beta     34.6324
_cell_angle_gamma    34.6324

_space_group_name_H-M_alt    "P 1"
_space_group_IT_number       1

loop_
  _space_group_symop_operation_xyz
  'x, y, z'

loop_
  _atom_site_type_symbol
  _atom_site_label
  _atom_site_symmetry_multiplicity
  _atom_site_fract_x
  _atom_site_fract_y
  _atom_site_fract_z
  _atom_site_occupancy
  Co  Co1       1.0  0.24700  0.24700  0.24700  1.0000
  Co  Co2       1.0  0.76500  0.76500  0.76500  1.0000
  Ti  Ti1       1.0  0.36600  0.36600  0.36600  1.0000
  Ti  Ti2       1.0  0.62200  0.62200  0.62200  1.0000
  Ti  Ti3       1.0  0.87700  0.87700  0.87700  1.0000
  W   W1        1.0  0.01140  0.01140  0.01140  1.0000
  W   W2        1.0  0.48700  0.48700  0.48700  1.0000
