data_image0
_chemical_formula_structural       BaMgNa2O8P2
_chemical_formula_sum              "Ba1 Mg1 Na2 O8 P2"
_cell_length_a       5.28797
_cell_length_b       5.28814
_cell_length_c       6.93268
_cell_angle_alpha    90
_cell_angle_beta     90
_cell_angle_gamma    120

_space_group_name_H-M_alt    "P 1"
_space_group_IT_number       1

loop_
  _space_group_symop_operation_xyz
  'x, y, z'

loop_
  _atom_site_type_symbol
  _atom_site_label
  _atom_site_symmetry_multiplicity
  _atom_site_fract_x
  _atom_site_fract_y
  _atom_site_fract_z
  _atom_site_occupancy
  Ba  Ba1       1.0  0.00000  0.00000  0.50000  1.0000
  Mg  Mg1       1.0  0.00000  0.00000  0.00000  1.0000
  Na  Na1       1.0  0.66700  0.33300  0.17900  1.0000
  Na  Na2       1.0  0.33300  0.66700  0.82100  1.0000
  O   O1        1.0  0.64500  0.77300  0.17800  1.0000
  O   O2        1.0  0.22700  0.87300  0.17800  1.0000
  O   O3        1.0  0.12700  0.35500  0.17800  1.0000
  O   O4        1.0  0.33300  0.66700  0.47900  1.0000
  O   O5        1.0  0.66700  0.33300  0.52100  1.0000
  O   O6        1.0  0.87300  0.64500  0.82200  1.0000
  O   O7        1.0  0.77300  0.12700  0.82200  1.0000
  O   O8        1.0  0.35500  0.22700  0.82200  1.0000
  P   P1        1.0  0.33300  0.66700  0.25700  1.0000
  P   P2        1.0  0.66700  0.33300  0.74300  1.0000
