data_image0
_chemical_formula_structural       Be2N12O28
_chemical_formula_sum              "Be2 N12 O28"
_cell_length_a       5.96808
_cell_length_b       7.08441
_cell_length_c       11.8913
_cell_angle_alpha    96.0675
_cell_angle_beta     75.4667
_cell_angle_gamma    114.911

_space_group_name_H-M_alt    "P 1"
_space_group_IT_number       1

loop_
  _space_group_symop_operation_xyz
  'x, y, z'

loop_
  _atom_site_type_symbol
  _atom_site_label
  _atom_site_symmetry_multiplicity
  _atom_site_fract_x
  _atom_site_fract_y
  _atom_site_fract_z
  _atom_site_occupancy
  Be  Be1       1.0  0.10200  0.00000  0.00000  1.0000
  Be  Be2       1.0  0.35200  0.50000  0.50000  1.0000
  N   N1        1.0  0.42600  0.21100  0.11600  1.0000
  N   N2        1.0  0.65100  0.80400  0.11900  1.0000
  N   N3        1.0  0.19200  0.52100  0.13900  1.0000
  N   N4        1.0  0.58000  0.02130  0.36100  1.0000
  N   N5        1.0  0.02030  0.30400  0.38100  1.0000
  N   N6        1.0  0.79200  0.71100  0.38400  1.0000
  N   N7        1.0  0.46500  0.28900  0.61600  1.0000
  N   N8        1.0  0.09660  0.69600  0.61900  1.0000
  N   N9        1.0  0.92100  0.97900  0.63900  1.0000
  N   N10       1.0  0.80900  0.47900  0.86100  1.0000
  N   N11       1.0  0.96600  0.19600  0.88100  1.0000
  N   N12       1.0  0.33000  0.78900  0.88400  1.0000
  O   O1        1.0  0.58900  0.73300  0.02600  1.0000
  O   O2        1.0  0.31500  0.21700  0.03280  1.0000
  O   O3        1.0  0.87500  0.94200  0.12000  1.0000
  O   O4        1.0  0.04810  0.58600  0.14400  1.0000
  O   O5        1.0  0.56900  0.37800  0.15000  1.0000
  O   O6        1.0  0.37700  0.03710  0.15200  1.0000
  O   O7        1.0  0.49900  0.74600  0.21600  1.0000
  O   O8        1.0  0.96500  0.24600  0.28400  1.0000
  O   O9        1.0  0.77900  0.53700  0.34800  1.0000
  O   O10       1.0  0.96900  0.87800  0.35000  1.0000
  O   O11       1.0  0.44200  0.08600  0.35600  1.0000
  O   O12       1.0  0.24500  0.44200  0.38000  1.0000
  O   O13       1.0  0.59800  0.71700  0.46700  1.0000
  O   O14       1.0  0.86500  0.23300  0.47400  1.0000
  O   O15       1.0  0.10600  0.76700  0.52600  1.0000
  O   O16       1.0  0.34800  0.28300  0.53300  1.0000
  O   O17       1.0  0.18300  0.55800  0.62000  1.0000
  O   O18       1.0  0.71200  0.91400  0.64400  1.0000
  O   O19       1.0  0.44100  0.12200  0.65000  1.0000
  O   O20       1.0  0.59000  0.46300  0.65200  1.0000
  O   O21       1.0  0.00234  0.75400  0.71600  1.0000
  O   O22       1.0  0.96900  0.25400  0.78400  1.0000
  O   O23       1.0  0.49200  0.96300  0.84800  1.0000
  O   O24       1.0  0.34100  0.62200  0.85000  1.0000
  O   O25       1.0  0.60600  0.41400  0.85600  1.0000
  O   O26       1.0  0.05260  0.05760  0.88000  1.0000
  O   O27       1.0  0.13100  0.78300  0.96700  1.0000
  O   O28       1.0  0.88200  0.26700  0.97400  1.0000
