data_image0
_chemical_formula_structural       Rh2Si3W2
_chemical_formula_sum              "Rh2 Si3 W2"
_cell_length_a       7.39779
_cell_length_b       7.39779
_cell_length_c       7.39779
_cell_angle_alpha    32.5758
_cell_angle_beta     32.5758
_cell_angle_gamma    32.5758

_space_group_name_H-M_alt    "P 1"
_space_group_IT_number       1

loop_
  _space_group_symop_operation_xyz
  'x, y, z'

loop_
  _atom_site_type_symbol
  _atom_site_label
  _atom_site_symmetry_multiplicity
  _atom_site_fract_x
  _atom_site_fract_y
  _atom_site_fract_z
  _atom_site_occupancy
  Rh  Rh1       1.0  0.25700  0.25700  0.25700  1.0000
  Rh  Rh2       1.0  0.74600  0.74600  0.74600  1.0000
  Si  Si1       1.0  0.38200  0.38200  0.38200  1.0000
  Si  Si2       1.0  0.62300  0.62300  0.62300  1.0000
  Si  Si3       1.0  0.86400  0.86400  0.86400  1.0000
  W   W1        1.0  0.00361  0.00361  0.00361  1.0000
  W   W2        1.0  0.49900  0.49900  0.49900  1.0000
