data_image0
_chemical_formula_structural       Cr2Rh2Zr3
_chemical_formula_sum              "Cr2 Rh2 Zr3"
_cell_length_a       7.87059
_cell_length_b       7.87059
_cell_length_c       7.87059
_cell_angle_alpha    33.3593
_cell_angle_beta     33.3593
_cell_angle_gamma    33.3593

_space_group_name_H-M_alt    "P 1"
_space_group_IT_number       1

loop_
  _space_group_symop_operation_xyz
  'x, y, z'

loop_
  _atom_site_type_symbol
  _atom_site_label
  _atom_site_symmetry_multiplicity
  _atom_site_fract_x
  _atom_site_fract_y
  _atom_site_fract_z
  _atom_site_occupancy
  Cr  Cr1       1.0  0.24800  0.24800  0.24800  1.0000
  Cr  Cr2       1.0  0.75100  0.75100  0.75100  1.0000
  Rh  Rh1       1.0  0.50100  0.50100  0.50100  1.0000
  Rh  Rh2       1.0  1.00000  0.00000  0.00000  1.0000
  Zr  Zr1       1.0  0.38200  0.38200  0.38200  1.0000
  Zr  Zr2       1.0  0.62400  0.62400  0.62400  1.0000
  Zr  Zr3       1.0  0.86900  0.86900  0.86900  1.0000
