data_image0
_chemical_formula_structural       Pb3Pd2Sb2
_chemical_formula_sum              "Pb3 Pd2 Sb2"
_cell_length_a       9.38254
_cell_length_b       9.38254
_cell_length_c       9.38254
_cell_angle_alpha    29.7198
_cell_angle_beta     29.7198
_cell_angle_gamma    29.7198

_space_group_name_H-M_alt    "P 1"
_space_group_IT_number       1

loop_
  _space_group_symop_operation_xyz
  'x, y, z'

loop_
  _atom_site_type_symbol
  _atom_site_label
  _atom_site_symmetry_multiplicity
  _atom_site_fract_x
  _atom_site_fract_y
  _atom_site_fract_z
  _atom_site_occupancy
  Pb  Pb1       1.0  0.37600  0.37600  0.37600  1.0000
  Pb  Pb2       1.0  0.64200  0.64200  0.64200  1.0000
  Pb  Pb3       1.0  0.90500  0.90500  0.90500  1.0000
  Pd  Pd1       1.0  0.00903  0.00903  0.00903  1.0000
  Pd  Pd2       1.0  0.48300  0.48300  0.48300  1.0000
  Sb  Sb1       1.0  0.17900  0.17900  0.17900  1.0000
  Sb  Sb2       1.0  0.78000  0.78000  0.78000  1.0000
