data_image0
_chemical_formula_structural       Cr2Hf3Rh2
_chemical_formula_sum              "Cr2 Hf3 Rh2"
_cell_length_a       7.80148
_cell_length_b       7.80148
_cell_length_c       7.80148
_cell_angle_alpha    33.3209
_cell_angle_beta     33.3209
_cell_angle_gamma    33.3209

_space_group_name_H-M_alt    "P 1"
_space_group_IT_number       1

loop_
  _space_group_symop_operation_xyz
  'x, y, z'

loop_
  _atom_site_type_symbol
  _atom_site_label
  _atom_site_symmetry_multiplicity
  _atom_site_fract_x
  _atom_site_fract_y
  _atom_site_fract_z
  _atom_site_occupancy
  Cr  Cr1       1.0  0.24900  0.24900  0.24900  1.0000
  Cr  Cr2       1.0  0.75100  0.75100  0.75100  1.0000
  Hf  Hf1       1.0  0.38000  0.38000  0.38000  1.0000
  Hf  Hf2       1.0  0.62400  0.62400  0.62400  1.0000
  Hf  Hf3       1.0  0.87000  0.87000  0.87000  1.0000
  Rh  Rh1       1.0  0.50100  0.50100  0.50100  1.0000
  Rh  Rh2       1.0  0.00000  1.00000  0.00000  1.0000
