data_image0
_chemical_formula_structural       Bi2Ni2Sn3
_chemical_formula_sum              "Bi2 Ni2 Sn3"
_cell_length_a       10.3311
_cell_length_b       10.3311
_cell_length_c       10.3311
_cell_angle_alpha    24.2202
_cell_angle_beta     24.2202
_cell_angle_gamma    24.2202

_space_group_name_H-M_alt    "P 1"
_space_group_IT_number       1

loop_
  _space_group_symop_operation_xyz
  'x, y, z'

loop_
  _atom_site_type_symbol
  _atom_site_label
  _atom_site_symmetry_multiplicity
  _atom_site_fract_x
  _atom_site_fract_y
  _atom_site_fract_z
  _atom_site_occupancy
  Bi  Bi1       1.0  0.08310  0.08310  0.08310  1.0000
  Bi  Bi2       1.0  0.48700  0.48700  0.48700  1.0000
  Ni  Ni1       1.0  0.25500  0.25500  0.25500  1.0000
  Ni  Ni2       1.0  0.70500  0.70500  0.70500  1.0000
  Sn  Sn1       1.0  0.34500  0.34500  0.34500  1.0000
  Sn  Sn2       1.0  0.61600  0.61600  0.61600  1.0000
  Sn  Sn3       1.0  0.88400  0.88400  0.88400  1.0000
