data_image0
_chemical_formula_structural       Ni2Sb2Sn3
_chemical_formula_sum              "Ni2 Sb2 Sn3"
_cell_length_a       10.2507
_cell_length_b       10.2507
_cell_length_c       10.2507
_cell_angle_alpha    23.9419
_cell_angle_beta     23.9419
_cell_angle_gamma    23.9419

_space_group_name_H-M_alt    "P 1"
_space_group_IT_number       1

loop_
  _space_group_symop_operation_xyz
  'x, y, z'

loop_
  _atom_site_type_symbol
  _atom_site_label
  _atom_site_symmetry_multiplicity
  _atom_site_fract_x
  _atom_site_fract_y
  _atom_site_fract_z
  _atom_site_occupancy
  Ni  Ni1       1.0  0.25400  0.25400  0.25400  1.0000
  Ni  Ni2       1.0  0.71000  0.71000  0.71000  1.0000
  Sb  Sb1       1.0  0.08470  0.08470  0.08470  1.0000
  Sb  Sb2       1.0  0.48400  0.48400  0.48400  1.0000
  Sn  Sn1       1.0  0.34600  0.34600  0.34600  1.0000
  Sn  Sn2       1.0  0.61700  0.61700  0.61700  1.0000
  Sn  Sn3       1.0  0.87900  0.87900  0.87900  1.0000
