data_image0
_chemical_formula_structural       Hf3Rh2W2
_chemical_formula_sum              "Hf3 Rh2 W2"
_cell_length_a       7.7897
_cell_length_b       7.7897
_cell_length_c       7.7897
_cell_angle_alpha    33.9725
_cell_angle_beta     33.9725
_cell_angle_gamma    33.9725

_space_group_name_H-M_alt    "P 1"
_space_group_IT_number       1

loop_
  _space_group_symop_operation_xyz
  'x, y, z'

loop_
  _atom_site_type_symbol
  _atom_site_label
  _atom_site_symmetry_multiplicity
  _atom_site_fract_x
  _atom_site_fract_y
  _atom_site_fract_z
  _atom_site_occupancy
  Hf  Hf1       1.0  0.37500  0.37500  0.37500  1.0000
  Hf  Hf2       1.0  0.62300  0.62300  0.62300  1.0000
  Hf  Hf3       1.0  0.87400  0.87400  0.87400  1.0000
  Rh  Rh1       1.0  0.24700  0.24700  0.24700  1.0000
  Rh  Rh2       1.0  0.75700  0.75700  0.75700  1.0000
  W   W1        1.0  0.00431  0.00431  0.00431  1.0000
  W   W2        1.0  0.49500  0.49500  0.49500  1.0000
