data_image0
_chemical_formula_structural       Cr2Rh2Sn3
_chemical_formula_sum              "Cr2 Rh2 Sn3"
_cell_length_a       7.88107
_cell_length_b       7.88107
_cell_length_c       7.88107
_cell_angle_alpha    33.3973
_cell_angle_beta     33.3973
_cell_angle_gamma    33.3973

_space_group_name_H-M_alt    "P 1"
_space_group_IT_number       1

loop_
  _space_group_symop_operation_xyz
  'x, y, z'

loop_
  _atom_site_type_symbol
  _atom_site_label
  _atom_site_symmetry_multiplicity
  _atom_site_fract_x
  _atom_site_fract_y
  _atom_site_fract_z
  _atom_site_occupancy
  Cr  Cr1       1.0  0.24300  0.24300  0.24300  1.0000
  Cr  Cr2       1.0  0.74900  0.74900  0.74900  1.0000
  Rh  Rh1       1.0  0.50700  0.50700  0.50700  1.0000
  Rh  Rh2       1.0  0.99600  0.99600  0.99600  1.0000
  Sn  Sn1       1.0  0.38600  0.38600  0.38600  1.0000
  Sn  Sn2       1.0  0.62700  0.62700  0.62700  1.0000
  Sn  Sn3       1.0  0.86700  0.86700  0.86700  1.0000
