data_image0
_chemical_formula_structural       C8Cu2H16N4O12
_chemical_formula_sum              "C8 Cu2 H16 N4 O12"
_cell_length_a       7.57494
_cell_length_b       7.8576
_cell_length_c       7.69481
_cell_angle_alpha    90
_cell_angle_beta     90
_cell_angle_gamma    65.1418

_space_group_name_H-M_alt    "P 1"
_space_group_IT_number       1

loop_
  _space_group_symop_operation_xyz
  'x, y, z'

loop_
  _atom_site_type_symbol
  _atom_site_label
  _atom_site_symmetry_multiplicity
  _atom_site_fract_x
  _atom_site_fract_y
  _atom_site_fract_z
  _atom_site_occupancy
  C   C1        1.0  0.04060  0.22200  0.09740  1.0000
  C   C2        1.0  0.50700  0.70700  0.20000  1.0000
  C   C3        1.0  0.50700  0.20700  0.30000  1.0000
  C   C4        1.0  0.04060  0.72200  0.40300  1.0000
  C   C5        1.0  0.95900  0.27800  0.59700  1.0000
  C   C6        1.0  0.49300  0.79300  0.70000  1.0000
  C   C7        1.0  0.49300  0.29300  0.80000  1.0000
  C   C8        1.0  0.95900  0.77800  0.90300  1.0000
  Cu  Cu1       1.0  0.50000  0.00000  0.00000  1.0000
  Cu  Cu2       1.0  0.50000  0.50000  0.50000  1.0000
  H   H1        1.0  0.83200  0.13400  0.03770  1.0000
  H   H2        1.0  0.74600  0.36700  0.12500  1.0000
  H   H3        1.0  0.06190  0.34600  0.14100  1.0000
  H   H4        1.0  0.40300  0.32600  0.22600  1.0000
  H   H5        1.0  0.40300  0.82600  0.27400  1.0000
  H   H6        1.0  0.06190  0.84600  0.35900  1.0000
  H   H7        1.0  0.74600  0.86700  0.37500  1.0000
  H   H8        1.0  0.83200  0.63400  0.46200  1.0000
  H   H9        1.0  0.16800  0.36600  0.53800  1.0000
  H   H10       1.0  0.25400  0.13300  0.62500  1.0000
  H   H11       1.0  0.93800  0.15400  0.64100  1.0000
  H   H12       1.0  0.59700  0.17400  0.72600  1.0000
  H   H13       1.0  0.59700  0.67400  0.77400  1.0000
  H   H14       1.0  0.93800  0.65400  0.85900  1.0000
  H   H15       1.0  0.25400  0.63300  0.87500  1.0000
  H   H16       1.0  0.16800  0.86600  0.96200  1.0000
  N   N1        1.0  0.85700  0.24600  0.08030  1.0000
  N   N2        1.0  0.85700  0.74600  0.42000  1.0000
  N   N3        1.0  0.14300  0.25400  0.58000  1.0000
  N   N4        1.0  0.14300  0.75400  0.92000  1.0000
  O   O1        1.0  0.57400  0.73600  0.05720  1.0000
  O   O2        1.0  0.18400  0.06920  0.06600  1.0000
  O   O3        1.0  0.56300  0.04200  0.24100  1.0000
  O   O4        1.0  0.56300  0.54200  0.25900  1.0000
  O   O5        1.0  0.18400  0.56900  0.43400  1.0000
  O   O6        1.0  0.57400  0.23600  0.44300  1.0000
  O   O7        1.0  0.42600  0.76400  0.55700  1.0000
  O   O8        1.0  0.81600  0.43100  0.56600  1.0000
  O   O9        1.0  0.43700  0.45800  0.74100  1.0000
  O   O10       1.0  0.43700  0.95800  0.75900  1.0000
  O   O11       1.0  0.81600  0.93100  0.93400  1.0000
  O   O12       1.0  0.42600  0.26400  0.94300  1.0000
