data_image0
_chemical_formula_structural       Ni2Pb3Sb2
_chemical_formula_sum              "Ni2 Pb3 Sb2"
_cell_length_a       10.0499
_cell_length_b       10.0499
_cell_length_c       10.0499
_cell_angle_alpha    25.6794
_cell_angle_beta     25.6794
_cell_angle_gamma    25.6794

_space_group_name_H-M_alt    "P 1"
_space_group_IT_number       1

loop_
  _space_group_symop_operation_xyz
  'x, y, z'

loop_
  _atom_site_type_symbol
  _atom_site_label
  _atom_site_symmetry_multiplicity
  _atom_site_fract_x
  _atom_site_fract_y
  _atom_site_fract_z
  _atom_site_occupancy
  Ni  Ni1       1.0  0.25400  0.25400  0.25400  1.0000
  Ni  Ni2       1.0  0.71600  0.71600  0.71600  1.0000
  Pb  Pb1       1.0  0.34900  0.34900  0.34900  1.0000
  Pb  Pb2       1.0  0.61500  0.61500  0.61500  1.0000
  Pb  Pb3       1.0  0.87500  0.87500  0.87500  1.0000
  Sb  Sb1       1.0  0.08560  0.08560  0.08560  1.0000
  Sb  Sb2       1.0  0.48000  0.48000  0.48000  1.0000
