data_image0
_chemical_formula_structural       Mo2Rh2Si3
_chemical_formula_sum              "Mo2 Rh2 Si3"
_cell_length_a       7.32768
_cell_length_b       7.32768
_cell_length_c       7.32768
_cell_angle_alpha    32.9278
_cell_angle_beta     32.9278
_cell_angle_gamma    32.9278

_space_group_name_H-M_alt    "P 1"
_space_group_IT_number       1

loop_
  _space_group_symop_operation_xyz
  'x, y, z'

loop_
  _atom_site_type_symbol
  _atom_site_label
  _atom_site_symmetry_multiplicity
  _atom_site_fract_x
  _atom_site_fract_y
  _atom_site_fract_z
  _atom_site_occupancy
  Mo  Mo1       1.0  0.24600  0.24600  0.24600  1.0000
  Mo  Mo2       1.0  0.75100  0.75100  0.75100  1.0000
  Rh  Rh1       1.0  0.50400  0.50400  0.50400  1.0000
  Rh  Rh2       1.0  0.99300  0.99300  0.99300  1.0000
  Si  Si1       1.0  0.38600  0.38600  0.38600  1.0000
  Si  Si2       1.0  0.62700  0.62700  0.62700  1.0000
  Si  Si3       1.0  0.86900  0.86900  0.86900  1.0000
