data_image0
_chemical_formula_structural       Ba6In4O22Zn10
_chemical_formula_sum              "Ba6 In4 O22 Zn10"
_cell_length_a       9.4718
_cell_length_b       9.4718
_cell_length_c       9.4718
_cell_angle_alpha    120
_cell_angle_beta     90
_cell_angle_gamma    120

_space_group_name_H-M_alt    "P 1"
_space_group_IT_number       1

loop_
  _space_group_symop_operation_xyz
  'x, y, z'

loop_
  _atom_site_type_symbol
  _atom_site_label
  _atom_site_symmetry_multiplicity
  _atom_site_fract_x
  _atom_site_fract_y
  _atom_site_fract_z
  _atom_site_occupancy
  Ba  Ba1       1.0  0.29400  0.00000  0.29400  1.0000
  Ba  Ba2       1.0  0.29400  0.58800  0.29400  1.0000
  Ba  Ba3       1.0  0.70600  0.00000  0.29400  1.0000
  Ba  Ba4       1.0  0.70600  0.00000  0.70600  1.0000
  Ba  Ba5       1.0  0.29400  0.00000  0.70600  1.0000
  Ba  Ba6       1.0  0.70600  0.41200  0.70600  1.0000
  In  In1       1.0  0.16500  0.33100  0.49600  1.0000
  In  In2       1.0  0.16500  0.33100  0.83500  1.0000
  In  In3       1.0  0.16500  0.66900  0.83500  1.0000
  In  In4       1.0  0.50400  0.66900  0.83500  1.0000
  O   O1        1.0  0.00000  0.00000  0.00000  1.0000
  O   O2        1.0  0.00286  0.33100  0.33400  1.0000
  O   O3        1.0  0.32900  0.33100  0.33400  1.0000
  O   O4        1.0  0.00286  0.00572  0.33400  1.0000
  O   O5        1.0  0.65700  0.31400  0.34300  1.0000
  O   O6        1.0  0.02880  0.68600  0.34300  1.0000
  O   O7        1.0  0.65700  0.68600  0.34300  1.0000
  O   O8        1.0  0.50000  0.00000  0.50000  1.0000
  O   O9        1.0  0.00199  0.33500  0.66700  1.0000
  O   O10       1.0  0.33300  0.33500  0.66700  1.0000
  O   O11       1.0  0.33300  0.66500  0.66700  1.0000
  O   O12       1.0  0.00286  0.00572  0.67100  1.0000
  O   O13       1.0  0.00286  0.66900  0.67100  1.0000
  O   O14       1.0  0.66600  0.66900  0.67100  1.0000
  O   O15       1.0  0.65700  0.31400  0.97100  1.0000
  O   O16       1.0  0.00286  0.66900  0.99700  1.0000
  O   O17       1.0  0.66600  0.66900  0.99700  1.0000
  O   O18       1.0  0.00286  0.33100  0.99700  1.0000
  O   O19       1.0  0.32900  0.33100  0.99700  1.0000
  O   O20       1.0  0.32900  0.99400  0.99700  1.0000
  O   O21       1.0  0.66600  0.99400  0.99700  1.0000
  O   O22       1.0  0.33300  0.66500  0.99800  1.0000
  Zn  Zn1       1.0  0.58200  0.50000  0.08190  1.0000
  Zn  Zn2       1.0  0.58200  0.16400  0.08190  1.0000
  Zn  Zn3       1.0  0.91800  0.50000  0.08190  1.0000
  Zn  Zn4       1.0  0.24900  0.16600  0.08310  1.0000
  Zn  Zn5       1.0  0.91700  0.16600  0.08310  1.0000
  Zn  Zn6       1.0  0.91700  0.83400  0.08310  1.0000
  Zn  Zn7       1.0  0.91800  0.50000  0.41800  1.0000
  Zn  Zn8       1.0  0.91800  0.83600  0.41800  1.0000
  Zn  Zn9       1.0  0.58200  0.50000  0.41800  1.0000
  Zn  Zn10      1.0  0.91700  0.83400  0.75100  1.0000
