data_image0
_chemical_formula_structural       Bi2Pb3Pt2
_chemical_formula_sum              "Bi2 Pb3 Pt2"
_cell_length_a       9.27196
_cell_length_b       9.27196
_cell_length_c       9.27196
_cell_angle_alpha    30.8481
_cell_angle_beta     30.8481
_cell_angle_gamma    30.8481

_space_group_name_H-M_alt    "P 1"
_space_group_IT_number       1

loop_
  _space_group_symop_operation_xyz
  'x, y, z'

loop_
  _atom_site_type_symbol
  _atom_site_label
  _atom_site_symmetry_multiplicity
  _atom_site_fract_x
  _atom_site_fract_y
  _atom_site_fract_z
  _atom_site_occupancy
  Bi  Bi1       1.0  0.18100  0.18100  0.18100  1.0000
  Bi  Bi2       1.0  0.77700  0.77700  0.77700  1.0000
  Pb  Pb1       1.0  0.37300  0.37300  0.37300  1.0000
  Pb  Pb2       1.0  0.64200  0.64200  0.64200  1.0000
  Pb  Pb3       1.0  0.90800  0.90800  0.90800  1.0000
  Pt  Pt1       1.0  0.01290  0.01290  0.01290  1.0000
  Pt  Pt2       1.0  0.48100  0.48100  0.48100  1.0000
