data_image0
_chemical_formula_structural       Bi2Pt2Sn3
_chemical_formula_sum              "Bi2 Pt2 Sn3"
_cell_length_a       9.7841
_cell_length_b       9.7841
_cell_length_c       9.7841
_cell_angle_alpha    27.6072
_cell_angle_beta     27.6072
_cell_angle_gamma    27.6072

_space_group_name_H-M_alt    "P 1"
_space_group_IT_number       1

loop_
  _space_group_symop_operation_xyz
  'x, y, z'

loop_
  _atom_site_type_symbol
  _atom_site_label
  _atom_site_symmetry_multiplicity
  _atom_site_fract_x
  _atom_site_fract_y
  _atom_site_fract_z
  _atom_site_occupancy
  Bi  Bi1       1.0  0.18600  0.18600  0.18600  1.0000
  Bi  Bi2       1.0  0.77500  0.77500  0.77500  1.0000
  Pt  Pt1       1.0  0.00841  0.00841  0.00841  1.0000
  Pt  Pt2       1.0  0.47600  0.47600  0.47600  1.0000
  Sn  Sn1       1.0  0.37500  0.37500  0.37500  1.0000
  Sn  Sn2       1.0  0.64200  0.64200  0.64200  1.0000
  Sn  Sn3       1.0  0.91300  0.91300  0.91300  1.0000
