data_image0
_chemical_formula_structural       Pb3Pd2Ta2
_chemical_formula_sum              "Pb3 Pd2 Ta2"
_cell_length_a       8.58336
_cell_length_b       8.58336
_cell_length_c       8.58336
_cell_angle_alpha    31.7164
_cell_angle_beta     31.7164
_cell_angle_gamma    31.7164

_space_group_name_H-M_alt    "P 1"
_space_group_IT_number       1

loop_
  _space_group_symop_operation_xyz
  'x, y, z'

loop_
  _atom_site_type_symbol
  _atom_site_label
  _atom_site_symmetry_multiplicity
  _atom_site_fract_x
  _atom_site_fract_y
  _atom_site_fract_z
  _atom_site_occupancy
  Pb  Pb1       1.0  0.38600  0.38600  0.38600  1.0000
  Pb  Pb2       1.0  0.62500  0.62500  0.62500  1.0000
  Pb  Pb3       1.0  0.86200  0.86200  0.86200  1.0000
  Pd  Pd1       1.0  0.00156  0.00156  0.00156  1.0000
  Pd  Pd2       1.0  0.50100  0.50100  0.50100  1.0000
  Ta  Ta1       1.0  0.25100  0.25100  0.25100  1.0000
  Ta  Ta2       1.0  0.74900  0.74900  0.74900  1.0000
