data_image0
_chemical_formula_structural       Ir2Ti3W2
_chemical_formula_sum              "Ir2 Ti3 W2"
_cell_length_a       7.4457
_cell_length_b       7.4457
_cell_length_c       7.4457
_cell_angle_alpha    33.863
_cell_angle_beta     33.863
_cell_angle_gamma    33.863

_space_group_name_H-M_alt    "P 1"
_space_group_IT_number       1

loop_
  _space_group_symop_operation_xyz
  'x, y, z'

loop_
  _atom_site_type_symbol
  _atom_site_label
  _atom_site_symmetry_multiplicity
  _atom_site_fract_x
  _atom_site_fract_y
  _atom_site_fract_z
  _atom_site_occupancy
  Ir  Ir1       1.0  0.24800  0.24800  0.24800  1.0000
  Ir  Ir2       1.0  0.75700  0.75700  0.75700  1.0000
  Ti  Ti1       1.0  0.37300  0.37300  0.37300  1.0000
  Ti  Ti2       1.0  0.62400  0.62400  0.62400  1.0000
  Ti  Ti3       1.0  0.87500  0.87500  0.87500  1.0000
  W   W1        1.0  0.00491  0.00491  0.00491  1.0000
  W   W2        1.0  0.49300  0.49300  0.49300  1.0000
