data_image0
_chemical_formula_structural       Ir2Mo2Si3
_chemical_formula_sum              "Ir2 Mo2 Si3"
_cell_length_a       7.31755
_cell_length_b       7.31755
_cell_length_c       7.31755
_cell_angle_alpha    33.0527
_cell_angle_beta     33.0527
_cell_angle_gamma    33.0527

_space_group_name_H-M_alt    "P 1"
_space_group_IT_number       1

loop_
  _space_group_symop_operation_xyz
  'x, y, z'

loop_
  _atom_site_type_symbol
  _atom_site_label
  _atom_site_symmetry_multiplicity
  _atom_site_fract_x
  _atom_site_fract_y
  _atom_site_fract_z
  _atom_site_occupancy
  Ir  Ir1       1.0  0.50500  0.50500  0.50500  1.0000
  Ir  Ir2       1.0  0.99200  0.99200  0.99200  1.0000
  Mo  Mo1       1.0  0.24600  0.24600  0.24600  1.0000
  Mo  Mo2       1.0  0.75100  0.75100  0.75100  1.0000
  Si  Si1       1.0  0.38500  0.38500  0.38500  1.0000
  Si  Si2       1.0  0.62700  0.62700  0.62700  1.0000
  Si  Si3       1.0  0.86900  0.86900  0.86900  1.0000
