data_image0
_chemical_formula_structural       Hf3Ir2W2
_chemical_formula_sum              "Hf3 Ir2 W2"
_cell_length_a       7.83415
_cell_length_b       7.83415
_cell_length_c       7.83415
_cell_angle_alpha    33.7084
_cell_angle_beta     33.7084
_cell_angle_gamma    33.7084

_space_group_name_H-M_alt    "P 1"
_space_group_IT_number       1

loop_
  _space_group_symop_operation_xyz
  'x, y, z'

loop_
  _atom_site_type_symbol
  _atom_site_label
  _atom_site_symmetry_multiplicity
  _atom_site_fract_x
  _atom_site_fract_y
  _atom_site_fract_z
  _atom_site_occupancy
  Hf  Hf1       1.0  0.37600  0.37600  0.37600  1.0000
  Hf  Hf2       1.0  0.62400  0.62400  0.62400  1.0000
  Hf  Hf3       1.0  0.87300  0.87300  0.87300  1.0000
  Ir  Ir1       1.0  0.24800  0.24800  0.24800  1.0000
  Ir  Ir2       1.0  0.75500  0.75500  0.75500  1.0000
  W   W1        1.0  0.00462  0.00462  0.00462  1.0000
  W   W2        1.0  0.49400  0.49400  0.49400  1.0000
