data_image0
_chemical_formula_structural       Pb3Pd2V2
_chemical_formula_sum              "Pb3 Pd2 V2"
_cell_length_a       8.29144
_cell_length_b       8.29144
_cell_length_c       8.29144
_cell_angle_alpha    32.8069
_cell_angle_beta     32.8069
_cell_angle_gamma    32.8069

_space_group_name_H-M_alt    "P 1"
_space_group_IT_number       1

loop_
  _space_group_symop_operation_xyz
  'x, y, z'

loop_
  _atom_site_type_symbol
  _atom_site_label
  _atom_site_symmetry_multiplicity
  _atom_site_fract_x
  _atom_site_fract_y
  _atom_site_fract_z
  _atom_site_occupancy
  Pb  Pb1       1.0  0.38600  0.38600  0.38600  1.0000
  Pb  Pb2       1.0  0.62500  0.62500  0.62500  1.0000
  Pb  Pb3       1.0  0.86400  0.86400  0.86400  1.0000
  Pd  Pd1       1.0  0.00311  0.00311  0.00311  1.0000
  Pd  Pd2       1.0  0.50400  0.50400  0.50400  1.0000
  V   V1        1.0  0.24600  0.24600  0.24600  1.0000
  V   V2        1.0  0.74700  0.74700  0.74700  1.0000
