data_image0
_chemical_formula_structural       Co2Si3W2
_chemical_formula_sum              "Co2 Si3 W2"
_cell_length_a       6.9623
_cell_length_b       6.9623
_cell_length_c       6.9623
_cell_angle_alpha    33.9738
_cell_angle_beta     33.9738
_cell_angle_gamma    33.9738

_space_group_name_H-M_alt    "P 1"
_space_group_IT_number       1

loop_
  _space_group_symop_operation_xyz
  'x, y, z'

loop_
  _atom_site_type_symbol
  _atom_site_label
  _atom_site_symmetry_multiplicity
  _atom_site_fract_x
  _atom_site_fract_y
  _atom_site_fract_z
  _atom_site_occupancy
  Co  Co1       1.0  0.25400  0.25400  0.25400  1.0000
  Co  Co2       1.0  0.75100  0.75100  0.75100  1.0000
  Si  Si1       1.0  0.37500  0.37500  0.37500  1.0000
  Si  Si2       1.0  0.62200  0.62200  0.62200  1.0000
  Si  Si3       1.0  0.87300  0.87300  0.87300  1.0000
  W   W1        1.0  0.00679  0.00679  0.00679  1.0000
  W   W2        1.0  0.49400  0.49400  0.49400  1.0000
