data_image0
_chemical_formula_structural       Ba14CaN6Na21
_chemical_formula_sum              "Ba14 Ca1 N6 Na21"
_cell_length_a       12.3392
_cell_length_b       12.3392
_cell_length_c       13.9148
_cell_angle_alpha    101.773
_cell_angle_beta     104.594
_cell_angle_gamma    119.064

_space_group_name_H-M_alt    "P 1"
_space_group_IT_number       1

loop_
  _space_group_symop_operation_xyz
  'x, y, z'

loop_
  _atom_site_type_symbol
  _atom_site_label
  _atom_site_symmetry_multiplicity
  _atom_site_fract_x
  _atom_site_fract_y
  _atom_site_fract_z
  _atom_site_occupancy
  Ba  Ba1       1.0  0.85900  0.37100  0.23100  1.0000
  Ba  Ba2       1.0  0.07700  0.19100  0.26800  1.0000
  Ba  Ba3       1.0  0.49200  0.20300  0.27200  1.0000
  Ba  Ba4       1.0  0.06840  0.78000  0.27200  1.0000
  Ba  Ba5       1.0  0.80900  0.16900  0.40600  1.0000
  Ba  Ba6       1.0  0.23700  0.59700  0.40600  1.0000
  Ba  Ba7       1.0  0.80800  0.60200  0.41000  1.0000
  Ba  Ba8       1.0  0.19200  0.39800  0.59000  1.0000
  Ba  Ba9       1.0  0.76300  0.40300  0.59400  1.0000
  Ba  Ba10      1.0  0.19100  0.83100  0.59400  1.0000
  Ba  Ba11      1.0  0.93200  0.22000  0.72800  1.0000
  Ba  Ba12      1.0  0.50800  0.79700  0.72800  1.0000
  Ba  Ba13      1.0  0.92300  0.80900  0.73200  1.0000
  Ba  Ba14      1.0  0.14100  0.62900  0.76900  1.0000
  Ca  Ca1       1.0  0.00000  0.50000  0.50000  1.0000
  N   N1        1.0  0.03440  0.34400  0.37800  1.0000
  N   N2        1.0  0.74400  0.34800  0.38200  1.0000
  N   N3        1.0  0.03330  0.63700  0.38200  1.0000
  N   N4        1.0  0.96700  0.36300  0.61800  1.0000
  N   N5        1.0  0.25600  0.65200  0.61800  1.0000
  N   N6        1.0  0.96600  0.65600  0.62200  1.0000
  Na  Na1       1.0  0.17900  0.17900  0.00000  1.0000
  Na  Na2       1.0  0.82100  0.82100  0.00000  1.0000
  Na  Na3       1.0  0.16300  0.86900  0.03240  1.0000
  Na  Na4       1.0  0.60400  0.44600  0.05010  1.0000
  Na  Na5       1.0  0.12300  0.47100  0.05610  1.0000
  Na  Na6       1.0  0.58500  0.93300  0.05610  1.0000
  Na  Na7       1.0  0.40500  0.80600  0.21000  1.0000
  Na  Na8       1.0  0.42300  0.49900  0.22000  1.0000
  Na  Na9       1.0  0.72000  0.79700  0.22000  1.0000
  Na  Na10      1.0  0.65300  0.82400  0.47800  1.0000
  Na  Na11      1.0  0.50000  0.00000  0.50000  1.0000
  Na  Na12      1.0  0.00000  0.00000  0.50000  1.0000
  Na  Na13      1.0  0.50000  0.50000  0.50000  1.0000
  Na  Na14      1.0  0.34700  0.17600  0.52200  1.0000
  Na  Na15      1.0  0.28000  0.20300  0.78000  1.0000
  Na  Na16      1.0  0.57700  0.50100  0.78000  1.0000
  Na  Na17      1.0  0.59500  0.19400  0.79000  1.0000
  Na  Na18      1.0  0.41500  0.06730  0.94400  1.0000
  Na  Na19      1.0  0.87700  0.52900  0.94400  1.0000
  Na  Na20      1.0  0.39600  0.55400  0.95000  1.0000
  Na  Na21      1.0  0.83700  0.13100  0.96800  1.0000
