data_image0
_chemical_formula_structural       Ir2Mo2Pb3
_chemical_formula_sum              "Ir2 Mo2 Pb3"
_cell_length_a       8.35958
_cell_length_b       8.35958
_cell_length_c       8.35958
_cell_angle_alpha    31.9983
_cell_angle_beta     31.9983
_cell_angle_gamma    31.9983

_space_group_name_H-M_alt    "P 1"
_space_group_IT_number       1

loop_
  _space_group_symop_operation_xyz
  'x, y, z'

loop_
  _atom_site_type_symbol
  _atom_site_label
  _atom_site_symmetry_multiplicity
  _atom_site_fract_x
  _atom_site_fract_y
  _atom_site_fract_z
  _atom_site_occupancy
  Ir  Ir1       1.0  0.00532  0.00532  0.00532  1.0000
  Ir  Ir2       1.0  0.50300  0.50300  0.50300  1.0000
  Mo  Mo1       1.0  0.24600  0.24600  0.24600  1.0000
  Mo  Mo2       1.0  0.74700  0.74700  0.74700  1.0000
  Pb  Pb1       1.0  0.38600  0.38600  0.38600  1.0000
  Pb  Pb2       1.0  0.62500  0.62500  0.62500  1.0000
  Pb  Pb3       1.0  0.86300  0.86300  0.86300  1.0000
