data_image0
_chemical_formula_structural       Fe2Mn2Si3
_chemical_formula_sum              "Fe2 Mn2 Si3"
_cell_length_a       6.74267
_cell_length_b       6.74267
_cell_length_c       6.74267
_cell_angle_alpha    33.3467
_cell_angle_beta     33.3467
_cell_angle_gamma    33.3467

_space_group_name_H-M_alt    "P 1"
_space_group_IT_number       1

loop_
  _space_group_symop_operation_xyz
  'x, y, z'

loop_
  _atom_site_type_symbol
  _atom_site_label
  _atom_site_symmetry_multiplicity
  _atom_site_fract_x
  _atom_site_fract_y
  _atom_site_fract_z
  _atom_site_occupancy
  Fe  Fe1       1.0  0.00107  0.00107  0.00107  1.0000
  Fe  Fe2       1.0  0.49600  0.49600  0.49600  1.0000
  Mn  Mn1       1.0  0.24800  0.24800  0.24800  1.0000
  Mn  Mn2       1.0  0.75500  0.75500  0.75500  1.0000
  Si  Si1       1.0  0.37300  0.37300  0.37300  1.0000
  Si  Si2       1.0  0.62400  0.62400  0.62400  1.0000
  Si  Si3       1.0  0.87700  0.87700  0.87700  1.0000
