data_image0
_chemical_formula_structural       Hf3Re2Ru2
_chemical_formula_sum              "Hf3 Re2 Ru2"
_cell_length_a       7.73458
_cell_length_b       7.73458
_cell_length_c       7.73458
_cell_angle_alpha    33.8481
_cell_angle_beta     33.8481
_cell_angle_gamma    33.8481

_space_group_name_H-M_alt    "P 1"
_space_group_IT_number       1

loop_
  _space_group_symop_operation_xyz
  'x, y, z'

loop_
  _atom_site_type_symbol
  _atom_site_label
  _atom_site_symmetry_multiplicity
  _atom_site_fract_x
  _atom_site_fract_y
  _atom_site_fract_z
  _atom_site_occupancy
  Hf  Hf1       1.0  0.37800  0.37800  0.37800  1.0000
  Hf  Hf2       1.0  0.62600  0.62600  0.62600  1.0000
  Hf  Hf3       1.0  0.87300  0.87300  0.87300  1.0000
  Re  Re1       1.0  0.24800  0.24800  0.24800  1.0000
  Re  Re2       1.0  0.75300  0.75300  0.75300  1.0000
  Ru  Ru1       1.0  0.00259  0.00259  0.00259  1.0000
  Ru  Ru2       1.0  0.49600  0.49600  0.49600  1.0000
