data_image0
_chemical_formula_structural       Re2Ru2Ti3
_chemical_formula_sum              "Re2 Ru2 Ti3"
_cell_length_a       7.30779
_cell_length_b       7.30779
_cell_length_c       7.30779
_cell_angle_alpha    34.259
_cell_angle_beta     34.259
_cell_angle_gamma    34.259

_space_group_name_H-M_alt    "P 1"
_space_group_IT_number       1

loop_
  _space_group_symop_operation_xyz
  'x, y, z'

loop_
  _atom_site_type_symbol
  _atom_site_label
  _atom_site_symmetry_multiplicity
  _atom_site_fract_x
  _atom_site_fract_y
  _atom_site_fract_z
  _atom_site_occupancy
  Re  Re1       1.0  0.24700  0.24700  0.24700  1.0000
  Re  Re2       1.0  0.75500  0.75500  0.75500  1.0000
  Ru  Ru1       1.0  0.00307  0.00307  0.00307  1.0000
  Ru  Ru2       1.0  0.49300  0.49300  0.49300  1.0000
  Ti  Ti1       1.0  0.37500  0.37500  0.37500  1.0000
  Ti  Ti2       1.0  0.62600  0.62600  0.62600  1.0000
  Ti  Ti3       1.0  0.87600  0.87600  0.87600  1.0000
