data_image0
_chemical_formula_structural       Pb3Pt2Sb2
_chemical_formula_sum              "Pb3 Pt2 Sb2"
_cell_length_a       9.59481
_cell_length_b       9.59481
_cell_length_c       9.59481
_cell_angle_alpha    28.5573
_cell_angle_beta     28.5573
_cell_angle_gamma    28.5573

_space_group_name_H-M_alt    "P 1"
_space_group_IT_number       1

loop_
  _space_group_symop_operation_xyz
  'x, y, z'

loop_
  _atom_site_type_symbol
  _atom_site_label
  _atom_site_symmetry_multiplicity
  _atom_site_fract_x
  _atom_site_fract_y
  _atom_site_fract_z
  _atom_site_occupancy
  Pb  Pb1       1.0  0.37700  0.37700  0.37700  1.0000
  Pb  Pb2       1.0  0.64000  0.64000  0.64000  1.0000
  Pb  Pb3       1.0  0.90700  0.90700  0.90700  1.0000
  Pt  Pt1       1.0  0.00978  0.00978  0.00978  1.0000
  Pt  Pt2       1.0  0.48100  0.48100  0.48100  1.0000
  Sb  Sb1       1.0  0.18000  0.18000  0.18000  1.0000
  Sb  Sb2       1.0  0.78000  0.78000  0.78000  1.0000
