data_image0
_chemical_formula_structural       Ge3Ir2W2
_chemical_formula_sum              "Ge3 Ir2 W2"
_cell_length_a       7.75821
_cell_length_b       7.75821
_cell_length_c       7.75821
_cell_angle_alpha    31.6792
_cell_angle_beta     31.6792
_cell_angle_gamma    31.6792

_space_group_name_H-M_alt    "P 1"
_space_group_IT_number       1

loop_
  _space_group_symop_operation_xyz
  'x, y, z'

loop_
  _atom_site_type_symbol
  _atom_site_label
  _atom_site_symmetry_multiplicity
  _atom_site_fract_x
  _atom_site_fract_y
  _atom_site_fract_z
  _atom_site_occupancy
  Ge  Ge1       1.0  0.38600  0.38600  0.38600  1.0000
  Ge  Ge2       1.0  0.62200  0.62200  0.62200  1.0000
  Ge  Ge3       1.0  0.86000  0.86000  0.86000  1.0000
  Ir  Ir1       1.0  0.25500  0.25500  0.25500  1.0000
  Ir  Ir2       1.0  0.74400  0.74400  0.74400  1.0000
  W   W1        1.0  0.00818  0.00818  0.00818  1.0000
  W   W2        1.0  0.50000  0.50000  0.50000  1.0000
