data_image0
_chemical_formula_structural       Co2Cr2Ge3
_chemical_formula_sum              "Co2 Cr2 Ge3"
_cell_length_a       7.14901
_cell_length_b       7.14901
_cell_length_c       7.14901
_cell_angle_alpha    33.4467
_cell_angle_beta     33.4467
_cell_angle_gamma    33.4467

_space_group_name_H-M_alt    "P 1"
_space_group_IT_number       1

loop_
  _space_group_symop_operation_xyz
  'x, y, z'

loop_
  _atom_site_type_symbol
  _atom_site_label
  _atom_site_symmetry_multiplicity
  _atom_site_fract_x
  _atom_site_fract_y
  _atom_site_fract_z
  _atom_site_occupancy
  Co  Co1       1.0  0.50800  0.50800  0.50800  1.0000
  Co  Co2       1.0  0.99200  0.99200  0.99200  1.0000
  Cr  Cr1       1.0  0.24700  0.24700  0.24700  1.0000
  Cr  Cr2       1.0  0.74700  0.74700  0.74700  1.0000
  Ge  Ge1       1.0  0.38800  0.38800  0.38800  1.0000
  Ge  Ge2       1.0  0.62700  0.62700  0.62700  1.0000
  Ge  Ge3       1.0  0.86500  0.86500  0.86500  1.0000
