data_image0
_chemical_formula_structural       Fe2Re2Si3
_chemical_formula_sum              "Fe2 Re2 Si3"
_cell_length_a       6.93777
_cell_length_b       6.93777
_cell_length_c       6.93777
_cell_angle_alpha    33.7156
_cell_angle_beta     33.7156
_cell_angle_gamma    33.7156

_space_group_name_H-M_alt    "P 1"
_space_group_IT_number       1

loop_
  _space_group_symop_operation_xyz
  'x, y, z'

loop_
  _atom_site_type_symbol
  _atom_site_label
  _atom_site_symmetry_multiplicity
  _atom_site_fract_x
  _atom_site_fract_y
  _atom_site_fract_z
  _atom_site_occupancy
  Fe  Fe1       1.0  0.25400  0.25400  0.25400  1.0000
  Fe  Fe2       1.0  0.75200  0.75200  0.75200  1.0000
  Re  Re1       1.0  0.00477  0.00477  0.00477  1.0000
  Re  Re2       1.0  0.49500  0.49500  0.49500  1.0000
  Si  Si1       1.0  0.37300  0.37300  0.37300  1.0000
  Si  Si2       1.0  0.62100  0.62100  0.62100  1.0000
  Si  Si3       1.0  0.87500  0.87500  0.87500  1.0000
