data_image0
_chemical_formula_structural       Mo2Rh2Sn3
_chemical_formula_sum              "Mo2 Rh2 Sn3"
_cell_length_a       7.98292
_cell_length_b       7.98292
_cell_length_c       7.98292
_cell_angle_alpha    33.0382
_cell_angle_beta     33.0382
_cell_angle_gamma    33.0382

_space_group_name_H-M_alt    "P 1"
_space_group_IT_number       1

loop_
  _space_group_symop_operation_xyz
  'x, y, z'

loop_
  _atom_site_type_symbol
  _atom_site_label
  _atom_site_symmetry_multiplicity
  _atom_site_fract_x
  _atom_site_fract_y
  _atom_site_fract_z
  _atom_site_occupancy
  Mo  Mo1       1.0  0.24700  0.24700  0.24700  1.0000
  Mo  Mo2       1.0  0.74900  0.74900  0.74900  1.0000
  Rh  Rh1       1.0  0.50600  0.50600  0.50600  1.0000
  Rh  Rh2       1.0  0.99200  0.99200  0.99200  1.0000
  Sn  Sn1       1.0  0.38600  0.38600  0.38600  1.0000
  Sn  Sn2       1.0  0.62700  0.62700  0.62700  1.0000
  Sn  Sn3       1.0  0.86700  0.86700  0.86700  1.0000
