data_image0
_chemical_formula_structural       Cr2Rh2Ti3
_chemical_formula_sum              "Cr2 Rh2 Ti3"
_cell_length_a       7.43315
_cell_length_b       7.43315
_cell_length_c       7.43315
_cell_angle_alpha    32.9783
_cell_angle_beta     32.9783
_cell_angle_gamma    32.9783

_space_group_name_H-M_alt    "P 1"
_space_group_IT_number       1

loop_
  _space_group_symop_operation_xyz
  'x, y, z'

loop_
  _atom_site_type_symbol
  _atom_site_label
  _atom_site_symmetry_multiplicity
  _atom_site_fract_x
  _atom_site_fract_y
  _atom_site_fract_z
  _atom_site_occupancy
  Cr  Cr1       1.0  0.24900  0.24900  0.24900  1.0000
  Cr  Cr2       1.0  0.75500  0.75500  0.75500  1.0000
  Rh  Rh1       1.0  0.00182  0.00182  0.00182  1.0000
  Rh  Rh2       1.0  0.49600  0.49600  0.49600  1.0000
  Ti  Ti1       1.0  0.37700  0.37700  0.37700  1.0000
  Ti  Ti2       1.0  0.62200  0.62200  0.62200  1.0000
  Ti  Ti3       1.0  0.87500  0.87500  0.87500  1.0000
