data_image0
_chemical_formula_structural       Co2Cr2Zr3
_chemical_formula_sum              "Co2 Cr2 Zr3"
_cell_length_a       7.70647
_cell_length_b       7.70647
_cell_length_c       7.70647
_cell_angle_alpha    33.7701
_cell_angle_beta     33.7701
_cell_angle_gamma    33.7701

_space_group_name_H-M_alt    "P 1"
_space_group_IT_number       1

loop_
  _space_group_symop_operation_xyz
  'x, y, z'

loop_
  _atom_site_type_symbol
  _atom_site_label
  _atom_site_symmetry_multiplicity
  _atom_site_fract_x
  _atom_site_fract_y
  _atom_site_fract_z
  _atom_site_occupancy
  Co  Co1       1.0  0.50800  0.50800  0.50800  1.0000
  Co  Co2       1.0  0.99600  0.99600  0.99600  1.0000
  Cr  Cr1       1.0  0.24400  0.24400  0.24400  1.0000
  Cr  Cr2       1.0  0.75000  0.75000  0.75000  1.0000
  Zr  Zr1       1.0  0.38400  0.38400  0.38400  1.0000
  Zr  Zr2       1.0  0.62600  0.62600  0.62600  1.0000
  Zr  Zr3       1.0  0.86800  0.86800  0.86800  1.0000
