data_image0
_chemical_formula_structural       Ge3Mo2Rh2
_chemical_formula_sum              "Ge3 Mo2 Rh2"
_cell_length_a       8.02047
_cell_length_b       8.02047
_cell_length_c       8.02047
_cell_angle_alpha    29.8831
_cell_angle_beta     29.8831
_cell_angle_gamma    29.8831

_space_group_name_H-M_alt    "P 1"
_space_group_IT_number       1

loop_
  _space_group_symop_operation_xyz
  'x, y, z'

loop_
  _atom_site_type_symbol
  _atom_site_label
  _atom_site_symmetry_multiplicity
  _atom_site_fract_x
  _atom_site_fract_y
  _atom_site_fract_z
  _atom_site_occupancy
  Ge  Ge1       1.0  0.38800  0.38800  0.38800  1.0000
  Ge  Ge2       1.0  0.63000  0.63000  0.63000  1.0000
  Ge  Ge3       1.0  0.86100  0.86100  0.86100  1.0000
  Mo  Mo1       1.0  0.24600  0.24600  0.24600  1.0000
  Mo  Mo2       1.0  0.75100  0.75100  0.75100  1.0000
  Rh  Rh1       1.0  0.50000  0.50000  0.50000  1.0000
  Rh  Rh2       1.0  0.99900  0.99900  0.99900  1.0000
