data_image0
_chemical_formula_structural       Os2Re2Zr3
_chemical_formula_sum              "Os2 Re2 Zr3"
_cell_length_a       7.82259
_cell_length_b       7.82259
_cell_length_c       7.82259
_cell_angle_alpha    33.8175
_cell_angle_beta     33.8175
_cell_angle_gamma    33.8175

_space_group_name_H-M_alt    "P 1"
_space_group_IT_number       1

loop_
  _space_group_symop_operation_xyz
  'x, y, z'

loop_
  _atom_site_type_symbol
  _atom_site_label
  _atom_site_symmetry_multiplicity
  _atom_site_fract_x
  _atom_site_fract_y
  _atom_site_fract_z
  _atom_site_occupancy
  Os  Os1       1.0  0.00133  0.00133  0.00133  1.0000
  Os  Os2       1.0  0.49700  0.49700  0.49700  1.0000
  Re  Re1       1.0  0.24800  0.24800  0.24800  1.0000
  Re  Re2       1.0  0.75300  0.75300  0.75300  1.0000
  Zr  Zr1       1.0  0.37800  0.37800  0.37800  1.0000
  Zr  Zr2       1.0  0.62500  0.62500  0.62500  1.0000
  Zr  Zr3       1.0  0.87200  0.87200  0.87200  1.0000
