data_image0
_chemical_formula_structural       Co2Hf3W2
_chemical_formula_sum              "Co2 Hf3 W2"
_cell_length_a       7.70411
_cell_length_b       7.70411
_cell_length_c       7.70411
_cell_angle_alpha    33.7527
_cell_angle_beta     33.7527
_cell_angle_gamma    33.7527

_space_group_name_H-M_alt    "P 1"
_space_group_IT_number       1

loop_
  _space_group_symop_operation_xyz
  'x, y, z'

loop_
  _atom_site_type_symbol
  _atom_site_label
  _atom_site_symmetry_multiplicity
  _atom_site_fract_x
  _atom_site_fract_y
  _atom_site_fract_z
  _atom_site_occupancy
  Co  Co1       1.0  0.24800  0.24800  0.24800  1.0000
  Co  Co2       1.0  0.76100  0.76100  0.76100  1.0000
  Hf  Hf1       1.0  0.37300  0.37300  0.37300  1.0000
  Hf  Hf2       1.0  0.62200  0.62200  0.62200  1.0000
  Hf  Hf3       1.0  0.87400  0.87400  0.87400  1.0000
  W   W1        1.0  0.00612  0.00612  0.00612  1.0000
  W   W2        1.0  0.49100  0.49100  0.49100  1.0000
