data_image0
_chemical_formula_structural       Os2Re2Si3
_chemical_formula_sum              "Os2 Re2 Si3"
_cell_length_a       7.19514
_cell_length_b       7.19514
_cell_length_c       7.19514
_cell_angle_alpha    33.3044
_cell_angle_beta     33.3044
_cell_angle_gamma    33.3044

_space_group_name_H-M_alt    "P 1"
_space_group_IT_number       1

loop_
  _space_group_symop_operation_xyz
  'x, y, z'

loop_
  _atom_site_type_symbol
  _atom_site_label
  _atom_site_symmetry_multiplicity
  _atom_site_fract_x
  _atom_site_fract_y
  _atom_site_fract_z
  _atom_site_occupancy
  Os  Os1       1.0  0.50200  0.50200  0.50200  1.0000
  Os  Os2       1.0  0.99500  0.99500  0.99500  1.0000
  Re  Re1       1.0  0.24900  0.24900  0.24900  1.0000
  Re  Re2       1.0  0.75000  0.75000  0.75000  1.0000
  Si  Si1       1.0  0.38100  0.38100  0.38100  1.0000
  Si  Si2       1.0  0.62600  0.62600  0.62600  1.0000
  Si  Si3       1.0  0.87100  0.87100  0.87100  1.0000
