data_image0
_chemical_formula_structural       Co2W2Zr3
_chemical_formula_sum              "Co2 W2 Zr3"
_cell_length_a       7.7292
_cell_length_b       7.7292
_cell_length_c       7.7292
_cell_angle_alpha    33.9678
_cell_angle_beta     33.9678
_cell_angle_gamma    33.9678

_space_group_name_H-M_alt    "P 1"
_space_group_IT_number       1

loop_
  _space_group_symop_operation_xyz
  'x, y, z'

loop_
  _atom_site_type_symbol
  _atom_site_label
  _atom_site_symmetry_multiplicity
  _atom_site_fract_x
  _atom_site_fract_y
  _atom_site_fract_z
  _atom_site_occupancy
  Co  Co1       1.0  0.24700  0.24700  0.24700  1.0000
  Co  Co2       1.0  0.75700  0.75700  0.75700  1.0000
  W   W1        1.0  0.00464  0.00464  0.00464  1.0000
  W   W2        1.0  0.49600  0.49600  0.49600  1.0000
  Zr  Zr1       1.0  0.37600  0.37600  0.37600  1.0000
  Zr  Zr2       1.0  0.62300  0.62300  0.62300  1.0000
  Zr  Zr3       1.0  0.87200  0.87200  0.87200  1.0000
