data_image0
_chemical_formula_structural       Fe2Ge3Re2
_chemical_formula_sum              "Fe2 Ge3 Re2"
_cell_length_a       7.29817
_cell_length_b       7.29817
_cell_length_c       7.29817
_cell_angle_alpha    32.9539
_cell_angle_beta     32.9539
_cell_angle_gamma    32.9539

_space_group_name_H-M_alt    "P 1"
_space_group_IT_number       1

loop_
  _space_group_symop_operation_xyz
  'x, y, z'

loop_
  _atom_site_type_symbol
  _atom_site_label
  _atom_site_symmetry_multiplicity
  _atom_site_fract_x
  _atom_site_fract_y
  _atom_site_fract_z
  _atom_site_occupancy
  Fe  Fe1       1.0  0.25600  0.25600  0.25600  1.0000
  Fe  Fe2       1.0  0.75000  0.75000  0.75000  1.0000
  Ge  Ge1       1.0  0.38000  0.38000  0.38000  1.0000
  Ge  Ge2       1.0  0.62300  0.62300  0.62300  1.0000
  Ge  Ge3       1.0  0.86900  0.86900  0.86900  1.0000
  Re  Re1       1.0  0.49900  0.49900  0.49900  1.0000
  Re  Re2       1.0  0.99700  0.99700  0.99700  1.0000
