data_image0
_chemical_formula_structural       Ir2Pb3W2
_chemical_formula_sum              "Ir2 Pb3 W2"
_cell_length_a       8.32138
_cell_length_b       8.32138
_cell_length_c       8.32138
_cell_angle_alpha    32.3443
_cell_angle_beta     32.3443
_cell_angle_gamma    32.3443

_space_group_name_H-M_alt    "P 1"
_space_group_IT_number       1

loop_
  _space_group_symop_operation_xyz
  'x, y, z'

loop_
  _atom_site_type_symbol
  _atom_site_label
  _atom_site_symmetry_multiplicity
  _atom_site_fract_x
  _atom_site_fract_y
  _atom_site_fract_z
  _atom_site_occupancy
  Ir  Ir1       1.0  0.24100  0.24100  0.24100  1.0000
  Ir  Ir2       1.0  0.74400  0.74400  0.74400  1.0000
  Pb  Pb1       1.0  0.38800  0.38800  0.38800  1.0000
  Pb  Pb2       1.0  0.62600  0.62600  0.62600  1.0000
  Pb  Pb3       1.0  0.86300  0.86300  0.86300  1.0000
  W   W1        1.0  0.00775  0.00775  0.00775  1.0000
  W   W2        1.0  0.50500  0.50500  0.50500  1.0000
