data_image0
_chemical_formula_structural       Cr2Ge3Ir2
_chemical_formula_sum              "Cr2 Ge3 Ir2"
_cell_length_a       7.73551
_cell_length_b       7.73551
_cell_length_c       7.73551
_cell_angle_alpha    30.9314
_cell_angle_beta     30.9314
_cell_angle_gamma    30.9314

_space_group_name_H-M_alt    "P 1"
_space_group_IT_number       1

loop_
  _space_group_symop_operation_xyz
  'x, y, z'

loop_
  _atom_site_type_symbol
  _atom_site_label
  _atom_site_symmetry_multiplicity
  _atom_site_fract_x
  _atom_site_fract_y
  _atom_site_fract_z
  _atom_site_occupancy
  Cr  Cr1       1.0  0.24900  0.24900  0.24900  1.0000
  Cr  Cr2       1.0  0.74900  0.74900  0.74900  1.0000
  Ge  Ge1       1.0  0.38700  0.38700  0.38700  1.0000
  Ge  Ge2       1.0  0.62500  0.62500  0.62500  1.0000
  Ge  Ge3       1.0  0.86000  0.86000  0.86000  1.0000
  Ir  Ir1       1.0  0.00303  0.00303  0.00303  1.0000
  Ir  Ir2       1.0  0.50100  0.50100  0.50100  1.0000
