data_image0
_chemical_formula_structural       Hf3Mn2Ru2
_chemical_formula_sum              "Hf3 Mn2 Ru2"
_cell_length_a       7.7005
_cell_length_b       7.7005
_cell_length_c       7.7005
_cell_angle_alpha    33.6269
_cell_angle_beta     33.6269
_cell_angle_gamma    33.6269

_space_group_name_H-M_alt    "P 1"
_space_group_IT_number       1

loop_
  _space_group_symop_operation_xyz
  'x, y, z'

loop_
  _atom_site_type_symbol
  _atom_site_label
  _atom_site_symmetry_multiplicity
  _atom_site_fract_x
  _atom_site_fract_y
  _atom_site_fract_z
  _atom_site_occupancy
  Hf  Hf1       1.0  0.38000  0.38000  0.38000  1.0000
  Hf  Hf2       1.0  0.62400  0.62400  0.62400  1.0000
  Hf  Hf3       1.0  0.87000  0.87000  0.87000  1.0000
  Mn  Mn1       1.0  0.24700  0.24700  0.24700  1.0000
  Mn  Mn2       1.0  0.75100  0.75100  0.75100  1.0000
  Ru  Ru1       1.0  0.00000  0.00000  0.00000  1.0000
  Ru  Ru2       1.0  0.50300  0.50300  0.50300  1.0000
