data_image0
_chemical_formula_structural       Cr2Pb3Rh2
_chemical_formula_sum              "Cr2 Pb3 Rh2"
_cell_length_a       8.13509
_cell_length_b       8.13509
_cell_length_c       8.13509
_cell_angle_alpha    33.0753
_cell_angle_beta     33.0753
_cell_angle_gamma    33.0753

_space_group_name_H-M_alt    "P 1"
_space_group_IT_number       1

loop_
  _space_group_symop_operation_xyz
  'x, y, z'

loop_
  _atom_site_type_symbol
  _atom_site_label
  _atom_site_symmetry_multiplicity
  _atom_site_fract_x
  _atom_site_fract_y
  _atom_site_fract_z
  _atom_site_occupancy
  Cr  Cr1       1.0  0.24200  0.24200  0.24200  1.0000
  Cr  Cr2       1.0  0.74800  0.74800  0.74800  1.0000
  Pb  Pb1       1.0  0.38600  0.38600  0.38600  1.0000
  Pb  Pb2       1.0  0.62700  0.62700  0.62700  1.0000
  Pb  Pb3       1.0  0.86500  0.86500  0.86500  1.0000
  Rh  Rh1       1.0  0.50700  0.50700  0.50700  1.0000
  Rh  Rh2       1.0  0.99800  0.99800  0.99800  1.0000
