data_image0
_chemical_formula_structural       F30K6Tb6
_chemical_formula_sum              "F30 K6 Tb6"
_cell_length_a       7.17798
_cell_length_b       8.352
_cell_length_c       10.7214
_cell_angle_alpha    78.2931
_cell_angle_beta     74.44
_cell_angle_gamma    69.6039

_space_group_name_H-M_alt    "P 1"
_space_group_IT_number       1

loop_
  _space_group_symop_operation_xyz
  'x, y, z'

loop_
  _atom_site_type_symbol
  _atom_site_label
  _atom_site_symmetry_multiplicity
  _atom_site_fract_x
  _atom_site_fract_y
  _atom_site_fract_z
  _atom_site_occupancy
  F   F1        1.0  0.64400  0.47300  0.02100  1.0000
  F   F2        1.0  0.32600  0.12200  0.06970  1.0000
  F   F3        1.0  0.01130  0.40900  0.11000  1.0000
  F   F4        1.0  0.02540  0.74200  0.11800  1.0000
  F   F5        1.0  0.42600  0.74800  0.13400  1.0000
  F   F6        1.0  0.02370  0.96400  0.16700  1.0000
  F   F7        1.0  0.63900  0.88500  0.20700  1.0000
  F   F8        1.0  0.68500  0.55200  0.28500  1.0000
  F   F9        1.0  0.66500  0.21100  0.28500  1.0000
  F   F10       1.0  0.39100  0.18100  0.30800  1.0000
  F   F11       1.0  0.02240  0.14500  0.35700  1.0000
  F   F12       1.0  0.16100  0.75700  0.37400  1.0000
  F   F13       1.0  0.99800  0.45400  0.42200  1.0000
  F   F14       1.0  0.37200  0.89000  0.45700  1.0000
  F   F15       1.0  0.39600  0.43000  0.45800  1.0000
  F   F16       1.0  0.60400  0.57000  0.54200  1.0000
  F   F17       1.0  0.62800  0.11000  0.54300  1.0000
  F   F18       1.0  0.00202  0.54600  0.57800  1.0000
  F   F19       1.0  0.83900  0.24300  0.62600  1.0000
  F   F20       1.0  0.97800  0.85500  0.64300  1.0000
  F   F21       1.0  0.60900  0.81900  0.69200  1.0000
  F   F22       1.0  0.33500  0.78900  0.71500  1.0000
  F   F23       1.0  0.31500  0.44800  0.71500  1.0000
  F   F24       1.0  0.36100  0.11500  0.79300  1.0000
  F   F25       1.0  0.97600  0.03570  0.83300  1.0000
  F   F26       1.0  0.57400  0.25200  0.86600  1.0000
  F   F27       1.0  0.97500  0.25800  0.88200  1.0000
  F   F28       1.0  0.98900  0.59100  0.89000  1.0000
  F   F29       1.0  0.67500  0.87800  0.93000  1.0000
  F   F30       1.0  0.35600  0.52700  0.97900  1.0000
  K   K1        1.0  0.72100  0.13900  0.06240  1.0000
  K   K2        1.0  0.29100  0.49600  0.23500  1.0000
  K   K3        1.0  0.76900  0.82600  0.42300  1.0000
  K   K4        1.0  0.23100  0.17400  0.57700  1.0000
  K   K5        1.0  0.70900  0.50400  0.76500  1.0000
  K   K6        1.0  0.27900  0.86100  0.93800  1.0000
  Tb  Tb1       1.0  0.76700  0.66500  0.08320  1.0000
  Tb  Tb2       1.0  0.29900  0.95900  0.26000  1.0000
  Tb  Tb3       1.0  0.73300  0.33500  0.43900  1.0000
  Tb  Tb4       1.0  0.26700  0.66500  0.56100  1.0000
  Tb  Tb5       1.0  0.70100  0.04090  0.74000  1.0000
  Tb  Tb6       1.0  0.23300  0.33500  0.91700  1.0000
