data_image0
_chemical_formula_structural       Ir2Mo2Sn3
_chemical_formula_sum              "Ir2 Mo2 Sn3"
_cell_length_a       8.00537
_cell_length_b       8.00537
_cell_length_c       8.00537
_cell_angle_alpha    32.8573
_cell_angle_beta     32.8573
_cell_angle_gamma    32.8573

_space_group_name_H-M_alt    "P 1"
_space_group_IT_number       1

loop_
  _space_group_symop_operation_xyz
  'x, y, z'

loop_
  _atom_site_type_symbol
  _atom_site_label
  _atom_site_symmetry_multiplicity
  _atom_site_fract_x
  _atom_site_fract_y
  _atom_site_fract_z
  _atom_site_occupancy
  Ir  Ir1       1.0  0.00015  0.00015  0.00015  1.0000
  Ir  Ir2       1.0  0.50400  0.50400  0.50400  1.0000
  Mo  Mo1       1.0  0.24800  0.24800  0.24800  1.0000
  Mo  Mo2       1.0  0.74800  0.74800  0.74800  1.0000
  Sn  Sn1       1.0  0.38400  0.38400  0.38400  1.0000
  Sn  Sn2       1.0  0.62500  0.62500  0.62500  1.0000
  Sn  Sn3       1.0  0.86600  0.86600  0.86600  1.0000
