data_image0
_chemical_formula_structural       Cr2Ge3Rh2
_chemical_formula_sum              "Cr2 Ge3 Rh2"
_cell_length_a       7.72262
_cell_length_b       7.72262
_cell_length_c       7.72262
_cell_angle_alpha    31.011
_cell_angle_beta     31.011
_cell_angle_gamma    31.011

_space_group_name_H-M_alt    "P 1"
_space_group_IT_number       1

loop_
  _space_group_symop_operation_xyz
  'x, y, z'

loop_
  _atom_site_type_symbol
  _atom_site_label
  _atom_site_symmetry_multiplicity
  _atom_site_fract_x
  _atom_site_fract_y
  _atom_site_fract_z
  _atom_site_occupancy
  Cr  Cr1       1.0  0.25000  0.25000  0.25000  1.0000
  Cr  Cr2       1.0  0.74800  0.74800  0.74800  1.0000
  Ge  Ge1       1.0  0.38600  0.38600  0.38600  1.0000
  Ge  Ge2       1.0  0.62400  0.62400  0.62400  1.0000
  Ge  Ge3       1.0  0.86200  0.86200  0.86200  1.0000
  Rh  Rh1       1.0  0.00271  0.00271  0.00271  1.0000
  Rh  Rh2       1.0  0.50100  0.50100  0.50100  1.0000
