data_image0
_chemical_formula_structural       Ho4Mo8O30
_chemical_formula_sum              "Ho4 Mo8 O30"
_cell_length_a       6.73598
_cell_length_b       9.55662
_cell_length_c       10.4444
_cell_angle_alpha    90
_cell_angle_beta     105.769
_cell_angle_gamma    90

_space_group_name_H-M_alt    "P 1"
_space_group_IT_number       1

loop_
  _space_group_symop_operation_xyz
  'x, y, z'

loop_
  _atom_site_type_symbol
  _atom_site_label
  _atom_site_symmetry_multiplicity
  _atom_site_fract_x
  _atom_site_fract_y
  _atom_site_fract_z
  _atom_site_occupancy
  Ho  Ho1       1.0  0.78300  0.52300  0.22100  1.0000
  Ho  Ho2       1.0  0.21700  0.02260  0.27900  1.0000
  Ho  Ho3       1.0  0.78300  0.97700  0.72100  1.0000
  Ho  Ho4       1.0  0.21700  0.47700  0.77900  1.0000
  Mo  Mo1       1.0  0.08280  0.74400  0.01140  1.0000
  Mo  Mo2       1.0  0.62100  0.90300  0.15900  1.0000
  Mo  Mo3       1.0  0.37900  0.40300  0.34100  1.0000
  Mo  Mo4       1.0  0.91700  0.24400  0.48900  1.0000
  Mo  Mo5       1.0  0.08280  0.75600  0.51100  1.0000
  Mo  Mo6       1.0  0.62100  0.59700  0.65900  1.0000
  Mo  Mo7       1.0  0.37900  0.09660  0.84100  1.0000
  Mo  Mo8       1.0  0.91700  0.25600  0.98900  1.0000
  O   O1        1.0  0.50000  0.00000  0.00000  1.0000
  O   O2        1.0  0.77200  0.34400  0.08250  1.0000
  O   O3        1.0  0.12500  0.16800  0.10100  1.0000
  O   O4        1.0  0.98000  0.62200  0.10400  1.0000
  O   O5        1.0  0.25100  0.86700  0.12000  1.0000
  O   O6        1.0  0.60800  0.72000  0.14500  1.0000
  O   O7        1.0  0.88500  0.94100  0.18200  1.0000
  O   O8        1.0  0.43700  0.47100  0.19800  1.0000
  O   O9        1.0  0.56300  0.97100  0.30200  1.0000
  O   O10       1.0  0.11500  0.44100  0.31800  1.0000
  O   O11       1.0  0.39200  0.22000  0.35500  1.0000
  O   O12       1.0  0.74900  0.36700  0.38000  1.0000
  O   O13       1.0  0.01980  0.12200  0.39600  1.0000
  O   O14       1.0  0.87500  0.66800  0.39900  1.0000
  O   O15       1.0  0.22800  0.84400  0.41700  1.0000
  O   O16       1.0  0.50000  0.50000  0.50000  1.0000
  O   O17       1.0  0.77200  0.15600  0.58300  1.0000
  O   O18       1.0  0.12500  0.33200  0.60100  1.0000
  O   O19       1.0  0.98000  0.87800  0.60400  1.0000
  O   O20       1.0  0.25100  0.63300  0.62000  1.0000
  O   O21       1.0  0.60800  0.78000  0.64500  1.0000
  O   O22       1.0  0.88500  0.55900  0.68200  1.0000
  O   O23       1.0  0.43700  0.02930  0.69800  1.0000
  O   O24       1.0  0.56300  0.52900  0.80200  1.0000
  O   O25       1.0  0.11500  0.05850  0.81800  1.0000
  O   O26       1.0  0.39200  0.28000  0.85500  1.0000
  O   O27       1.0  0.74900  0.13300  0.88000  1.0000
  O   O28       1.0  0.01980  0.37800  0.89600  1.0000
  O   O29       1.0  0.87500  0.83200  0.89900  1.0000
  O   O30       1.0  0.22800  0.65600  0.91700  1.0000
