data_image0
_chemical_formula_structural       Re2Ru2Zr3
_chemical_formula_sum              "Re2 Ru2 Zr3"
_cell_length_a       7.79366
_cell_length_b       7.79366
_cell_length_c       7.79366
_cell_angle_alpha    33.9061
_cell_angle_beta     33.9061
_cell_angle_gamma    33.9061

_space_group_name_H-M_alt    "P 1"
_space_group_IT_number       1

loop_
  _space_group_symop_operation_xyz
  'x, y, z'

loop_
  _atom_site_type_symbol
  _atom_site_label
  _atom_site_symmetry_multiplicity
  _atom_site_fract_x
  _atom_site_fract_y
  _atom_site_fract_z
  _atom_site_occupancy
  Re  Re1       1.0  0.24800  0.24800  0.24800  1.0000
  Re  Re2       1.0  0.75100  0.75100  0.75100  1.0000
  Ru  Ru1       1.0  0.00264  0.00264  0.00264  1.0000
  Ru  Ru2       1.0  0.49700  0.49700  0.49700  1.0000
  Zr  Zr1       1.0  0.37900  0.37900  0.37900  1.0000
  Zr  Zr2       1.0  0.62600  0.62600  0.62600  1.0000
  Zr  Zr3       1.0  0.87100  0.87100  0.87100  1.0000
