data_image0
_chemical_formula_structural       Mn2Os2Ti3
_chemical_formula_sum              "Mn2 Os2 Ti3"
_cell_length_a       7.36797
_cell_length_b       7.36797
_cell_length_c       7.36797
_cell_angle_alpha    33.3063
_cell_angle_beta     33.3063
_cell_angle_gamma    33.3063

_space_group_name_H-M_alt    "P 1"
_space_group_IT_number       1

loop_
  _space_group_symop_operation_xyz
  'x, y, z'

loop_
  _atom_site_type_symbol
  _atom_site_label
  _atom_site_symmetry_multiplicity
  _atom_site_fract_x
  _atom_site_fract_y
  _atom_site_fract_z
  _atom_site_occupancy
  Mn  Mn1       1.0  0.24700  0.24700  0.24700  1.0000
  Mn  Mn2       1.0  0.75500  0.75500  0.75500  1.0000
  Os  Os1       1.0  0.00088  0.00088  0.00088  1.0000
  Os  Os2       1.0  0.49800  0.49800  0.49800  1.0000
  Ti  Ti1       1.0  0.37600  0.37600  0.37600  1.0000
  Ti  Ti2       1.0  0.62300  0.62300  0.62300  1.0000
  Ti  Ti3       1.0  0.87400  0.87400  0.87400  1.0000
