data_image0
_chemical_formula_structural       Cr2Ir2Pb3
_chemical_formula_sum              "Cr2 Ir2 Pb3"
_cell_length_a       8.15917
_cell_length_b       8.15917
_cell_length_c       8.15917
_cell_angle_alpha    33.0984
_cell_angle_beta     33.0984
_cell_angle_gamma    33.0984

_space_group_name_H-M_alt    "P 1"
_space_group_IT_number       1

loop_
  _space_group_symop_operation_xyz
  'x, y, z'

loop_
  _atom_site_type_symbol
  _atom_site_label
  _atom_site_symmetry_multiplicity
  _atom_site_fract_x
  _atom_site_fract_y
  _atom_site_fract_z
  _atom_site_occupancy
  Cr  Cr1       1.0  0.24000  0.24000  0.24000  1.0000
  Cr  Cr2       1.0  0.74900  0.74900  0.74900  1.0000
  Ir  Ir1       1.0  0.50800  0.50800  0.50800  1.0000
  Ir  Ir2       1.0  0.99800  0.99800  0.99800  1.0000
  Pb  Pb1       1.0  0.38700  0.38700  0.38700  1.0000
  Pb  Pb2       1.0  0.62700  0.62700  0.62700  1.0000
  Pb  Pb3       1.0  0.86600  0.86600  0.86600  1.0000
