data_image0
_chemical_formula_structural       Mo2Pb3Rh2
_chemical_formula_sum              "Mo2 Pb3 Rh2"
_cell_length_a       8.28278
_cell_length_b       8.28278
_cell_length_c       8.28278
_cell_angle_alpha    32.3709
_cell_angle_beta     32.3709
_cell_angle_gamma    32.3709

_space_group_name_H-M_alt    "P 1"
_space_group_IT_number       1

loop_
  _space_group_symop_operation_xyz
  'x, y, z'

loop_
  _atom_site_type_symbol
  _atom_site_label
  _atom_site_symmetry_multiplicity
  _atom_site_fract_x
  _atom_site_fract_y
  _atom_site_fract_z
  _atom_site_occupancy
  Mo  Mo1       1.0  0.24800  0.24800  0.24800  1.0000
  Mo  Mo2       1.0  0.74700  0.74700  0.74700  1.0000
  Pb  Pb1       1.0  0.38500  0.38500  0.38500  1.0000
  Pb  Pb2       1.0  0.62500  0.62500  0.62500  1.0000
  Pb  Pb3       1.0  0.86400  0.86400  0.86400  1.0000
  Rh  Rh1       1.0  0.00303  0.00303  0.00303  1.0000
  Rh  Rh2       1.0  0.50300  0.50300  0.50300  1.0000
