data_image0
_chemical_formula_structural       Co2Cr2Sn3
_chemical_formula_sum              "Co2 Cr2 Sn3"
_cell_length_a       7.75892
_cell_length_b       7.75892
_cell_length_c       7.75892
_cell_angle_alpha    33.2197
_cell_angle_beta     33.2197
_cell_angle_gamma    33.2197

_space_group_name_H-M_alt    "P 1"
_space_group_IT_number       1

loop_
  _space_group_symop_operation_xyz
  'x, y, z'

loop_
  _atom_site_type_symbol
  _atom_site_label
  _atom_site_symmetry_multiplicity
  _atom_site_fract_x
  _atom_site_fract_y
  _atom_site_fract_z
  _atom_site_occupancy
  Co  Co1       1.0  0.50900  0.50900  0.50900  1.0000
  Co  Co2       1.0  0.99500  0.99500  0.99500  1.0000
  Cr  Cr1       1.0  0.24300  0.24300  0.24300  1.0000
  Cr  Cr2       1.0  0.74900  0.74900  0.74900  1.0000
  Sn  Sn1       1.0  0.38700  0.38700  0.38700  1.0000
  Sn  Sn2       1.0  0.62700  0.62700  0.62700  1.0000
  Sn  Sn3       1.0  0.86600  0.86600  0.86600  1.0000
