data_image0
_chemical_formula_structural       Co2Cr2Si3
_chemical_formula_sum              "Co2 Cr2 Si3"
_cell_length_a       6.86688
_cell_length_b       6.86688
_cell_length_c       6.86688
_cell_angle_alpha    33.2738
_cell_angle_beta     33.2738
_cell_angle_gamma    33.2738

_space_group_name_H-M_alt    "P 1"
_space_group_IT_number       1

loop_
  _space_group_symop_operation_xyz
  'x, y, z'

loop_
  _atom_site_type_symbol
  _atom_site_label
  _atom_site_symmetry_multiplicity
  _atom_site_fract_x
  _atom_site_fract_y
  _atom_site_fract_z
  _atom_site_occupancy
  Co  Co1       1.0  0.50200  0.50200  0.50200  1.0000
  Co  Co2       1.0  0.99700  0.99700  0.99700  1.0000
  Cr  Cr1       1.0  0.24800  0.24800  0.24800  1.0000
  Cr  Cr2       1.0  0.75300  0.75300  0.75300  1.0000
  Si  Si1       1.0  0.37900  0.37900  0.37900  1.0000
  Si  Si2       1.0  0.62400  0.62400  0.62400  1.0000
  Si  Si3       1.0  0.87200  0.87200  0.87200  1.0000
