data_image0
_chemical_formula_structural       Fe2Re2Ti3
_chemical_formula_sum              "Fe2 Re2 Ti3"
_cell_length_a       7.14675
_cell_length_b       7.14675
_cell_length_c       7.14675
_cell_angle_alpha    34.3573
_cell_angle_beta     34.3573
_cell_angle_gamma    34.3573

_space_group_name_H-M_alt    "P 1"
_space_group_IT_number       1

loop_
  _space_group_symop_operation_xyz
  'x, y, z'

loop_
  _atom_site_type_symbol
  _atom_site_label
  _atom_site_symmetry_multiplicity
  _atom_site_fract_x
  _atom_site_fract_y
  _atom_site_fract_z
  _atom_site_occupancy
  Fe  Fe1       1.0  0.24800  0.24800  0.24800  1.0000
  Fe  Fe2       1.0  0.75800  0.75800  0.75800  1.0000
  Re  Re1       1.0  0.00425  0.00425  0.00425  1.0000
  Re  Re2       1.0  0.49400  0.49400  0.49400  1.0000
  Ti  Ti1       1.0  0.37400  0.37400  0.37400  1.0000
  Ti  Ti2       1.0  0.62300  0.62300  0.62300  1.0000
  Ti  Ti3       1.0  0.87400  0.87400  0.87400  1.0000
