data_image0
_chemical_formula_structural       Cr2Ir2Sn3
_chemical_formula_sum              "Cr2 Ir2 Sn3"
_cell_length_a       7.91379
_cell_length_b       7.91379
_cell_length_c       7.91379
_cell_angle_alpha    33.2991
_cell_angle_beta     33.2991
_cell_angle_gamma    33.2991

_space_group_name_H-M_alt    "P 1"
_space_group_IT_number       1

loop_
  _space_group_symop_operation_xyz
  'x, y, z'

loop_
  _atom_site_type_symbol
  _atom_site_label
  _atom_site_symmetry_multiplicity
  _atom_site_fract_x
  _atom_site_fract_y
  _atom_site_fract_z
  _atom_site_occupancy
  Cr  Cr1       1.0  0.24200  0.24200  0.24200  1.0000
  Cr  Cr2       1.0  0.74900  0.74900  0.74900  1.0000
  Ir  Ir1       1.0  0.50800  0.50800  0.50800  1.0000
  Ir  Ir2       1.0  0.99500  0.99500  0.99500  1.0000
  Sn  Sn1       1.0  0.38600  0.38600  0.38600  1.0000
  Sn  Sn2       1.0  0.62700  0.62700  0.62700  1.0000
  Sn  Sn3       1.0  0.86600  0.86600  0.86600  1.0000
