data_image0
_chemical_formula_structural       Co2Cr2Hf3
_chemical_formula_sum              "Co2 Cr2 Hf3"
_cell_length_a       7.59675
_cell_length_b       7.59675
_cell_length_c       7.59675
_cell_angle_alpha    33.7774
_cell_angle_beta     33.7774
_cell_angle_gamma    33.7774

_space_group_name_H-M_alt    "P 1"
_space_group_IT_number       1

loop_
  _space_group_symop_operation_xyz
  'x, y, z'

loop_
  _atom_site_type_symbol
  _atom_site_label
  _atom_site_symmetry_multiplicity
  _atom_site_fract_x
  _atom_site_fract_y
  _atom_site_fract_z
  _atom_site_occupancy
  Co  Co1       1.0  0.50600  0.50600  0.50600  1.0000
  Co  Co2       1.0  0.99600  0.99600  0.99600  1.0000
  Cr  Cr1       1.0  0.24400  0.24400  0.24400  1.0000
  Cr  Cr2       1.0  0.75100  0.75100  0.75100  1.0000
  Hf  Hf1       1.0  0.38300  0.38300  0.38300  1.0000
  Hf  Hf2       1.0  0.62600  0.62600  0.62600  1.0000
  Hf  Hf3       1.0  0.87000  0.87000  0.87000  1.0000
