data_image0
_chemical_formula_structural       Ge3Ir2Mo2
_chemical_formula_sum              "Ge3 Ir2 Mo2"
_cell_length_a       7.77134
_cell_length_b       7.77134
_cell_length_c       7.77134
_cell_angle_alpha    31.2979
_cell_angle_beta     31.2979
_cell_angle_gamma    31.2979

_space_group_name_H-M_alt    "P 1"
_space_group_IT_number       1

loop_
  _space_group_symop_operation_xyz
  'x, y, z'

loop_
  _atom_site_type_symbol
  _atom_site_label
  _atom_site_symmetry_multiplicity
  _atom_site_fract_x
  _atom_site_fract_y
  _atom_site_fract_z
  _atom_site_occupancy
  Ge  Ge1       1.0  0.38700  0.38700  0.38700  1.0000
  Ge  Ge2       1.0  0.62700  0.62700  0.62700  1.0000
  Ge  Ge3       1.0  0.86300  0.86300  0.86300  1.0000
  Ir  Ir1       1.0  0.50300  0.50300  0.50300  1.0000
  Ir  Ir2       1.0  0.99900  0.99900  0.99900  1.0000
  Mo  Mo1       1.0  0.24600  0.24600  0.24600  1.0000
  Mo  Mo2       1.0  0.75000  0.75000  0.75000  1.0000
