data_image0
_chemical_formula_structural       Co2Hf3Mo2
_chemical_formula_sum              "Co2 Hf3 Mo2"
_cell_length_a       7.61516
_cell_length_b       7.61516
_cell_length_c       7.61516
_cell_angle_alpha    34.1061
_cell_angle_beta     34.1061
_cell_angle_gamma    34.1061

_space_group_name_H-M_alt    "P 1"
_space_group_IT_number       1

loop_
  _space_group_symop_operation_xyz
  'x, y, z'

loop_
  _atom_site_type_symbol
  _atom_site_label
  _atom_site_symmetry_multiplicity
  _atom_site_fract_x
  _atom_site_fract_y
  _atom_site_fract_z
  _atom_site_occupancy
  Co  Co1       1.0  0.25000  0.25000  0.25000  1.0000
  Co  Co2       1.0  0.75400  0.75400  0.75400  1.0000
  Hf  Hf1       1.0  0.37500  0.37500  0.37500  1.0000
  Hf  Hf2       1.0  0.62300  0.62300  0.62300  1.0000
  Hf  Hf3       1.0  0.87200  0.87200  0.87200  1.0000
  Mo  Mo1       1.0  0.00633  0.00633  0.00633  1.0000
  Mo  Mo2       1.0  0.49400  0.49400  0.49400  1.0000
