data_image0
_chemical_formula_structural       Cs8O26U4V4
_chemical_formula_sum              "Cs8 O26 U4 V4"
_cell_length_a       8.52582
_cell_length_b       13.4857
_cell_length_c       7.00446
_cell_angle_alpha    90
_cell_angle_beta     90
_cell_angle_gamma    90

_space_group_name_H-M_alt    "P 1"
_space_group_IT_number       1

loop_
  _space_group_symop_operation_xyz
  'x, y, z'

loop_
  _atom_site_type_symbol
  _atom_site_label
  _atom_site_symmetry_multiplicity
  _atom_site_fract_x
  _atom_site_fract_y
  _atom_site_fract_z
  _atom_site_occupancy
  Cs  Cs1       1.0  0.75000  0.25000  0.11000  1.0000
  Cs  Cs2       1.0  0.25000  0.25000  0.18900  1.0000
  Cs  Cs3       1.0  0.25000  0.55100  0.49400  1.0000
  Cs  Cs4       1.0  0.25000  0.94900  0.49400  1.0000
  Cs  Cs5       1.0  0.75000  0.05070  0.50600  1.0000
  Cs  Cs6       1.0  0.75000  0.44900  0.50600  1.0000
  Cs  Cs7       1.0  0.75000  0.75000  0.81100  1.0000
  Cs  Cs8       1.0  0.25000  0.75000  0.89000  1.0000
  O   O1        1.0  0.75000  0.01640  0.04720  1.0000
  O   O2        1.0  0.75000  0.48400  0.04720  1.0000
  O   O3        1.0  0.00377  0.64600  0.17900  1.0000
  O   O4        1.0  0.49600  0.64600  0.17900  1.0000
  O   O5        1.0  0.00377  0.85400  0.17900  1.0000
  O   O6        1.0  0.49600  0.85400  0.17900  1.0000
  O   O7        1.0  0.03450  0.07160  0.22300  1.0000
  O   O8        1.0  0.46600  0.07160  0.22300  1.0000
  O   O9        1.0  0.03450  0.42800  0.22300  1.0000
  O   O10       1.0  0.46600  0.42800  0.22300  1.0000
  O   O11       1.0  0.75000  0.75000  0.37800  1.0000
  O   O12       1.0  0.56100  0.25000  0.48700  1.0000
  O   O13       1.0  0.93900  0.25000  0.48700  1.0000
  O   O14       1.0  0.06120  0.75000  0.51300  1.0000
  O   O15       1.0  0.43900  0.75000  0.51300  1.0000
  O   O16       1.0  0.25000  0.25000  0.62200  1.0000
  O   O17       1.0  0.53400  0.57200  0.77700  1.0000
  O   O18       1.0  0.96600  0.57200  0.77700  1.0000
  O   O19       1.0  0.53400  0.92800  0.77700  1.0000
  O   O20       1.0  0.96600  0.92800  0.77700  1.0000
  O   O21       1.0  0.50400  0.14600  0.82100  1.0000
  O   O22       1.0  0.99600  0.14600  0.82100  1.0000
  O   O23       1.0  0.50400  0.35400  0.82100  1.0000
  O   O24       1.0  0.99600  0.35400  0.82100  1.0000
  O   O25       1.0  0.25000  0.51600  0.95300  1.0000
  O   O26       1.0  0.25000  0.98400  0.95300  1.0000
  U   U1        1.0  0.00000  0.00000  0.00000  1.0000
  U   U2        1.0  0.50000  0.00000  0.00000  1.0000
  U   U3        1.0  0.00000  0.50000  0.00000  1.0000
  U   U4        1.0  0.50000  0.50000  0.00000  1.0000
  V   V1        1.0  0.54300  0.75000  0.31300  1.0000
  V   V2        1.0  0.95700  0.75000  0.31300  1.0000
  V   V3        1.0  0.04330  0.25000  0.68700  1.0000
  V   V4        1.0  0.45700  0.25000  0.68700  1.0000
