data_image0
_chemical_formula_structural       Mg2Ni2W3
_chemical_formula_sum              "Mg2 Ni2 W3"
_cell_length_a       6.92192
_cell_length_b       6.92192
_cell_length_c       6.92192
_cell_angle_alpha    36.6107
_cell_angle_beta     36.6107
_cell_angle_gamma    36.6107

_space_group_name_H-M_alt    "P 1"
_space_group_IT_number       1

loop_
  _space_group_symop_operation_xyz
  'x, y, z'

loop_
  _atom_site_type_symbol
  _atom_site_label
  _atom_site_symmetry_multiplicity
  _atom_site_fract_x
  _atom_site_fract_y
  _atom_site_fract_z
  _atom_site_occupancy
  Mg  Mg1       1.0  0.18700  0.18700  0.18700  1.0000
  Mg  Mg2       1.0  0.76900  0.76900  0.76900  1.0000
  Ni  Ni1       1.0  0.04750  0.04750  0.04750  1.0000
  Ni  Ni2       1.0  0.48500  0.48500  0.48500  1.0000
  W   W1        1.0  0.34200  0.34200  0.34200  1.0000
  W   W2        1.0  0.62400  0.62400  0.62400  1.0000
  W   W3        1.0  0.91900  0.91900  0.91900  1.0000
