data_image0
_chemical_formula_structural       Ca2Ni2W3
_chemical_formula_sum              "Ca2 Ni2 W3"
_cell_length_a       7.67262
_cell_length_b       7.67262
_cell_length_c       7.67262
_cell_angle_alpha    33.4728
_cell_angle_beta     33.4728
_cell_angle_gamma    33.4728

_space_group_name_H-M_alt    "P 1"
_space_group_IT_number       1

loop_
  _space_group_symop_operation_xyz
  'x, y, z'

loop_
  _atom_site_type_symbol
  _atom_site_label
  _atom_site_symmetry_multiplicity
  _atom_site_fract_x
  _atom_site_fract_y
  _atom_site_fract_z
  _atom_site_occupancy
  Ca  Ca1       1.0  0.18600  0.18600  0.18600  1.0000
  Ca  Ca2       1.0  0.76500  0.76500  0.76500  1.0000
  Ni  Ni1       1.0  0.03380  0.03380  0.03380  1.0000
  Ni  Ni2       1.0  0.50700  0.50700  0.50700  1.0000
  W   W1        1.0  0.33400  0.33400  0.33400  1.0000
  W   W2        1.0  0.62500  0.62500  0.62500  1.0000
  W   W3        1.0  0.92400  0.92400  0.92400  1.0000
