data_image0
_chemical_formula_structural       Be2Pt2W3
_chemical_formula_sum              "Be2 Pt2 W3"
_cell_length_a       6.66096
_cell_length_b       6.66096
_cell_length_c       6.66096
_cell_angle_alpha    37.5312
_cell_angle_beta     37.5312
_cell_angle_gamma    37.5312

_space_group_name_H-M_alt    "P 1"
_space_group_IT_number       1

loop_
  _space_group_symop_operation_xyz
  'x, y, z'

loop_
  _atom_site_type_symbol
  _atom_site_label
  _atom_site_symmetry_multiplicity
  _atom_site_fract_x
  _atom_site_fract_y
  _atom_site_fract_z
  _atom_site_occupancy
  Be  Be1       1.0  0.19500  0.19500  0.19500  1.0000
  Be  Be2       1.0  0.76600  0.76600  0.76600  1.0000
  Pt  Pt1       1.0  0.06340  0.06340  0.06340  1.0000
  Pt  Pt2       1.0  0.48200  0.48200  0.48200  1.0000
  W   W1        1.0  0.33500  0.33500  0.33500  1.0000
  W   W2        1.0  0.62600  0.62600  0.62600  1.0000
  W   W3        1.0  0.90800  0.90800  0.90800  1.0000
