data_image0
_chemical_formula_structural       Mn2Ru2Sn3
_chemical_formula_sum              "Mn2 Ru2 Sn3"
_cell_length_a       7.86338
_cell_length_b       7.86338
_cell_length_c       7.86338
_cell_angle_alpha    33.2756
_cell_angle_beta     33.2756
_cell_angle_gamma    33.2756

_space_group_name_H-M_alt    "P 1"
_space_group_IT_number       1

loop_
  _space_group_symop_operation_xyz
  'x, y, z'

loop_
  _atom_site_type_symbol
  _atom_site_label
  _atom_site_symmetry_multiplicity
  _atom_site_fract_x
  _atom_site_fract_y
  _atom_site_fract_z
  _atom_site_occupancy
  Mn  Mn1       1.0  0.24300  0.24300  0.24300  1.0000
  Mn  Mn2       1.0  0.75000  0.75000  0.75000  1.0000
  Ru  Ru1       1.0  0.50800  0.50800  0.50800  1.0000
  Ru  Ru2       1.0  0.99300  0.99300  0.99300  1.0000
  Sn  Sn1       1.0  0.38600  0.38600  0.38600  1.0000
  Sn  Sn2       1.0  0.62800  0.62800  0.62800  1.0000
  Sn  Sn3       1.0  0.86700  0.86700  0.86700  1.0000
