data_image0
_chemical_formula_structural       Co2Mo2Sn3
_chemical_formula_sum              "Co2 Mo2 Sn3"
_cell_length_a       7.85403
_cell_length_b       7.85403
_cell_length_c       7.85403
_cell_angle_alpha    33.0105
_cell_angle_beta     33.0105
_cell_angle_gamma    33.0105

_space_group_name_H-M_alt    "P 1"
_space_group_IT_number       1

loop_
  _space_group_symop_operation_xyz
  'x, y, z'

loop_
  _atom_site_type_symbol
  _atom_site_label
  _atom_site_symmetry_multiplicity
  _atom_site_fract_x
  _atom_site_fract_y
  _atom_site_fract_z
  _atom_site_occupancy
  Co  Co1       1.0  0.25900  0.25900  0.25900  1.0000
  Co  Co2       1.0  0.74200  0.74200  0.74200  1.0000
  Mo  Mo1       1.0  0.00406  0.00406  0.00406  1.0000
  Mo  Mo2       1.0  0.50000  0.50000  0.50000  1.0000
  Sn  Sn1       1.0  0.38200  0.38200  0.38200  1.0000
  Sn  Sn2       1.0  0.62300  0.62300  0.62300  1.0000
  Sn  Sn3       1.0  0.86500  0.86500  0.86500  1.0000
