data_image0
_chemical_formula_structural       Pd2Sr2W3
_chemical_formula_sum              "Pd2 Sr2 W3"
_cell_length_a       8.94593
_cell_length_b       8.94593
_cell_length_c       8.94593
_cell_angle_alpha    29.6739
_cell_angle_beta     29.6739
_cell_angle_gamma    29.6739

_space_group_name_H-M_alt    "P 1"
_space_group_IT_number       1

loop_
  _space_group_symop_operation_xyz
  'x, y, z'

loop_
  _atom_site_type_symbol
  _atom_site_label
  _atom_site_symmetry_multiplicity
  _atom_site_fract_x
  _atom_site_fract_y
  _atom_site_fract_z
  _atom_site_occupancy
  Pd  Pd1       1.0  0.03440  0.03440  0.03440  1.0000
  Pd  Pd2       1.0  0.50500  0.50500  0.50500  1.0000
  Sr  Sr1       1.0  0.19600  0.19600  0.19600  1.0000
  Sr  Sr2       1.0  0.76000  0.76000  0.76000  1.0000
  W   W1        1.0  0.32000  0.32000  0.32000  1.0000
  W   W2        1.0  0.62500  0.62500  0.62500  1.0000
  W   W3        1.0  0.93600  0.93600  0.93600  1.0000
