data_image0
_chemical_formula_structural       As12Co30
_chemical_formula_sum              "As12 Co30"
_cell_length_a       6.76839
_cell_length_b       6.76839
_cell_length_c       12.3297
_cell_angle_alpha    90
_cell_angle_beta     90
_cell_angle_gamma    120.001

_space_group_name_H-M_alt    "P 1"
_space_group_IT_number       1

loop_
  _space_group_symop_operation_xyz
  'x, y, z'

loop_
  _atom_site_type_symbol
  _atom_site_label
  _atom_site_symmetry_multiplicity
  _atom_site_fract_x
  _atom_site_fract_y
  _atom_site_fract_z
  _atom_site_occupancy
  As  As1       1.0  0.67000  0.00000  0.01610  1.0000
  As  As2       1.0  0.00000  0.67000  0.01610  1.0000
  As  As3       1.0  0.33000  0.33000  0.01610  1.0000
  As  As4       1.0  0.00000  0.00000  0.24600  1.0000
  As  As5       1.0  0.66700  0.33300  0.29000  1.0000
  As  As6       1.0  0.33300  0.66700  0.29000  1.0000
  As  As7       1.0  0.33000  0.00000  0.51600  1.0000
  As  As8       1.0  0.00000  0.33000  0.51600  1.0000
  As  As9       1.0  0.67000  0.67000  0.51600  1.0000
  As  As10      1.0  0.00000  0.00000  0.74600  1.0000
  As  As11      1.0  0.66700  0.33300  0.79000  1.0000
  As  As12      1.0  0.33300  0.66700  0.79000  1.0000
  Co  Co1       1.0  0.66700  0.33300  0.08590  1.0000
  Co  Co2       1.0  0.33300  0.66700  0.08590  1.0000
  Co  Co3       1.0  0.73000  0.73000  0.11700  1.0000
  Co  Co4       1.0  0.27000  0.00000  0.11700  1.0000
  Co  Co5       1.0  0.00000  0.27000  0.11700  1.0000
  Co  Co6       1.0  0.37300  0.37300  0.21200  1.0000
  Co  Co7       1.0  0.62700  0.00000  0.21200  1.0000
  Co  Co8       1.0  0.00000  0.62700  0.21200  1.0000
  Co  Co9       1.0  0.30800  0.00000  0.32200  1.0000
  Co  Co10      1.0  0.00000  0.30800  0.32200  1.0000
  Co  Co11      1.0  0.69200  0.69200  0.32200  1.0000
  Co  Co12      1.0  0.36900  0.36900  0.42300  1.0000
  Co  Co13      1.0  0.63100  0.00000  0.42300  1.0000
  Co  Co14      1.0  0.00000  0.63100  0.42300  1.0000
  Co  Co15      1.0  0.00000  0.00000  0.44700  1.0000
  Co  Co16      1.0  0.66700  0.33300  0.58600  1.0000
  Co  Co17      1.0  0.33300  0.66700  0.58600  1.0000
  Co  Co18      1.0  0.27000  0.27000  0.61700  1.0000
  Co  Co19      1.0  0.73000  0.00000  0.61700  1.0000
  Co  Co20      1.0  0.00000  0.73000  0.61700  1.0000
  Co  Co21      1.0  0.62700  0.62700  0.71200  1.0000
  Co  Co22      1.0  0.37300  0.00000  0.71200  1.0000
  Co  Co23      1.0  0.00000  0.37300  0.71200  1.0000
  Co  Co24      1.0  0.69200  0.00000  0.82200  1.0000
  Co  Co25      1.0  0.00000  0.69200  0.82200  1.0000
  Co  Co26      1.0  0.30800  0.30800  0.82200  1.0000
  Co  Co27      1.0  0.63100  0.63100  0.92300  1.0000
  Co  Co28      1.0  0.36900  0.00000  0.92300  1.0000
  Co  Co29      1.0  0.00000  0.36900  0.92300  1.0000
  Co  Co30      1.0  0.00000  0.00000  0.94700  1.0000
