data_image0
_chemical_formula_structural       Cr3Ir2Sc2
_chemical_formula_sum              "Cr3 Ir2 Sc2"
_cell_length_a       7.28913
_cell_length_b       7.28913
_cell_length_c       7.28913
_cell_angle_alpha    33.7716
_cell_angle_beta     33.7716
_cell_angle_gamma    33.7716

_space_group_name_H-M_alt    "P 1"
_space_group_IT_number       1

loop_
  _space_group_symop_operation_xyz
  'x, y, z'

loop_
  _atom_site_type_symbol
  _atom_site_label
  _atom_site_symmetry_multiplicity
  _atom_site_fract_x
  _atom_site_fract_y
  _atom_site_fract_z
  _atom_site_occupancy
  Cr  Cr1       1.0  0.37500  0.37500  0.37500  1.0000
  Cr  Cr2       1.0  0.63100  0.63100  0.63100  1.0000
  Cr  Cr3       1.0  0.87800  0.87800  0.87800  1.0000
  Ir  Ir1       1.0  0.49500  0.49500  0.49500  1.0000
  Ir  Ir2       1.0  0.99800  0.99800  0.99800  1.0000
  Sc  Sc1       1.0  0.24000  0.24000  0.24000  1.0000
  Sc  Sc2       1.0  0.75800  0.75800  0.75800  1.0000
