data_image0
_chemical_formula_structural       Ir2Mo3Sc2
_chemical_formula_sum              "Ir2 Mo3 Sc2"
_cell_length_a       7.61874
_cell_length_b       7.61874
_cell_length_c       7.61874
_cell_angle_alpha    33.7359
_cell_angle_beta     33.7359
_cell_angle_gamma    33.7359

_space_group_name_H-M_alt    "P 1"
_space_group_IT_number       1

loop_
  _space_group_symop_operation_xyz
  'x, y, z'

loop_
  _atom_site_type_symbol
  _atom_site_label
  _atom_site_symmetry_multiplicity
  _atom_site_fract_x
  _atom_site_fract_y
  _atom_site_fract_z
  _atom_site_occupancy
  Ir  Ir1       1.0  0.49500  0.49500  0.49500  1.0000
  Ir  Ir2       1.0  0.99800  0.99800  0.99800  1.0000
  Mo  Mo1       1.0  0.37600  0.37600  0.37600  1.0000
  Mo  Mo2       1.0  0.63100  0.63100  0.63100  1.0000
  Mo  Mo3       1.0  0.87600  0.87600  0.87600  1.0000
  Sc  Sc1       1.0  0.24100  0.24100  0.24100  1.0000
  Sc  Sc2       1.0  0.75800  0.75800  0.75800  1.0000
