data_image0
_chemical_formula_structural       Be2Ni2W3
_chemical_formula_sum              "Be2 Ni2 W3"
_cell_length_a       6.43011
_cell_length_b       6.43011
_cell_length_c       6.43011
_cell_angle_alpha    37.8127
_cell_angle_beta     37.8127
_cell_angle_gamma    37.8127

_space_group_name_H-M_alt    "P 1"
_space_group_IT_number       1

loop_
  _space_group_symop_operation_xyz
  'x, y, z'

loop_
  _atom_site_type_symbol
  _atom_site_label
  _atom_site_symmetry_multiplicity
  _atom_site_fract_x
  _atom_site_fract_y
  _atom_site_fract_z
  _atom_site_occupancy
  Be  Be1       1.0  0.19300  0.19300  0.19300  1.0000
  Be  Be2       1.0  0.76300  0.76300  0.76300  1.0000
  Ni  Ni1       1.0  0.06070  0.06070  0.06070  1.0000
  Ni  Ni2       1.0  0.48300  0.48300  0.48300  1.0000
  W   W1        1.0  0.34600  0.34600  0.34600  1.0000
  W   W2        1.0  0.62400  0.62400  0.62400  1.0000
  W   W3        1.0  0.90400  0.90400  0.90400  1.0000
