data_image0
_chemical_formula_structural       C10Cu2H18N2O10
_chemical_formula_sum              "C10 Cu2 H18 N2 O10"
_cell_length_a       6.27398
_cell_length_b       6.92013
_cell_length_c       9.60669
_cell_angle_alpha    99.7771
_cell_angle_beta     97.0635
_cell_angle_gamma    110.456

_space_group_name_H-M_alt    "P 1"
_space_group_IT_number       1

loop_
  _space_group_symop_operation_xyz
  'x, y, z'

loop_
  _atom_site_type_symbol
  _atom_site_label
  _atom_site_symmetry_multiplicity
  _atom_site_fract_x
  _atom_site_fract_y
  _atom_site_fract_z
  _atom_site_occupancy
  C   C1        1.0  0.83500  0.78200  0.05030  1.0000
  C   C2        1.0  0.68300  0.24900  0.09340  1.0000
  C   C3        1.0  0.54200  0.68700  0.36400  1.0000
  C   C4        1.0  0.39800  0.18100  0.37800  1.0000
  C   C5        1.0  0.09180  0.26300  0.48600  1.0000
  C   C6        1.0  0.90800  0.73700  0.51400  1.0000
  C   C7        1.0  0.60200  0.81900  0.62200  1.0000
  C   C8        1.0  0.45800  0.31300  0.63600  1.0000
  C   C9        1.0  0.31700  0.75100  0.90700  1.0000
  C   C10       1.0  0.16500  0.21800  0.95000  1.0000
  Cu  Cu1       1.0  0.12400  0.57100  0.13200  1.0000
  Cu  Cu2       1.0  0.87600  0.42900  0.86800  1.0000
  H   H1        1.0  0.76200  0.90500  0.07090  1.0000
  H   H2        1.0  0.54100  0.13600  0.13100  1.0000
  H   H3        1.0  0.62000  0.63700  0.27600  1.0000
  H   H4        1.0  0.38800  0.28100  0.30100  1.0000
  H   H5        1.0  0.28400  0.01750  0.32600  1.0000
  H   H6        1.0  0.57600  0.19200  0.40800  1.0000
  H   H7        1.0  0.94600  0.68300  0.40900  1.0000
  H   H8        1.0  0.08490  0.37200  0.41700  1.0000
  H   H9        1.0  0.96000  0.10600  0.43300  1.0000
  H   H10       1.0  0.04030  0.89400  0.56700  1.0000
  H   H11       1.0  0.91500  0.62800  0.58300  1.0000
  H   H12       1.0  0.05430  0.31700  0.59100  1.0000
  H   H13       1.0  0.42400  0.80800  0.59200  1.0000
  H   H14       1.0  0.71600  0.98200  0.67400  1.0000
  H   H15       1.0  0.61200  0.71900  0.69900  1.0000
  H   H16       1.0  0.38000  0.36300  0.72400  1.0000
  H   H17       1.0  0.45900  0.86400  0.86900  1.0000
  H   H18       1.0  0.23800  0.09490  0.92900  1.0000
  N   N1        1.0  0.67900  0.74800  0.49400  1.0000
  N   N2        1.0  0.32100  0.25200  0.50600  1.0000
  O   O1        1.0  0.35100  0.76300  0.04140  1.0000
  O   O2        1.0  0.23500  0.33900  0.07470  1.0000
  O   O3        1.0  0.97400  0.78000  0.15600  1.0000
  O   O4        1.0  0.85600  0.37000  0.19000  1.0000
  O   O5        1.0  0.33900  0.68500  0.34200  1.0000
  O   O6        1.0  0.66100  0.31500  0.65800  1.0000
  O   O7        1.0  0.14400  0.63000  0.81000  1.0000
  O   O8        1.0  0.02560  0.22000  0.84400  1.0000
  O   O9        1.0  0.76500  0.66100  0.92500  1.0000
  O   O10       1.0  0.64900  0.23700  0.95900  1.0000
