data_image0
_chemical_formula_structural       Hf3Mn2Os2
_chemical_formula_sum              "Hf3 Mn2 Os2"
_cell_length_a       7.59813
_cell_length_b       7.59813
_cell_length_c       7.59813
_cell_angle_alpha    33.9089
_cell_angle_beta     33.9089
_cell_angle_gamma    33.9089

_space_group_name_H-M_alt    "P 1"
_space_group_IT_number       1

loop_
  _space_group_symop_operation_xyz
  'x, y, z'

loop_
  _atom_site_type_symbol
  _atom_site_label
  _atom_site_symmetry_multiplicity
  _atom_site_fract_x
  _atom_site_fract_y
  _atom_site_fract_z
  _atom_site_occupancy
  Hf  Hf1       1.0  0.38000  0.38000  0.38000  1.0000
  Hf  Hf2       1.0  0.62500  0.62500  0.62500  1.0000
  Hf  Hf3       1.0  0.87100  0.87100  0.87100  1.0000
  Mn  Mn1       1.0  0.24700  0.24700  0.24700  1.0000
  Mn  Mn2       1.0  0.75200  0.75200  0.75200  1.0000
  Os  Os1       1.0  0.00045  0.00045  0.00045  1.0000
  Os  Os2       1.0  0.50100  0.50100  0.50100  1.0000
