data_image0
_chemical_formula_structural       Fe2Ge3Mn2
_chemical_formula_sum              "Fe2 Ge3 Mn2"
_cell_length_a       7.27899
_cell_length_b       7.27899
_cell_length_c       7.27899
_cell_angle_alpha    32.7968
_cell_angle_beta     32.7968
_cell_angle_gamma    32.7968

_space_group_name_H-M_alt    "P 1"
_space_group_IT_number       1

loop_
  _space_group_symop_operation_xyz
  'x, y, z'

loop_
  _atom_site_type_symbol
  _atom_site_label
  _atom_site_symmetry_multiplicity
  _atom_site_fract_x
  _atom_site_fract_y
  _atom_site_fract_z
  _atom_site_occupancy
  Fe  Fe1       1.0  0.49800  0.49800  0.49800  1.0000
  Fe  Fe2       1.0  0.99700  0.99700  0.99700  1.0000
  Ge  Ge1       1.0  0.37900  0.37900  0.37900  1.0000
  Ge  Ge2       1.0  0.62400  0.62400  0.62400  1.0000
  Ge  Ge3       1.0  0.87300  0.87300  0.87300  1.0000
  Mn  Mn1       1.0  0.25100  0.25100  0.25100  1.0000
  Mn  Mn2       1.0  0.75400  0.75400  0.75400  1.0000
