data_image0
_chemical_formula_structural       Bi8Li4O24Ti6
_chemical_formula_sum              "Bi8 Li4 O24 Ti6"
_cell_length_a       5.61053
_cell_length_b       5.64814
_cell_length_c       16.4824
_cell_angle_alpha    99.8657
_cell_angle_beta     90
_cell_angle_gamma    90

_space_group_name_H-M_alt    "P 1"
_space_group_IT_number       1

loop_
  _space_group_symop_operation_xyz
  'x, y, z'

loop_
  _atom_site_type_symbol
  _atom_site_label
  _atom_site_symmetry_multiplicity
  _atom_site_fract_x
  _atom_site_fract_y
  _atom_site_fract_z
  _atom_site_occupancy
  Bi  Bi1       1.0  0.01410  0.01950  0.12700  1.0000
  Bi  Bi2       1.0  0.48600  0.52000  0.12700  1.0000
  Bi  Bi3       1.0  0.11700  0.17800  0.42400  1.0000
  Bi  Bi4       1.0  0.38300  0.67800  0.42400  1.0000
  Bi  Bi5       1.0  0.61700  0.25400  0.57600  1.0000
  Bi  Bi6       1.0  0.88300  0.75400  0.57600  1.0000
  Bi  Bi7       1.0  0.51400  0.39200  0.87300  1.0000
  Bi  Bi8       1.0  0.98600  0.89200  0.87300  1.0000
  Li  Li1       1.0  0.76600  0.42200  0.36100  1.0000
  Li  Li2       1.0  0.73400  0.92200  0.36100  1.0000
  Li  Li3       1.0  0.23400  0.06140  0.63900  1.0000
  Li  Li4       1.0  0.26600  0.56100  0.63900  1.0000
  O   O1        1.0  0.24900  0.26800  0.02290  1.0000
  O   O2        1.0  0.25100  0.76800  0.02290  1.0000
  O   O3        1.0  0.58000  0.08900  0.11800  1.0000
  O   O4        1.0  0.92000  0.58900  0.11800  1.0000
  O   O5        1.0  0.22200  0.34100  0.21400  1.0000
  O   O6        1.0  0.27800  0.84100  0.21400  1.0000
  O   O7        1.0  0.70000  0.43500  0.24900  1.0000
  O   O8        1.0  0.80000  0.93500  0.24900  1.0000
  O   O9        1.0  0.47500  0.16900  0.35900  1.0000
  O   O10       1.0  0.02540  0.66900  0.35900  1.0000
  O   O11       1.0  0.74600  0.46500  0.48400  1.0000
  O   O12       1.0  0.75400  0.96500  0.48400  1.0000
  O   O13       1.0  0.24600  0.48000  0.51600  1.0000
  O   O14       1.0  0.25400  0.98000  0.51600  1.0000
  O   O15       1.0  0.97500  0.31100  0.64100  1.0000
  O   O16       1.0  0.52500  0.81100  0.64100  1.0000
  O   O17       1.0  0.30000  0.18600  0.75100  1.0000
  O   O18       1.0  0.20000  0.68600  0.75100  1.0000
  O   O19       1.0  0.77800  0.12700  0.78600  1.0000
  O   O20       1.0  0.72200  0.62700  0.78600  1.0000
  O   O21       1.0  0.08030  0.47100  0.88200  1.0000
  O   O22       1.0  0.42000  0.97100  0.88200  1.0000
  O   O23       1.0  0.75100  0.24500  0.97700  1.0000
  O   O24       1.0  0.74900  0.74500  0.97700  1.0000
  Ti  Ti1       1.0  0.00000  0.49400  0.00000  1.0000
  Ti  Ti2       1.0  0.50000  0.99400  0.00000  1.0000
  Ti  Ti3       1.0  0.50800  0.12600  0.24000  1.0000
  Ti  Ti4       1.0  0.99200  0.62600  0.24000  1.0000
  Ti  Ti5       1.0  0.00758  0.38600  0.76000  1.0000
  Ti  Ti6       1.0  0.49200  0.88600  0.76000  1.0000
