data_image0
_chemical_formula_structural       Co2Ge3W2
_chemical_formula_sum              "Co2 Ge3 W2"
_cell_length_a       7.45052
_cell_length_b       7.45052
_cell_length_c       7.45052
_cell_angle_alpha    32.4771
_cell_angle_beta     32.4771
_cell_angle_gamma    32.4771

_space_group_name_H-M_alt    "P 1"
_space_group_IT_number       1

loop_
  _space_group_symop_operation_xyz
  'x, y, z'

loop_
  _atom_site_type_symbol
  _atom_site_label
  _atom_site_symmetry_multiplicity
  _atom_site_fract_x
  _atom_site_fract_y
  _atom_site_fract_z
  _atom_site_occupancy
  Co  Co1       1.0  0.26200  0.26200  0.26200  1.0000
  Co  Co2       1.0  0.74100  0.74100  0.74100  1.0000
  Ge  Ge1       1.0  0.38400  0.38400  0.38400  1.0000
  Ge  Ge2       1.0  0.62200  0.62200  0.62200  1.0000
  Ge  Ge3       1.0  0.86000  0.86000  0.86000  1.0000
  W   W1        1.0  0.00609  0.00609  0.00609  1.0000
  W   W2        1.0  0.50000  0.50000  0.50000  1.0000
