data_image0
_chemical_formula_structural       Fe2Mn2Sn3
_chemical_formula_sum              "Fe2 Mn2 Sn3"
_cell_length_a       8.20609
_cell_length_b       8.20609
_cell_length_c       8.20609
_cell_angle_alpha    31.0927
_cell_angle_beta     31.0927
_cell_angle_gamma    31.0927

_space_group_name_H-M_alt    "P 1"
_space_group_IT_number       1

loop_
  _space_group_symop_operation_xyz
  'x, y, z'

loop_
  _atom_site_type_symbol
  _atom_site_label
  _atom_site_symmetry_multiplicity
  _atom_site_fract_x
  _atom_site_fract_y
  _atom_site_fract_z
  _atom_site_occupancy
  Fe  Fe1       1.0  0.02250  0.02250  0.02250  1.0000
  Fe  Fe2       1.0  0.51600  0.51600  0.51600  1.0000
  Mn  Mn1       1.0  0.23200  0.23200  0.23200  1.0000
  Mn  Mn2       1.0  0.73300  0.73300  0.73300  1.0000
  Sn  Sn1       1.0  0.40000  0.40000  0.40000  1.0000
  Sn  Sn2       1.0  0.62400  0.62400  0.62400  1.0000
  Sn  Sn3       1.0  0.84700  0.84700  0.84700  1.0000
