data_image0
_chemical_formula_structural       Mn2Os2Si3
_chemical_formula_sum              "Mn2 Os2 Si3"
_cell_length_a       7.12524
_cell_length_b       7.12524
_cell_length_c       7.12524
_cell_angle_alpha    32.6093
_cell_angle_beta     32.6093
_cell_angle_gamma    32.6093

_space_group_name_H-M_alt    "P 1"
_space_group_IT_number       1

loop_
  _space_group_symop_operation_xyz
  'x, y, z'

loop_
  _atom_site_type_symbol
  _atom_site_label
  _atom_site_symmetry_multiplicity
  _atom_site_fract_x
  _atom_site_fract_y
  _atom_site_fract_z
  _atom_site_occupancy
  Mn  Mn1       1.0  0.25100  0.25100  0.25100  1.0000
  Mn  Mn2       1.0  0.75300  0.75300  0.75300  1.0000
  Os  Os1       1.0  0.50000  0.50000  0.50000  1.0000
  Os  Os2       1.0  0.99800  0.99800  0.99800  1.0000
  Si  Si1       1.0  0.37900  0.37900  0.37900  1.0000
  Si  Si2       1.0  0.62200  0.62200  0.62200  1.0000
  Si  Si3       1.0  0.87300  0.87300  0.87300  1.0000
