data_image0
_chemical_formula_structural       C6Cl10H20Hg4N2
_chemical_formula_sum              "C6 Cl10 H20 Hg4 N2"
_cell_length_a       6.24626
_cell_length_b       10.0585
_cell_length_c       10.9417
_cell_angle_alpha    94.0925
_cell_angle_beta     105.01
_cell_angle_gamma    98.5307

_space_group_name_H-M_alt    "P 1"
_space_group_IT_number       1

loop_
  _space_group_symop_operation_xyz
  'x, y, z'

loop_
  _atom_site_type_symbol
  _atom_site_label
  _atom_site_symmetry_multiplicity
  _atom_site_fract_x
  _atom_site_fract_y
  _atom_site_fract_z
  _atom_site_occupancy
  C   C1        1.0  0.60600  0.28700  0.10400  1.0000
  C   C2        1.0  0.46500  0.47100  0.20200  1.0000
  C   C3        1.0  0.78300  0.37500  0.32900  1.0000
  C   C4        1.0  0.21700  0.62500  0.67100  1.0000
  C   C5        1.0  0.53500  0.52900  0.79800  1.0000
  C   C6        1.0  0.39400  0.71300  0.89600  1.0000
  Cl  Cl1       1.0  0.00337  0.65100  0.12500  1.0000
  Cl  Cl2       1.0  0.10300  0.12600  0.15200  1.0000
  Cl  Cl3       1.0  0.58800  0.91700  0.20400  1.0000
  Cl  Cl4       1.0  0.19300  0.89400  0.44000  1.0000
  Cl  Cl5       1.0  0.32800  0.33300  0.47000  1.0000
  Cl  Cl6       1.0  0.67200  0.66700  0.53000  1.0000
  Cl  Cl7       1.0  0.80700  0.10600  0.56000  1.0000
  Cl  Cl8       1.0  0.41200  0.08320  0.79600  1.0000
  Cl  Cl9       1.0  0.89700  0.87400  0.84800  1.0000
  Cl  Cl10      1.0  0.99700  0.34900  0.87500  1.0000
  H   H1        1.0  0.44800  0.27300  0.02780  1.0000
  H   H2        1.0  0.73600  0.35700  0.07860  1.0000
  H   H3        1.0  0.66100  0.19000  0.12000  1.0000
  H   H4        1.0  0.30300  0.44200  0.12900  1.0000
  H   H5        1.0  0.57900  0.54600  0.17000  1.0000
  H   H6        1.0  0.45500  0.27700  0.25000  1.0000
  H   H7        1.0  0.44000  0.51200  0.29200  1.0000
  H   H8        1.0  0.89900  0.45600  0.30600  1.0000
  H   H9        1.0  0.85500  0.28200  0.33900  1.0000
  H   H10       1.0  0.74200  0.40700  0.41700  1.0000
  H   H11       1.0  0.25800  0.59300  0.58300  1.0000
  H   H12       1.0  0.14500  0.71800  0.66100  1.0000
  H   H13       1.0  0.10100  0.54400  0.69400  1.0000
  H   H14       1.0  0.56000  0.48800  0.70800  1.0000
  H   H15       1.0  0.54500  0.72300  0.75000  1.0000
  H   H16       1.0  0.42100  0.45400  0.83000  1.0000
  H   H17       1.0  0.69700  0.55800  0.87100  1.0000
  H   H18       1.0  0.33900  0.81000  0.88000  1.0000
  H   H19       1.0  0.26400  0.64300  0.92100  1.0000
  H   H20       1.0  0.55200  0.72700  0.97200  1.0000
  Hg  Hg1       1.0  0.07930  0.88900  0.16100  1.0000
  Hg  Hg2       1.0  0.68500  0.87000  0.42900  1.0000
  Hg  Hg3       1.0  0.31500  0.13000  0.57100  1.0000
  Hg  Hg4       1.0  0.92100  0.11100  0.83900  1.0000
  N   N1        1.0  0.57000  0.34800  0.22400  1.0000
  N   N2        1.0  0.43000  0.65200  0.77600  1.0000
