data_image0
_chemical_formula_structural       Co2Cr2Pb3
_chemical_formula_sum              "Co2 Cr2 Pb3"
_cell_length_a       8.10711
_cell_length_b       8.10711
_cell_length_c       8.10711
_cell_angle_alpha    32.5944
_cell_angle_beta     32.5944
_cell_angle_gamma    32.5944

_space_group_name_H-M_alt    "P 1"
_space_group_IT_number       1

loop_
  _space_group_symop_operation_xyz
  'x, y, z'

loop_
  _atom_site_type_symbol
  _atom_site_label
  _atom_site_symmetry_multiplicity
  _atom_site_fract_x
  _atom_site_fract_y
  _atom_site_fract_z
  _atom_site_occupancy
  Co  Co1       1.0  0.51000  0.51000  0.51000  1.0000
  Co  Co2       1.0  0.99800  0.99800  0.99800  1.0000
  Cr  Cr1       1.0  0.24300  0.24300  0.24300  1.0000
  Cr  Cr2       1.0  0.74600  0.74600  0.74600  1.0000
  Pb  Pb1       1.0  0.38900  0.38900  0.38900  1.0000
  Pb  Pb2       1.0  0.62600  0.62600  0.62600  1.0000
  Pb  Pb3       1.0  0.86300  0.86300  0.86300  1.0000
