data_image0
_chemical_formula_structural       Mn2Ru2Zr3
_chemical_formula_sum              "Mn2 Ru2 Zr3"
_cell_length_a       7.75481
_cell_length_b       7.75481
_cell_length_c       7.75481
_cell_angle_alpha    33.8411
_cell_angle_beta     33.8411
_cell_angle_gamma    33.8411

_space_group_name_H-M_alt    "P 1"
_space_group_IT_number       1

loop_
  _space_group_symop_operation_xyz
  'x, y, z'

loop_
  _atom_site_type_symbol
  _atom_site_label
  _atom_site_symmetry_multiplicity
  _atom_site_fract_x
  _atom_site_fract_y
  _atom_site_fract_z
  _atom_site_occupancy
  Mn  Mn1       1.0  0.24600  0.24600  0.24600  1.0000
  Mn  Mn2       1.0  0.74900  0.74900  0.74900  1.0000
  Ru  Ru1       1.0  0.50500  0.50500  0.50500  1.0000
  Ru  Ru2       1.0  0.00000  0.00000  0.00000  1.0000
  Zr  Zr1       1.0  0.38300  0.38300  0.38300  1.0000
  Zr  Zr2       1.0  0.62500  0.62500  0.62500  1.0000
  Zr  Zr3       1.0  0.86700  0.86700  0.86700  1.0000
