data_image0
_chemical_formula_structural       Al2Cr3Rh2
_chemical_formula_sum              "Al2 Cr3 Rh2"
_cell_length_a       6.63735
_cell_length_b       6.63735
_cell_length_c       6.63735
_cell_angle_alpha    36.1732
_cell_angle_beta     36.1732
_cell_angle_gamma    36.1732

_space_group_name_H-M_alt    "P 1"
_space_group_IT_number       1

loop_
  _space_group_symop_operation_xyz
  'x, y, z'

loop_
  _atom_site_type_symbol
  _atom_site_label
  _atom_site_symmetry_multiplicity
  _atom_site_fract_x
  _atom_site_fract_y
  _atom_site_fract_z
  _atom_site_occupancy
  Al  Al1       1.0  0.19600  0.19600  0.19600  1.0000
  Al  Al2       1.0  0.76800  0.76800  0.76800  1.0000
  Cr  Cr1       1.0  0.33400  0.33400  0.33400  1.0000
  Cr  Cr2       1.0  0.62500  0.62500  0.62500  1.0000
  Cr  Cr3       1.0  0.91600  0.91600  0.91600  1.0000
  Rh  Rh1       1.0  0.05340  0.05340  0.05340  1.0000
  Rh  Rh2       1.0  0.48300  0.48300  0.48300  1.0000
