data_image0
_chemical_formula_structural       H16Ni2O20V4
_chemical_formula_sum              "H16 Ni2 O20 V4"
_cell_length_a       7.08251
_cell_length_b       7.72446
_cell_length_c       7.72446
_cell_angle_alpha    69.909
_cell_angle_beta     108.715
_cell_angle_gamma    108.715

_space_group_name_H-M_alt    "P 1"
_space_group_IT_number       1

loop_
  _space_group_symop_operation_xyz
  'x, y, z'

loop_
  _atom_site_type_symbol
  _atom_site_label
  _atom_site_symmetry_multiplicity
  _atom_site_fract_x
  _atom_site_fract_y
  _atom_site_fract_z
  _atom_site_occupancy
  H   H1        1.0  0.53300  0.68800  0.17500  1.0000
  H   H2        1.0  0.42000  0.36100  0.27400  1.0000
  H   H3        1.0  0.75200  0.50800  0.27400  1.0000
  H   H4        1.0  0.96700  0.82500  0.31200  1.0000
  H   H5        1.0  0.92000  0.27400  0.36100  1.0000
  H   H6        1.0  0.72600  0.47500  0.36800  1.0000
  H   H7        1.0  0.22600  0.36800  0.47500  1.0000
  H   H8        1.0  0.74800  0.72600  0.49200  1.0000
  H   H9        1.0  0.25200  0.27400  0.50800  1.0000
  H   H10       1.0  0.77400  0.63200  0.52500  1.0000
  H   H11       1.0  0.27400  0.52500  0.63200  1.0000
  H   H12       1.0  0.08010  0.72600  0.63900  1.0000
  H   H13       1.0  0.03300  0.17500  0.68800  1.0000
  H   H14       1.0  0.24800  0.49200  0.72600  1.0000
  H   H15       1.0  0.58000  0.63900  0.72600  1.0000
  H   H16       1.0  0.46700  0.31200  0.82500  1.0000
  Ni  Ni1       1.0  0.00000  0.50000  0.00000  1.0000
  Ni  Ni2       1.0  0.50000  0.00000  0.50000  1.0000
  O   O1        1.0  0.42400  0.11900  0.00694  1.0000
  O   O2        1.0  0.84100  0.66500  0.01480  1.0000
  O   O3        1.0  0.25200  0.68000  0.11000  1.0000
  O   O4        1.0  0.92400  0.00694  0.11900  1.0000
  O   O5        1.0  0.89400  0.29900  0.22100  1.0000
  O   O6        1.0  0.41800  0.59500  0.23200  1.0000
  O   O7        1.0  0.39400  0.22100  0.29900  1.0000
  O   O8        1.0  0.24800  0.89000  0.32000  1.0000
  O   O9        1.0  0.65900  0.98500  0.33500  1.0000
  O   O10       1.0  0.08150  0.76800  0.40500  1.0000
  O   O11       1.0  0.91800  0.23200  0.59500  1.0000
  O   O12       1.0  0.34100  0.01480  0.66500  1.0000
  O   O13       1.0  0.75200  0.11000  0.68000  1.0000
  O   O14       1.0  0.60600  0.77900  0.70100  1.0000
  O   O15       1.0  0.58200  0.40500  0.76800  1.0000
  O   O16       1.0  0.10600  0.70100  0.77900  1.0000
  O   O17       1.0  0.07620  0.99300  0.88100  1.0000
  O   O18       1.0  0.74800  0.32000  0.89000  1.0000
  O   O19       1.0  0.15900  0.33500  0.98500  1.0000
  O   O20       1.0  0.57600  0.88100  0.99300  1.0000
  V   V1        1.0  0.20800  0.12300  0.10300  1.0000
  V   V2        1.0  0.70800  0.10300  0.12300  1.0000
  V   V3        1.0  0.29200  0.89700  0.87700  1.0000
  V   V4        1.0  0.79200  0.87700  0.89700  1.0000
