data_image0
_chemical_formula_structural       Ni2Sr2W3
_chemical_formula_sum              "Ni2 Sr2 W3"
_cell_length_a       9.08682
_cell_length_b       9.08682
_cell_length_c       9.08682
_cell_angle_alpha    28.3108
_cell_angle_beta     28.3108
_cell_angle_gamma    28.3108

_space_group_name_H-M_alt    "P 1"
_space_group_IT_number       1

loop_
  _space_group_symop_operation_xyz
  'x, y, z'

loop_
  _atom_site_type_symbol
  _atom_site_label
  _atom_site_symmetry_multiplicity
  _atom_site_fract_x
  _atom_site_fract_y
  _atom_site_fract_z
  _atom_site_occupancy
  Ni  Ni1       1.0  0.02000  0.02000  0.02000  1.0000
  Ni  Ni2       1.0  0.53500  0.53500  0.53500  1.0000
  Sr  Sr1       1.0  0.18500  0.18500  0.18500  1.0000
  Sr  Sr2       1.0  0.75400  0.75400  0.75400  1.0000
  W   W1        1.0  0.32400  0.32400  0.32400  1.0000
  W   W2        1.0  0.62700  0.62700  0.62700  1.0000
  W   W3        1.0  0.92900  0.92900  0.92900  1.0000
