data_image0
_chemical_formula_structural       Ba2In4O28P8
_chemical_formula_sum              "Ba2 In4 O28 P8"
_cell_length_a       7.58678
_cell_length_b       7.58678
_cell_length_c       9.79289
_cell_angle_alpha    99.5124
_cell_angle_beta     80.4876
_cell_angle_gamma    91.8515

_space_group_name_H-M_alt    "P 1"
_space_group_IT_number       1

loop_
  _space_group_symop_operation_xyz
  'x, y, z'

loop_
  _atom_site_type_symbol
  _atom_site_label
  _atom_site_symmetry_multiplicity
  _atom_site_fract_x
  _atom_site_fract_y
  _atom_site_fract_z
  _atom_site_occupancy
  Ba  Ba1       1.0  0.50000  0.00000  0.00000  1.0000
  Ba  Ba2       1.0  0.00000  0.50000  0.50000  1.0000
  In  In1       1.0  0.00000  0.00000  0.00000  1.0000
  In  In2       1.0  0.56000  0.56000  0.25000  1.0000
  In  In3       1.0  0.00000  0.00000  0.50000  1.0000
  In  In4       1.0  0.44000  0.44000  0.75000  1.0000
  O   O1        1.0  0.15500  0.81100  0.07030  1.0000
  O   O2        1.0  0.75900  0.62000  0.08610  1.0000
  O   O3        1.0  0.44500  0.36700  0.09610  1.0000
  O   O4        1.0  0.16800  0.18700  0.10300  1.0000
  O   O5        1.0  0.13900  0.51600  0.17000  1.0000
  O   O6        1.0  0.78200  0.03690  0.17200  1.0000
  O   O7        1.0  0.37300  0.75600  0.21900  1.0000
  O   O8        1.0  0.75600  0.37300  0.28100  1.0000
  O   O9        1.0  0.03690  0.78200  0.32800  1.0000
  O   O10       1.0  0.51600  0.13900  0.33000  1.0000
  O   O11       1.0  0.18700  0.16800  0.39700  1.0000
  O   O12       1.0  0.36700  0.44500  0.40400  1.0000
  O   O13       1.0  0.62000  0.75900  0.41400  1.0000
  O   O14       1.0  0.81100  0.15500  0.43000  1.0000
  O   O15       1.0  0.18900  0.84500  0.57000  1.0000
  O   O16       1.0  0.38000  0.24100  0.58600  1.0000
  O   O17       1.0  0.63300  0.55500  0.59600  1.0000
  O   O18       1.0  0.81300  0.83200  0.60300  1.0000
  O   O19       1.0  0.48400  0.86100  0.67000  1.0000
  O   O20       1.0  0.96300  0.21800  0.67200  1.0000
  O   O21       1.0  0.24400  0.62700  0.71900  1.0000
  O   O22       1.0  0.62700  0.24400  0.78100  1.0000
  O   O23       1.0  0.21800  0.96300  0.82800  1.0000
  O   O24       1.0  0.86100  0.48400  0.83000  1.0000
  O   O25       1.0  0.83200  0.81300  0.89700  1.0000
  O   O26       1.0  0.55500  0.63300  0.90400  1.0000
  O   O27       1.0  0.24100  0.38000  0.91400  1.0000
  O   O28       1.0  0.84500  0.18900  0.93000  1.0000
  P   P1        1.0  0.25300  0.36100  0.06370  1.0000
  P   P2        1.0  0.17800  0.73000  0.19800  1.0000
  P   P3        1.0  0.73000  0.17800  0.30200  1.0000
  P   P4        1.0  0.36100  0.25300  0.43600  1.0000
  P   P5        1.0  0.63900  0.74700  0.56400  1.0000
  P   P6        1.0  0.27000  0.82200  0.69800  1.0000
  P   P7        1.0  0.82200  0.27000  0.80200  1.0000
  P   P8        1.0  0.74700  0.63900  0.93600  1.0000
