data_image0
_chemical_formula_structural       Mo3Rh2Sc2
_chemical_formula_sum              "Mo3 Rh2 Sc2"
_cell_length_a       7.15804
_cell_length_b       7.15804
_cell_length_c       7.15804
_cell_angle_alpha    36.2319
_cell_angle_beta     36.2319
_cell_angle_gamma    36.2319

_space_group_name_H-M_alt    "P 1"
_space_group_IT_number       1

loop_
  _space_group_symop_operation_xyz
  'x, y, z'

loop_
  _atom_site_type_symbol
  _atom_site_label
  _atom_site_symmetry_multiplicity
  _atom_site_fract_x
  _atom_site_fract_y
  _atom_site_fract_z
  _atom_site_occupancy
  Mo  Mo1       1.0  0.33700  0.33700  0.33700  1.0000
  Mo  Mo2       1.0  0.62400  0.62400  0.62400  1.0000
  Mo  Mo3       1.0  0.91900  0.91900  0.91900  1.0000
  Rh  Rh1       1.0  0.05130  0.05130  0.05130  1.0000
  Rh  Rh2       1.0  0.48200  0.48200  0.48200  1.0000
  Sc  Sc1       1.0  0.19400  0.19400  0.19400  1.0000
  Sc  Sc2       1.0  0.76700  0.76700  0.76700  1.0000
