data_image0
_chemical_formula_structural       Cr3Rh2Y2
_chemical_formula_sum              "Cr3 Rh2 Y2"
_cell_length_a       7.50607
_cell_length_b       7.50607
_cell_length_c       7.50607
_cell_angle_alpha    35.2768
_cell_angle_beta     35.2768
_cell_angle_gamma    35.2768

_space_group_name_H-M_alt    "P 1"
_space_group_IT_number       1

loop_
  _space_group_symop_operation_xyz
  'x, y, z'

loop_
  _atom_site_type_symbol
  _atom_site_label
  _atom_site_symmetry_multiplicity
  _atom_site_fract_x
  _atom_site_fract_y
  _atom_site_fract_z
  _atom_site_occupancy
  Cr  Cr1       1.0  0.33200  0.33200  0.33200  1.0000
  Cr  Cr2       1.0  0.62400  0.62400  0.62400  1.0000
  Cr  Cr3       1.0  0.93100  0.93100  0.93100  1.0000
  Rh  Rh1       1.0  0.04920  0.04920  0.04920  1.0000
  Rh  Rh2       1.0  0.48100  0.48100  0.48100  1.0000
  Y   Y1        1.0  0.19600  0.19600  0.19600  1.0000
  Y   Y2        1.0  0.76100  0.76100  0.76100  1.0000
