data_image0
_chemical_formula_structural       Ge8N12Sr22
_chemical_formula_sum              "Ge8 N12 Sr22"
_cell_length_a       7.28092
_cell_length_b       7.28092
_cell_length_c       18.7218
_cell_angle_alpha    90
_cell_angle_beta     90
_cell_angle_gamma    90

_space_group_name_H-M_alt    "P 1"
_space_group_IT_number       1

loop_
  _space_group_symop_operation_xyz
  'x, y, z'

loop_
  _atom_site_type_symbol
  _atom_site_label
  _atom_site_symmetry_multiplicity
  _atom_site_fract_x
  _atom_site_fract_y
  _atom_site_fract_z
  _atom_site_occupancy
  Ge  Ge1       1.0  0.75000  0.25000  0.00000  1.0000
  Ge  Ge2       1.0  0.25000  0.75000  0.00000  1.0000
  Ge  Ge3       1.0  0.75000  0.25000  0.25800  1.0000
  Ge  Ge4       1.0  0.25000  0.75000  0.25800  1.0000
  Ge  Ge5       1.0  0.25000  0.25000  0.50000  1.0000
  Ge  Ge6       1.0  0.75000  0.75000  0.50000  1.0000
  Ge  Ge7       1.0  0.75000  0.25000  0.74200  1.0000
  Ge  Ge8       1.0  0.25000  0.75000  0.74200  1.0000
  N   N1        1.0  0.25000  0.25000  0.14400  1.0000
  N   N2        1.0  0.75000  0.75000  0.14400  1.0000
  N   N3        1.0  0.60500  0.10500  0.31700  1.0000
  N   N4        1.0  0.89500  0.39500  0.31700  1.0000
  N   N5        1.0  0.39500  0.60500  0.31700  1.0000
  N   N6        1.0  0.10500  0.89500  0.31700  1.0000
  N   N7        1.0  0.89500  0.10500  0.68300  1.0000
  N   N8        1.0  0.60500  0.39500  0.68300  1.0000
  N   N9        1.0  0.10500  0.60500  0.68300  1.0000
  N   N10       1.0  0.39500  0.89500  0.68300  1.0000
  N   N11       1.0  0.25000  0.25000  0.85600  1.0000
  N   N12       1.0  0.75000  0.75000  0.85600  1.0000
  Sr  Sr1       1.0  0.25000  0.25000  0.00000  1.0000
  Sr  Sr2       1.0  0.75000  0.75000  0.00000  1.0000
  Sr  Sr3       1.0  0.52900  0.02860  0.13000  1.0000
  Sr  Sr4       1.0  0.97100  0.47100  0.13000  1.0000
  Sr  Sr5       1.0  0.47100  0.52900  0.13000  1.0000
  Sr  Sr6       1.0  0.02860  0.97100  0.13000  1.0000
  Sr  Sr7       1.0  0.25000  0.25000  0.27400  1.0000
  Sr  Sr8       1.0  0.75000  0.75000  0.27400  1.0000
  Sr  Sr9       1.0  0.92100  0.07870  0.40100  1.0000
  Sr  Sr10      1.0  0.57900  0.42100  0.40100  1.0000
  Sr  Sr11      1.0  0.07870  0.57900  0.40100  1.0000
  Sr  Sr12      1.0  0.42100  0.92100  0.40100  1.0000
  Sr  Sr13      1.0  0.57900  0.07870  0.59900  1.0000
  Sr  Sr14      1.0  0.92100  0.42100  0.59900  1.0000
  Sr  Sr15      1.0  0.42100  0.57900  0.59900  1.0000
  Sr  Sr16      1.0  0.07870  0.92100  0.59900  1.0000
  Sr  Sr17      1.0  0.25000  0.25000  0.72600  1.0000
  Sr  Sr18      1.0  0.75000  0.75000  0.72600  1.0000
  Sr  Sr19      1.0  0.97100  0.02860  0.87000  1.0000
  Sr  Sr20      1.0  0.52900  0.47100  0.87000  1.0000
  Sr  Sr21      1.0  0.02860  0.52900  0.87000  1.0000
  Sr  Sr22      1.0  0.47100  0.97100  0.87000  1.0000
