data_image0
_chemical_formula_structural       Ca2Pd2W3
_chemical_formula_sum              "Ca2 Pd2 W3"
_cell_length_a       8.02156
_cell_length_b       8.02156
_cell_length_c       8.02156
_cell_angle_alpha    33.0046
_cell_angle_beta     33.0046
_cell_angle_gamma    33.0046

_space_group_name_H-M_alt    "P 1"
_space_group_IT_number       1

loop_
  _space_group_symop_operation_xyz
  'x, y, z'

loop_
  _atom_site_type_symbol
  _atom_site_label
  _atom_site_symmetry_multiplicity
  _atom_site_fract_x
  _atom_site_fract_y
  _atom_site_fract_z
  _atom_site_occupancy
  Ca  Ca1       1.0  0.19200  0.19200  0.19200  1.0000
  Ca  Ca2       1.0  0.76300  0.76300  0.76300  1.0000
  Pd  Pd1       1.0  0.04680  0.04680  0.04680  1.0000
  Pd  Pd2       1.0  0.49100  0.49100  0.49100  1.0000
  W   W1        1.0  0.32500  0.32500  0.32500  1.0000
  W   W2        1.0  0.62300  0.62300  0.62300  1.0000
  W   W3        1.0  0.93300  0.93300  0.93300  1.0000
