data_image0
_chemical_formula_structural       Cr3Ir2Tl2
_chemical_formula_sum              "Cr3 Ir2 Tl2"
_cell_length_a       7.30892
_cell_length_b       7.30892
_cell_length_c       7.30892
_cell_angle_alpha    35.8681
_cell_angle_beta     35.8681
_cell_angle_gamma    35.8681

_space_group_name_H-M_alt    "P 1"
_space_group_IT_number       1

loop_
  _space_group_symop_operation_xyz
  'x, y, z'

loop_
  _atom_site_type_symbol
  _atom_site_label
  _atom_site_symmetry_multiplicity
  _atom_site_fract_x
  _atom_site_fract_y
  _atom_site_fract_z
  _atom_site_occupancy
  Cr  Cr1       1.0  0.36200  0.36200  0.36200  1.0000
  Cr  Cr2       1.0  0.62600  0.62600  0.62600  1.0000
  Cr  Cr3       1.0  0.90100  0.90100  0.90100  1.0000
  Ir  Ir1       1.0  0.01730  0.01730  0.01730  1.0000
  Ir  Ir2       1.0  0.49700  0.49700  0.49700  1.0000
  Tl  Tl1       1.0  0.20900  0.20900  0.20900  1.0000
  Tl  Tl2       1.0  0.76200  0.76200  0.76200  1.0000
