data_image0
_chemical_formula_structural       Fe2Hf3Mn2
_chemical_formula_sum              "Fe2 Hf3 Mn2"
_cell_length_a       7.5096
_cell_length_b       7.5096
_cell_length_c       7.5096
_cell_angle_alpha    33.733
_cell_angle_beta     33.733
_cell_angle_gamma    33.733

_space_group_name_H-M_alt    "P 1"
_space_group_IT_number       1

loop_
  _space_group_symop_operation_xyz
  'x, y, z'

loop_
  _atom_site_type_symbol
  _atom_site_label
  _atom_site_symmetry_multiplicity
  _atom_site_fract_x
  _atom_site_fract_y
  _atom_site_fract_z
  _atom_site_occupancy
  Fe  Fe1       1.0  0.00070  0.00070  0.00070  1.0000
  Fe  Fe2       1.0  0.50500  0.50500  0.50500  1.0000
  Hf  Hf1       1.0  0.38300  0.38300  0.38300  1.0000
  Hf  Hf2       1.0  0.62500  0.62500  0.62500  1.0000
  Hf  Hf3       1.0  0.86700  0.86700  0.86700  1.0000
  Mn  Mn1       1.0  0.24600  0.24600  0.24600  1.0000
  Mn  Mn2       1.0  0.74900  0.74900  0.74900  1.0000
