data_image0
_chemical_formula_structural       Os2Re2Sn3
_chemical_formula_sum              "Os2 Re2 Sn3"
_cell_length_a       7.86005
_cell_length_b       7.86005
_cell_length_c       7.86005
_cell_angle_alpha    33.192
_cell_angle_beta     33.192
_cell_angle_gamma    33.192

_space_group_name_H-M_alt    "P 1"
_space_group_IT_number       1

loop_
  _space_group_symop_operation_xyz
  'x, y, z'

loop_
  _atom_site_type_symbol
  _atom_site_label
  _atom_site_symmetry_multiplicity
  _atom_site_fract_x
  _atom_site_fract_y
  _atom_site_fract_z
  _atom_site_occupancy
  Os  Os1       1.0  0.50300  0.50300  0.50300  1.0000
  Os  Os2       1.0  0.99500  0.99500  0.99500  1.0000
  Re  Re1       1.0  0.25000  0.25000  0.25000  1.0000
  Re  Re2       1.0  0.75000  0.75000  0.75000  1.0000
  Sn  Sn1       1.0  0.38300  0.38300  0.38300  1.0000
  Sn  Sn2       1.0  0.62600  0.62600  0.62600  1.0000
  Sn  Sn3       1.0  0.86900  0.86900  0.86900  1.0000
