data_image0
_chemical_formula_structural       Mg2Pt2W3
_chemical_formula_sum              "Mg2 Pt2 W3"
_cell_length_a       7.11039
_cell_length_b       7.11039
_cell_length_c       7.11039
_cell_angle_alpha    36.3167
_cell_angle_beta     36.3167
_cell_angle_gamma    36.3167

_space_group_name_H-M_alt    "P 1"
_space_group_IT_number       1

loop_
  _space_group_symop_operation_xyz
  'x, y, z'

loop_
  _atom_site_type_symbol
  _atom_site_label
  _atom_site_symmetry_multiplicity
  _atom_site_fract_x
  _atom_site_fract_y
  _atom_site_fract_z
  _atom_site_occupancy
  Mg  Mg1       1.0  0.19100  0.19100  0.19100  1.0000
  Mg  Mg2       1.0  0.76900  0.76900  0.76900  1.0000
  Pt  Pt1       1.0  0.05190  0.05190  0.05190  1.0000
  Pt  Pt2       1.0  0.48400  0.48400  0.48400  1.0000
  W   W1        1.0  0.33600  0.33600  0.33600  1.0000
  W   W2        1.0  0.62400  0.62400  0.62400  1.0000
  W   W3        1.0  0.91900  0.91900  0.91900  1.0000
