data_image0
_chemical_formula_structural       Cr3Ir2Y2
_chemical_formula_sum              "Cr3 Ir2 Y2"
_cell_length_a       7.68483
_cell_length_b       7.68483
_cell_length_c       7.68483
_cell_angle_alpha    34.4832
_cell_angle_beta     34.4832
_cell_angle_gamma    34.4832

_space_group_name_H-M_alt    "P 1"
_space_group_IT_number       1

loop_
  _space_group_symop_operation_xyz
  'x, y, z'

loop_
  _atom_site_type_symbol
  _atom_site_label
  _atom_site_symmetry_multiplicity
  _atom_site_fract_x
  _atom_site_fract_y
  _atom_site_fract_z
  _atom_site_occupancy
  Cr  Cr1       1.0  0.35900  0.35900  0.35900  1.0000
  Cr  Cr2       1.0  0.62700  0.62700  0.62700  1.0000
  Cr  Cr3       1.0  0.90500  0.90500  0.90500  1.0000
  Ir  Ir1       1.0  0.01280  0.01280  0.01280  1.0000
  Ir  Ir2       1.0  0.49900  0.49900  0.49900  1.0000
  Y   Y1        1.0  0.20800  0.20800  0.20800  1.0000
  Y   Y2        1.0  0.76400  0.76400  0.76400  1.0000
