data_image0
_chemical_formula_structural       Fe2Re2Sn3
_chemical_formula_sum              "Fe2 Re2 Sn3"
_cell_length_a       7.80784
_cell_length_b       7.80784
_cell_length_c       7.80784
_cell_angle_alpha    33.1002
_cell_angle_beta     33.1002
_cell_angle_gamma    33.1002

_space_group_name_H-M_alt    "P 1"
_space_group_IT_number       1

loop_
  _space_group_symop_operation_xyz
  'x, y, z'

loop_
  _atom_site_type_symbol
  _atom_site_label
  _atom_site_symmetry_multiplicity
  _atom_site_fract_x
  _atom_site_fract_y
  _atom_site_fract_z
  _atom_site_occupancy
  Fe  Fe1       1.0  0.24800  0.24800  0.24800  1.0000
  Fe  Fe2       1.0  0.75100  0.75100  0.75100  1.0000
  Re  Re1       1.0  0.50100  0.50100  0.50100  1.0000
  Re  Re2       1.0  0.99800  0.99800  0.99800  1.0000
  Sn  Sn1       1.0  0.38200  0.38200  0.38200  1.0000
  Sn  Sn2       1.0  0.62500  0.62500  0.62500  1.0000
  Sn  Sn3       1.0  0.86900  0.86900  0.86900  1.0000
