data_image0
_chemical_formula_structural       Mo3Ni2Sr2
_chemical_formula_sum              "Mo3 Ni2 Sr2"
_cell_length_a       9.06764
_cell_length_b       9.06764
_cell_length_c       9.06764
_cell_angle_alpha    28.1836
_cell_angle_beta     28.1836
_cell_angle_gamma    28.1836

_space_group_name_H-M_alt    "P 1"
_space_group_IT_number       1

loop_
  _space_group_symop_operation_xyz
  'x, y, z'

loop_
  _atom_site_type_symbol
  _atom_site_label
  _atom_site_symmetry_multiplicity
  _atom_site_fract_x
  _atom_site_fract_y
  _atom_site_fract_z
  _atom_site_occupancy
  Mo  Mo1       1.0  0.32500  0.32500  0.32500  1.0000
  Mo  Mo2       1.0  0.62700  0.62700  0.62700  1.0000
  Mo  Mo3       1.0  0.92900  0.92900  0.92900  1.0000
  Ni  Ni1       1.0  0.01960  0.01960  0.01960  1.0000
  Ni  Ni2       1.0  0.53500  0.53500  0.53500  1.0000
  Sr  Sr1       1.0  0.18500  0.18500  0.18500  1.0000
  Sr  Sr2       1.0  0.75400  0.75400  0.75400  1.0000
