data_image0
_chemical_formula_structural       Au2Li2W3
_chemical_formula_sum              "Au2 Li2 W3"
_cell_length_a       7.56421
_cell_length_b       7.56421
_cell_length_c       7.56421
_cell_angle_alpha    33.8813
_cell_angle_beta     33.8813
_cell_angle_gamma    33.8813

_space_group_name_H-M_alt    "P 1"
_space_group_IT_number       1

loop_
  _space_group_symop_operation_xyz
  'x, y, z'

loop_
  _atom_site_type_symbol
  _atom_site_label
  _atom_site_symmetry_multiplicity
  _atom_site_fract_x
  _atom_site_fract_y
  _atom_site_fract_z
  _atom_site_occupancy
  Au  Au1       1.0  0.07200  0.07200  0.07200  1.0000
  Au  Au2       1.0  0.47300  0.47300  0.47300  1.0000
  Li  Li1       1.0  0.19500  0.19500  0.19500  1.0000
  Li  Li2       1.0  0.76400  0.76400  0.76400  1.0000
  W   W1        1.0  0.32600  0.32600  0.32600  1.0000
  W   W2        1.0  0.59700  0.59700  0.59700  1.0000
  W   W3        1.0  0.94800  0.94800  0.94800  1.0000
