data_image0
_chemical_formula_structural       Ca2Pt2W3
_chemical_formula_sum              "Ca2 Pt2 W3"
_cell_length_a       8.06603
_cell_length_b       8.06603
_cell_length_c       8.06603
_cell_angle_alpha    32.6235
_cell_angle_beta     32.6235
_cell_angle_gamma    32.6235

_space_group_name_H-M_alt    "P 1"
_space_group_IT_number       1

loop_
  _space_group_symop_operation_xyz
  'x, y, z'

loop_
  _atom_site_type_symbol
  _atom_site_label
  _atom_site_symmetry_multiplicity
  _atom_site_fract_x
  _atom_site_fract_y
  _atom_site_fract_z
  _atom_site_occupancy
  Ca  Ca1       1.0  0.19300  0.19300  0.19300  1.0000
  Ca  Ca2       1.0  0.76500  0.76500  0.76500  1.0000
  Pt  Pt1       1.0  0.03540  0.03540  0.03540  1.0000
  Pt  Pt2       1.0  0.50400  0.50400  0.50400  1.0000
  W   W1        1.0  0.33100  0.33100  0.33100  1.0000
  W   W2        1.0  0.62400  0.62400  0.62400  1.0000
  W   W3        1.0  0.92300  0.92300  0.92300  1.0000
