data_image0
_chemical_formula_structural       Ge8Na2O26Pr6
_chemical_formula_sum              "Ge8 Na2 O26 Pr6"
_cell_length_a       7.1097
_cell_length_b       11.8206
_cell_length_c       6.88929
_cell_angle_alpha    98.6427
_cell_angle_beta     91.4207
_cell_angle_gamma    102.426

_space_group_name_H-M_alt    "P 1"
_space_group_IT_number       1

loop_
  _space_group_symop_operation_xyz
  'x, y, z'

loop_
  _atom_site_type_symbol
  _atom_site_label
  _atom_site_symmetry_multiplicity
  _atom_site_fract_x
  _atom_site_fract_y
  _atom_site_fract_z
  _atom_site_occupancy
  Ge  Ge1       1.0  0.59900  0.89900  0.11400  1.0000
  Ge  Ge2       1.0  0.93900  0.12400  0.22800  1.0000
  Ge  Ge3       1.0  0.15600  0.59600  0.30800  1.0000
  Ge  Ge4       1.0  0.72100  0.56600  0.40600  1.0000
  Ge  Ge5       1.0  0.27900  0.43400  0.59400  1.0000
  Ge  Ge6       1.0  0.84400  0.40400  0.69200  1.0000
  Ge  Ge7       1.0  0.06080  0.87600  0.77200  1.0000
  Ge  Ge8       1.0  0.40100  0.10100  0.88600  1.0000
  Na  Na1       1.0  0.80400  0.34900  0.12200  1.0000
  Na  Na2       1.0  0.19600  0.65100  0.87800  1.0000
  O   O1        1.0  0.79300  0.00963  0.04660  1.0000
  O   O2        1.0  0.01390  0.22200  0.06500  1.0000
  O   O3        1.0  0.49500  0.19500  0.10500  1.0000
  O   O4        1.0  0.11200  0.46700  0.14800  1.0000
  O   O5        1.0  0.57800  0.51800  0.18800  1.0000
  O   O6        1.0  0.31000  0.71800  0.24200  1.0000
  O   O7        1.0  0.72500  0.81600  0.24600  1.0000
  O   O8        1.0  0.45100  0.95800  0.28700  1.0000
  O   O9        1.0  0.93700  0.65200  0.32100  1.0000
  O   O10       1.0  0.11300  0.07340  0.36000  1.0000
  O   O11       1.0  0.35600  0.34400  0.40500  1.0000
  O   O12       1.0  0.79400  0.16700  0.41200  1.0000
  O   O13       1.0  0.78200  0.43200  0.45200  1.0000
  O   O14       1.0  0.21800  0.56800  0.54800  1.0000
  O   O15       1.0  0.20600  0.83300  0.58800  1.0000
  O   O16       1.0  0.64400  0.65600  0.59500  1.0000
  O   O17       1.0  0.88700  0.92700  0.64000  1.0000
  O   O18       1.0  0.06310  0.34800  0.67900  1.0000
  O   O19       1.0  0.54900  0.04230  0.71300  1.0000
  O   O20       1.0  0.27500  0.18400  0.75400  1.0000
  O   O21       1.0  0.69000  0.28200  0.75800  1.0000
  O   O22       1.0  0.42200  0.48200  0.81200  1.0000
  O   O23       1.0  0.88800  0.53300  0.85200  1.0000
  O   O24       1.0  0.50500  0.80500  0.89500  1.0000
  O   O25       1.0  0.98600  0.77800  0.93500  1.0000
  O   O26       1.0  0.20700  0.99000  0.95300  1.0000
  Pr  Pr1       1.0  0.32500  0.35300  0.04880  1.0000
  Pr  Pr2       1.0  0.08820  0.86600  0.27500  1.0000
  Pr  Pr3       1.0  0.46300  0.16700  0.44800  1.0000
  Pr  Pr4       1.0  0.53700  0.83300  0.55200  1.0000
  Pr  Pr5       1.0  0.91200  0.13400  0.72500  1.0000
  Pr  Pr6       1.0  0.67500  0.64700  0.95100  1.0000
