data_image0
_chemical_formula_structural       B2Co2Cr3
_chemical_formula_sum              "B2 Co2 Cr3"
_cell_length_a       5.8297
_cell_length_b       5.8297
_cell_length_c       5.8297
_cell_angle_alpha    37.4922
_cell_angle_beta     37.4922
_cell_angle_gamma    37.4922

_space_group_name_H-M_alt    "P 1"
_space_group_IT_number       1

loop_
  _space_group_symop_operation_xyz
  'x, y, z'

loop_
  _atom_site_type_symbol
  _atom_site_label
  _atom_site_symmetry_multiplicity
  _atom_site_fract_x
  _atom_site_fract_y
  _atom_site_fract_z
  _atom_site_occupancy
  B   B1        1.0  0.04690  0.04690  0.04690  1.0000
  B   B2        1.0  0.49200  0.49200  0.49200  1.0000
  Co  Co1       1.0  0.18100  0.18100  0.18100  1.0000
  Co  Co2       1.0  0.77000  0.77000  0.77000  1.0000
  Cr  Cr1       1.0  0.34900  0.34900  0.34900  1.0000
  Cr  Cr2       1.0  0.62600  0.62600  0.62600  1.0000
  Cr  Cr3       1.0  0.91100  0.91100  0.91100  1.0000
