data_image0
_chemical_formula_structural       La2Mo3Rh2
_chemical_formula_sum              "La2 Mo3 Rh2"
_cell_length_a       8.69686
_cell_length_b       8.69686
_cell_length_c       8.69686
_cell_angle_alpha    29.7531
_cell_angle_beta     29.7531
_cell_angle_gamma    29.7531

_space_group_name_H-M_alt    "P 1"
_space_group_IT_number       1

loop_
  _space_group_symop_operation_xyz
  'x, y, z'

loop_
  _atom_site_type_symbol
  _atom_site_label
  _atom_site_symmetry_multiplicity
  _atom_site_fract_x
  _atom_site_fract_y
  _atom_site_fract_z
  _atom_site_occupancy
  La  La1       1.0  0.19800  0.19800  0.19800  1.0000
  La  La2       1.0  0.76200  0.76200  0.76200  1.0000
  Mo  Mo1       1.0  0.33100  0.33100  0.33100  1.0000
  Mo  Mo2       1.0  0.62500  0.62500  0.62500  1.0000
  Mo  Mo3       1.0  0.92300  0.92300  0.92300  1.0000
  Rh  Rh1       1.0  0.02510  0.02510  0.02510  1.0000
  Rh  Rh2       1.0  0.51000  0.51000  0.51000  1.0000
