data_image0
_chemical_formula_structural       Be2Mo3Pt2
_chemical_formula_sum              "Be2 Mo3 Pt2"
_cell_length_a       6.65945
_cell_length_b       6.65945
_cell_length_c       6.65945
_cell_angle_alpha    37.1775
_cell_angle_beta     37.1775
_cell_angle_gamma    37.1775

_space_group_name_H-M_alt    "P 1"
_space_group_IT_number       1

loop_
  _space_group_symop_operation_xyz
  'x, y, z'

loop_
  _atom_site_type_symbol
  _atom_site_label
  _atom_site_symmetry_multiplicity
  _atom_site_fract_x
  _atom_site_fract_y
  _atom_site_fract_z
  _atom_site_occupancy
  Be  Be1       1.0  0.19300  0.19300  0.19300  1.0000
  Be  Be2       1.0  0.76700  0.76700  0.76700  1.0000
  Mo  Mo1       1.0  0.33400  0.33400  0.33400  1.0000
  Mo  Mo2       1.0  0.62600  0.62600  0.62600  1.0000
  Mo  Mo3       1.0  0.90900  0.90900  0.90900  1.0000
  Pt  Pt1       1.0  0.06330  0.06330  0.06330  1.0000
  Pt  Pt2       1.0  0.48200  0.48200  0.48200  1.0000
