data_image0
_chemical_formula_structural       Be2Pd2W3
_chemical_formula_sum              "Be2 Pd2 W3"
_cell_length_a       6.65872
_cell_length_b       6.65872
_cell_length_c       6.65872
_cell_angle_alpha    37.3941
_cell_angle_beta     37.3941
_cell_angle_gamma    37.3941

_space_group_name_H-M_alt    "P 1"
_space_group_IT_number       1

loop_
  _space_group_symop_operation_xyz
  'x, y, z'

loop_
  _atom_site_type_symbol
  _atom_site_label
  _atom_site_symmetry_multiplicity
  _atom_site_fract_x
  _atom_site_fract_y
  _atom_site_fract_z
  _atom_site_occupancy
  Be  Be1       1.0  0.19700  0.19700  0.19700  1.0000
  Be  Be2       1.0  0.76300  0.76300  0.76300  1.0000
  Pd  Pd1       1.0  0.06570  0.06570  0.06570  1.0000
  Pd  Pd2       1.0  0.48100  0.48100  0.48100  1.0000
  W   W1        1.0  0.33700  0.33700  0.33700  1.0000
  W   W2        1.0  0.62400  0.62400  0.62400  1.0000
  W   W3        1.0  0.90800  0.90800  0.90800  1.0000
