data_image0
_chemical_formula_structural       Ba2Pd2W3
_chemical_formula_sum              "Ba2 Pd2 W3"
_cell_length_a       10.5592
_cell_length_b       10.5592
_cell_length_c       10.5592
_cell_angle_alpha    24.3083
_cell_angle_beta     24.3083
_cell_angle_gamma    24.3083

_space_group_name_H-M_alt    "P 1"
_space_group_IT_number       1

loop_
  _space_group_symop_operation_xyz
  'x, y, z'

loop_
  _atom_site_type_symbol
  _atom_site_label
  _atom_site_symmetry_multiplicity
  _atom_site_fract_x
  _atom_site_fract_y
  _atom_site_fract_z
  _atom_site_occupancy
  Ba  Ba1       1.0  0.17200  0.17200  0.17200  1.0000
  Ba  Ba2       1.0  0.74500  0.74500  0.74500  1.0000
  Pd  Pd1       1.0  0.02290  0.02290  0.02290  1.0000
  Pd  Pd2       1.0  0.55000  0.55000  0.55000  1.0000
  W   W1        1.0  0.31700  0.31700  0.31700  1.0000
  W   W2        1.0  0.63300  0.63300  0.63300  1.0000
  W   W3        1.0  0.93500  0.93500  0.93500  1.0000
