data_image0
_chemical_formula_structural       B2Ir2Mo3
_chemical_formula_sum              "B2 Ir2 Mo3"
_cell_length_a       6.36679
_cell_length_b       6.36679
_cell_length_c       6.36679
_cell_angle_alpha    38.6035
_cell_angle_beta     38.6035
_cell_angle_gamma    38.6035

_space_group_name_H-M_alt    "P 1"
_space_group_IT_number       1

loop_
  _space_group_symop_operation_xyz
  'x, y, z'

loop_
  _atom_site_type_symbol
  _atom_site_label
  _atom_site_symmetry_multiplicity
  _atom_site_fract_x
  _atom_site_fract_y
  _atom_site_fract_z
  _atom_site_occupancy
  B   B1        1.0  0.19800  0.19800  0.19800  1.0000
  B   B2        1.0  0.76400  0.76400  0.76400  1.0000
  Ir  Ir1       1.0  0.07090  0.07090  0.07090  1.0000
  Ir  Ir2       1.0  0.48100  0.48100  0.48100  1.0000
  Mo  Mo1       1.0  0.33500  0.33500  0.33500  1.0000
  Mo  Mo2       1.0  0.62800  0.62800  0.62800  1.0000
  Mo  Mo3       1.0  0.89800  0.89800  0.89800  1.0000
