data_image0
_chemical_formula_structural       Na4O26Si8Ti4
_chemical_formula_sum              "Na4 O26 Si8 Ti4"
_cell_length_a       5.21365
_cell_length_b       8.61649
_cell_length_c       12.8371
_cell_angle_alpha    70.3905
_cell_angle_beta     99.4717
_cell_angle_gamma    90

_space_group_name_H-M_alt    "P 1"
_space_group_IT_number       1

loop_
  _space_group_symop_operation_xyz
  'x, y, z'

loop_
  _atom_site_type_symbol
  _atom_site_label
  _atom_site_symmetry_multiplicity
  _atom_site_fract_x
  _atom_site_fract_y
  _atom_site_fract_z
  _atom_site_occupancy
  Na  Na1       1.0  0.80000  0.04760  0.30100  1.0000
  Na  Na2       1.0  0.30000  0.65100  0.30100  1.0000
  Na  Na3       1.0  0.70000  0.34900  0.69900  1.0000
  Na  Na4       1.0  0.20000  0.95200  0.69900  1.0000
  O   O1        1.0  0.25000  0.14700  0.00000  1.0000
  O   O2        1.0  0.75000  0.85300  0.00000  1.0000
  O   O3        1.0  0.50000  0.88100  0.15900  1.0000
  O   O4        1.0  0.00023  0.96100  0.15900  1.0000
  O   O5        1.0  0.88700  0.65100  0.20900  1.0000
  O   O6        1.0  0.38700  0.14000  0.20900  1.0000
  O   O7        1.0  0.94600  0.31600  0.22400  1.0000
  O   O8        1.0  0.44600  0.45900  0.22400  1.0000
  O   O9        1.0  0.66700  0.21800  0.39800  1.0000
  O   O10       1.0  0.16700  0.38400  0.39800  1.0000
  O   O11       1.0  0.51700  0.80700  0.41300  1.0000
  O   O12       1.0  0.01750  0.78100  0.41300  1.0000
  O   O13       1.0  0.71600  0.52800  0.41500  1.0000
  O   O14       1.0  0.21600  0.05700  0.41500  1.0000
  O   O15       1.0  0.28400  0.47200  0.58500  1.0000
  O   O16       1.0  0.78400  0.94300  0.58500  1.0000
  O   O17       1.0  0.48300  0.19300  0.58700  1.0000
  O   O18       1.0  0.98300  0.21900  0.58700  1.0000
  O   O19       1.0  0.83300  0.61600  0.60200  1.0000
  O   O20       1.0  0.33300  0.78200  0.60200  1.0000
  O   O21       1.0  0.05430  0.68400  0.77600  1.0000
  O   O22       1.0  0.55400  0.54100  0.77600  1.0000
  O   O23       1.0  0.61300  0.86000  0.79100  1.0000
  O   O24       1.0  0.11300  0.34900  0.79100  1.0000
  O   O25       1.0  0.50000  0.11900  0.84100  1.0000
  O   O26       1.0  0.00000  0.03940  0.84100  1.0000
  Si  Si1       1.0  0.78200  0.83300  0.13100  1.0000
  Si  Si2       1.0  0.28200  0.03590  0.13100  1.0000
  Si  Si3       1.0  0.77700  0.67400  0.46500  1.0000
  Si  Si4       1.0  0.27700  0.86100  0.46500  1.0000
  Si  Si5       1.0  0.72300  0.13900  0.53500  1.0000
  Si  Si6       1.0  0.22300  0.32600  0.53500  1.0000
  Si  Si7       1.0  0.71800  0.96400  0.86900  1.0000
  Si  Si8       1.0  0.21800  0.16700  0.86900  1.0000
  Ti  Ti1       1.0  0.78400  0.44000  0.29600  1.0000
  Ti  Ti2       1.0  0.28400  0.26400  0.29600  1.0000
  Ti  Ti3       1.0  0.71600  0.73600  0.70400  1.0000
  Ti  Ti4       1.0  0.21600  0.56000  0.70400  1.0000
