data_image0
_chemical_formula_structural       Ba2Pt2W3
_chemical_formula_sum              "Ba2 Pt2 W3"
_cell_length_a       11.4424
_cell_length_b       11.4424
_cell_length_c       11.4424
_cell_angle_alpha    21.8833
_cell_angle_beta     21.8833
_cell_angle_gamma    21.8833

_space_group_name_H-M_alt    "P 1"
_space_group_IT_number       1

loop_
  _space_group_symop_operation_xyz
  'x, y, z'

loop_
  _atom_site_type_symbol
  _atom_site_label
  _atom_site_symmetry_multiplicity
  _atom_site_fract_x
  _atom_site_fract_y
  _atom_site_fract_z
  _atom_site_occupancy
  Ba  Ba1       1.0  0.20500  0.20500  0.20500  1.0000
  Ba  Ba2       1.0  0.75700  0.75700  0.75700  1.0000
  Pt  Pt1       1.0  0.02320  0.02320  0.02320  1.0000
  Pt  Pt2       1.0  0.48100  0.48100  0.48100  1.0000
  W   W1        1.0  0.33000  0.33000  0.33000  1.0000
  W   W2        1.0  0.63400  0.63400  0.63400  1.0000
  W   W3        1.0  0.94500  0.94500  0.94500  1.0000
