data_image0
_chemical_formula_structural       Co2Cr3Sc2
_chemical_formula_sum              "Co2 Cr3 Sc2"
_cell_length_a       6.87864
_cell_length_b       6.87864
_cell_length_c       6.87864
_cell_angle_alpha    35.3835
_cell_angle_beta     35.3835
_cell_angle_gamma    35.3835

_space_group_name_H-M_alt    "P 1"
_space_group_IT_number       1

loop_
  _space_group_symop_operation_xyz
  'x, y, z'

loop_
  _atom_site_type_symbol
  _atom_site_label
  _atom_site_symmetry_multiplicity
  _atom_site_fract_x
  _atom_site_fract_y
  _atom_site_fract_z
  _atom_site_occupancy
  Co  Co1       1.0  0.04510  0.04510  0.04510  1.0000
  Co  Co2       1.0  0.48100  0.48100  0.48100  1.0000
  Cr  Cr1       1.0  0.34100  0.34100  0.34100  1.0000
  Cr  Cr2       1.0  0.62400  0.62400  0.62400  1.0000
  Cr  Cr3       1.0  0.92300  0.92300  0.92300  1.0000
  Sc  Sc1       1.0  0.19500  0.19500  0.19500  1.0000
  Sc  Sc2       1.0  0.76500  0.76500  0.76500  1.0000
