data_image0
_chemical_formula_structural       Cr3Ga2Rh2
_chemical_formula_sum              "Cr3 Ga2 Rh2"
_cell_length_a       6.64301
_cell_length_b       6.64301
_cell_length_c       6.64301
_cell_angle_alpha    36.1384
_cell_angle_beta     36.1384
_cell_angle_gamma    36.1384

_space_group_name_H-M_alt    "P 1"
_space_group_IT_number       1

loop_
  _space_group_symop_operation_xyz
  'x, y, z'

loop_
  _atom_site_type_symbol
  _atom_site_label
  _atom_site_symmetry_multiplicity
  _atom_site_fract_x
  _atom_site_fract_y
  _atom_site_fract_z
  _atom_site_occupancy
  Cr  Cr1       1.0  0.33200  0.33200  0.33200  1.0000
  Cr  Cr2       1.0  0.62500  0.62500  0.62500  1.0000
  Cr  Cr3       1.0  0.91800  0.91800  0.91800  1.0000
  Ga  Ga1       1.0  0.20000  0.20000  0.20000  1.0000
  Ga  Ga2       1.0  0.76600  0.76600  0.76600  1.0000
  Rh  Rh1       1.0  0.05080  0.05080  0.05080  1.0000
  Rh  Rh2       1.0  0.48300  0.48300  0.48300  1.0000
