data_image0
_chemical_formula_structural       Mg2Pd2W3
_chemical_formula_sum              "Mg2 Pd2 W3"
_cell_length_a       7.16739
_cell_length_b       7.16739
_cell_length_c       7.16739
_cell_angle_alpha    35.9464
_cell_angle_beta     35.9464
_cell_angle_gamma    35.9464

_space_group_name_H-M_alt    "P 1"
_space_group_IT_number       1

loop_
  _space_group_symop_operation_xyz
  'x, y, z'

loop_
  _atom_site_type_symbol
  _atom_site_label
  _atom_site_symmetry_multiplicity
  _atom_site_fract_x
  _atom_site_fract_y
  _atom_site_fract_z
  _atom_site_occupancy
  Mg  Mg1       1.0  0.19100  0.19100  0.19100  1.0000
  Mg  Mg2       1.0  0.76800  0.76800  0.76800  1.0000
  Pd  Pd1       1.0  0.05440  0.05440  0.05440  1.0000
  Pd  Pd2       1.0  0.48300  0.48300  0.48300  1.0000
  W   W1        1.0  0.33400  0.33400  0.33400  1.0000
  W   W2        1.0  0.62300  0.62300  0.62300  1.0000
  W   W3        1.0  0.92100  0.92100  0.92100  1.0000
