data_image0
_chemical_formula_structural       Mn2Pb3Ru2
_chemical_formula_sum              "Mn2 Pb3 Ru2"
_cell_length_a       8.15326
_cell_length_b       8.15326
_cell_length_c       8.15326
_cell_angle_alpha    33.0765
_cell_angle_beta     33.0765
_cell_angle_gamma    33.0765

_space_group_name_H-M_alt    "P 1"
_space_group_IT_number       1

loop_
  _space_group_symop_operation_xyz
  'x, y, z'

loop_
  _atom_site_type_symbol
  _atom_site_label
  _atom_site_symmetry_multiplicity
  _atom_site_fract_x
  _atom_site_fract_y
  _atom_site_fract_z
  _atom_site_occupancy
  Mn  Mn1       1.0  0.24400  0.24400  0.24400  1.0000
  Mn  Mn2       1.0  0.74900  0.74900  0.74900  1.0000
  Pb  Pb1       1.0  0.38800  0.38800  0.38800  1.0000
  Pb  Pb2       1.0  0.62800  0.62800  0.62800  1.0000
  Pb  Pb3       1.0  0.86500  0.86500  0.86500  1.0000
  Ru  Ru1       1.0  0.50900  0.50900  0.50900  1.0000
  Ru  Ru2       1.0  0.99200  0.99200  0.99200  1.0000
