data_image0
_chemical_formula_structural       Mo3Rh2Y2
_chemical_formula_sum              "Mo3 Rh2 Y2"
_cell_length_a       7.78378
_cell_length_b       7.78378
_cell_length_c       7.78378
_cell_angle_alpha    33.7768
_cell_angle_beta     33.7768
_cell_angle_gamma    33.7768

_space_group_name_H-M_alt    "P 1"
_space_group_IT_number       1

loop_
  _space_group_symop_operation_xyz
  'x, y, z'

loop_
  _atom_site_type_symbol
  _atom_site_label
  _atom_site_symmetry_multiplicity
  _atom_site_fract_x
  _atom_site_fract_y
  _atom_site_fract_z
  _atom_site_occupancy
  Mo  Mo1       1.0  0.33700  0.33700  0.33700  1.0000
  Mo  Mo2       1.0  0.62400  0.62400  0.62400  1.0000
  Mo  Mo3       1.0  0.92100  0.92100  0.92100  1.0000
  Rh  Rh1       1.0  0.03670  0.03670  0.03670  1.0000
  Rh  Rh2       1.0  0.49400  0.49400  0.49400  1.0000
  Y   Y1        1.0  0.19600  0.19600  0.19600  1.0000
  Y   Y2        1.0  0.76600  0.76600  0.76600  1.0000
