data_image0
_chemical_formula_structural       Cr3Ga2Ir2
_chemical_formula_sum              "Cr3 Ga2 Ir2"
_cell_length_a       6.65397
_cell_length_b       6.65397
_cell_length_c       6.65397
_cell_angle_alpha    36.3877
_cell_angle_beta     36.3877
_cell_angle_gamma    36.3877

_space_group_name_H-M_alt    "P 1"
_space_group_IT_number       1

loop_
  _space_group_symop_operation_xyz
  'x, y, z'

loop_
  _atom_site_type_symbol
  _atom_site_label
  _atom_site_symmetry_multiplicity
  _atom_site_fract_x
  _atom_site_fract_y
  _atom_site_fract_z
  _atom_site_occupancy
  Cr  Cr1       1.0  0.33400  0.33400  0.33400  1.0000
  Cr  Cr2       1.0  0.62600  0.62600  0.62600  1.0000
  Cr  Cr3       1.0  0.91500  0.91500  0.91500  1.0000
  Ga  Ga1       1.0  0.20100  0.20100  0.20100  1.0000
  Ga  Ga2       1.0  0.76600  0.76600  0.76600  1.0000
  Ir  Ir1       1.0  0.04970  0.04970  0.04970  1.0000
  Ir  Ir2       1.0  0.48300  0.48300  0.48300  1.0000
