data_image0
_chemical_formula_structural       Al2Mo3Rh2
_chemical_formula_sum              "Al2 Mo3 Rh2"
_cell_length_a       6.84378
_cell_length_b       6.84378
_cell_length_c       6.84378
_cell_angle_alpha    36.9331
_cell_angle_beta     36.9331
_cell_angle_gamma    36.9331

_space_group_name_H-M_alt    "P 1"
_space_group_IT_number       1

loop_
  _space_group_symop_operation_xyz
  'x, y, z'

loop_
  _atom_site_type_symbol
  _atom_site_label
  _atom_site_symmetry_multiplicity
  _atom_site_fract_x
  _atom_site_fract_y
  _atom_site_fract_z
  _atom_site_occupancy
  Al  Al1       1.0  0.19200  0.19200  0.19200  1.0000
  Al  Al2       1.0  0.76900  0.76900  0.76900  1.0000
  Mo  Mo1       1.0  0.33700  0.33700  0.33700  1.0000
  Mo  Mo2       1.0  0.62500  0.62500  0.62500  1.0000
  Mo  Mo3       1.0  0.91400  0.91400  0.91400  1.0000
  Rh  Rh1       1.0  0.05560  0.05560  0.05560  1.0000
  Rh  Rh2       1.0  0.48100  0.48100  0.48100  1.0000
