data_image0
_chemical_formula_structural       Li2NaO12Ru6
_chemical_formula_sum              "Li2 Na1 O12 Ru6"
_cell_length_a       9.46222
_cell_length_b       9.4636
_cell_length_c       2.73781
_cell_angle_alpha    90.1627
_cell_angle_beta     89.9322
_cell_angle_gamma    120.046

_space_group_name_H-M_alt    "P 1"
_space_group_IT_number       1

loop_
  _space_group_symop_operation_xyz
  'x, y, z'

loop_
  _atom_site_type_symbol
  _atom_site_label
  _atom_site_symmetry_multiplicity
  _atom_site_fract_x
  _atom_site_fract_y
  _atom_site_fract_z
  _atom_site_occupancy
  Li  Li1       1.0  0.33400  0.66700  0.25100  1.0000
  Li  Li2       1.0  0.66600  0.33300  0.74900  1.0000
  Na  Na1       1.0  0.00000  0.00000  0.00000  1.0000
  O   O1        1.0  0.59000  0.45400  0.24900  1.0000
  O   O2        1.0  0.18500  0.89400  0.24900  1.0000
  O   O3        1.0  0.10700  0.29300  0.25000  1.0000
  O   O4        1.0  0.54500  0.13500  0.25000  1.0000
  O   O5        1.0  0.86500  0.41000  0.25100  1.0000
  O   O6        1.0  0.70800  0.81400  0.25200  1.0000
  O   O7        1.0  0.29200  0.18600  0.74800  1.0000
  O   O8        1.0  0.13500  0.59000  0.74900  1.0000
  O   O9        1.0  0.45500  0.86500  0.75000  1.0000
  O   O10       1.0  0.89300  0.70700  0.75000  1.0000
  O   O11       1.0  0.81500  0.10600  0.75100  1.0000
  O   O12       1.0  0.41000  0.54600  0.75100  1.0000
  Ru  Ru1       1.0  0.34200  0.35800  0.24900  1.0000
  Ru  Ru2       1.0  0.01620  0.65800  0.24900  1.0000
  Ru  Ru3       1.0  0.64200  0.98400  0.25000  1.0000
  Ru  Ru4       1.0  0.35800  0.01630  0.75000  1.0000
  Ru  Ru5       1.0  0.98400  0.34200  0.75100  1.0000
  Ru  Ru6       1.0  0.65800  0.64200  0.75100  1.0000
