data_image0
_chemical_formula_structural       Cr3Rh2Tl2
_chemical_formula_sum              "Cr3 Rh2 Tl2"
_cell_length_a       7.17849
_cell_length_b       7.17849
_cell_length_c       7.17849
_cell_angle_alpha    36.2955
_cell_angle_beta     36.2955
_cell_angle_gamma    36.2955

_space_group_name_H-M_alt    "P 1"
_space_group_IT_number       1

loop_
  _space_group_symop_operation_xyz
  'x, y, z'

loop_
  _atom_site_type_symbol
  _atom_site_label
  _atom_site_symmetry_multiplicity
  _atom_site_fract_x
  _atom_site_fract_y
  _atom_site_fract_z
  _atom_site_occupancy
  Cr  Cr1       1.0  0.34500  0.34500  0.34500  1.0000
  Cr  Cr2       1.0  0.61800  0.61800  0.61800  1.0000
  Cr  Cr3       1.0  0.92000  0.92000  0.92000  1.0000
  Rh  Rh1       1.0  0.04420  0.04420  0.04420  1.0000
  Rh  Rh2       1.0  0.48300  0.48300  0.48300  1.0000
  Tl  Tl1       1.0  0.20200  0.20200  0.20200  1.0000
  Tl  Tl2       1.0  0.76200  0.76200  0.76200  1.0000
