data_image0
_chemical_formula_structural       Mo3Pd2Sr2
_chemical_formula_sum              "Mo3 Pd2 Sr2"
_cell_length_a       8.99312
_cell_length_b       8.99312
_cell_length_c       8.99312
_cell_angle_alpha    29.3022
_cell_angle_beta     29.3022
_cell_angle_gamma    29.3022

_space_group_name_H-M_alt    "P 1"
_space_group_IT_number       1

loop_
  _space_group_symop_operation_xyz
  'x, y, z'

loop_
  _atom_site_type_symbol
  _atom_site_label
  _atom_site_symmetry_multiplicity
  _atom_site_fract_x
  _atom_site_fract_y
  _atom_site_fract_z
  _atom_site_occupancy
  Mo  Mo1       1.0  0.32200  0.32200  0.32200  1.0000
  Mo  Mo2       1.0  0.62400  0.62400  0.62400  1.0000
  Mo  Mo3       1.0  0.93600  0.93600  0.93600  1.0000
  Pd  Pd1       1.0  0.03440  0.03440  0.03440  1.0000
  Pd  Pd2       1.0  0.50200  0.50200  0.50200  1.0000
  Sr  Sr1       1.0  0.19800  0.19800  0.19800  1.0000
  Sr  Sr2       1.0  0.76000  0.76000  0.76000  1.0000
