data_image0
_chemical_formula_structural       Cr3Ir2La2
_chemical_formula_sum              "Cr3 Ir2 La2"
_cell_length_a       8.33445
_cell_length_b       8.33445
_cell_length_c       8.33445
_cell_angle_alpha    31.8585
_cell_angle_beta     31.8585
_cell_angle_gamma    31.8585

_space_group_name_H-M_alt    "P 1"
_space_group_IT_number       1

loop_
  _space_group_symop_operation_xyz
  'x, y, z'

loop_
  _atom_site_type_symbol
  _atom_site_label
  _atom_site_symmetry_multiplicity
  _atom_site_fract_x
  _atom_site_fract_y
  _atom_site_fract_z
  _atom_site_occupancy
  Cr  Cr1       1.0  0.35400  0.35400  0.35400  1.0000
  Cr  Cr2       1.0  0.62100  0.62100  0.62100  1.0000
  Cr  Cr3       1.0  0.92200  0.92200  0.92200  1.0000
  Ir  Ir1       1.0  0.01850  0.01850  0.01850  1.0000
  Ir  Ir2       1.0  0.49500  0.49500  0.49500  1.0000
  La  La1       1.0  0.20300  0.20300  0.20300  1.0000
  La  La2       1.0  0.76200  0.76200  0.76200  1.0000
