data_image0
_chemical_formula_structural       Pt2Sr2W3
_chemical_formula_sum              "Pt2 Sr2 W3"
_cell_length_a       9.71572
_cell_length_b       9.71572
_cell_length_c       9.71572
_cell_angle_alpha    26.2401
_cell_angle_beta     26.2401
_cell_angle_gamma    26.2401

_space_group_name_H-M_alt    "P 1"
_space_group_IT_number       1

loop_
  _space_group_symop_operation_xyz
  'x, y, z'

loop_
  _atom_site_type_symbol
  _atom_site_label
  _atom_site_symmetry_multiplicity
  _atom_site_fract_x
  _atom_site_fract_y
  _atom_site_fract_z
  _atom_site_occupancy
  Pt  Pt1       1.0  0.02590  0.02590  0.02590  1.0000
  Pt  Pt2       1.0  0.54200  0.54200  0.54200  1.0000
  Sr  Sr1       1.0  0.16700  0.16700  0.16700  1.0000
  Sr  Sr2       1.0  0.75100  0.75100  0.75100  1.0000
  W   W1        1.0  0.32800  0.32800  0.32800  1.0000
  W   W2        1.0  0.63200  0.63200  0.63200  1.0000
  W   W3        1.0  0.93000  0.93000  0.93000  1.0000
