data_image0
_chemical_formula_structural       Cr3Os2Ti2
_chemical_formula_sum              "Cr3 Os2 Ti2"
_cell_length_a       7.12711
_cell_length_b       7.12711
_cell_length_c       7.12711
_cell_angle_alpha    33.775
_cell_angle_beta     33.775
_cell_angle_gamma    33.775

_space_group_name_H-M_alt    "P 1"
_space_group_IT_number       1

loop_
  _space_group_symop_operation_xyz
  'x, y, z'

loop_
  _atom_site_type_symbol
  _atom_site_label
  _atom_site_symmetry_multiplicity
  _atom_site_fract_x
  _atom_site_fract_y
  _atom_site_fract_z
  _atom_site_occupancy
  Cr  Cr1       1.0  0.37600  0.37600  0.37600  1.0000
  Cr  Cr2       1.0  0.62700  0.62700  0.62700  1.0000
  Cr  Cr3       1.0  0.87600  0.87600  0.87600  1.0000
  Os  Os1       1.0  0.00000  0.00000  0.00000  1.0000
  Os  Os2       1.0  0.49500  0.49500  0.49500  1.0000
  Ti  Ti1       1.0  0.24400  0.24400  0.24400  1.0000
  Ti  Ti2       1.0  0.75600  0.75600  0.75600  1.0000
