data_image0
_chemical_formula_structural       Pb3Re2Ru2
_chemical_formula_sum              "Pb3 Re2 Ru2"
_cell_length_a       8.10692
_cell_length_b       8.10692
_cell_length_c       8.10692
_cell_angle_alpha    32.8273
_cell_angle_beta     32.8273
_cell_angle_gamma    32.8273

_space_group_name_H-M_alt    "P 1"
_space_group_IT_number       1

loop_
  _space_group_symop_operation_xyz
  'x, y, z'

loop_
  _atom_site_type_symbol
  _atom_site_label
  _atom_site_symmetry_multiplicity
  _atom_site_fract_x
  _atom_site_fract_y
  _atom_site_fract_z
  _atom_site_occupancy
  Pb  Pb1       1.0  0.38300  0.38300  0.38300  1.0000
  Pb  Pb2       1.0  0.62500  0.62500  0.62500  1.0000
  Pb  Pb3       1.0  0.86800  0.86800  0.86800  1.0000
  Re  Re1       1.0  0.25500  0.25500  0.25500  1.0000
  Re  Re2       1.0  0.75100  0.75100  0.75100  1.0000
  Ru  Ru1       1.0  0.49900  0.49900  0.49900  1.0000
  Ru  Ru2       1.0  0.99500  0.99500  0.99500  1.0000
