data_image0
_chemical_formula_structural       Fe2Mn2Zr3
_chemical_formula_sum              "Fe2 Mn2 Zr3"
_cell_length_a       7.50857
_cell_length_b       7.50857
_cell_length_c       7.50857
_cell_angle_alpha    33.6856
_cell_angle_beta     33.6856
_cell_angle_gamma    33.6856

_space_group_name_H-M_alt    "P 1"
_space_group_IT_number       1

loop_
  _space_group_symop_operation_xyz
  'x, y, z'

loop_
  _atom_site_type_symbol
  _atom_site_label
  _atom_site_symmetry_multiplicity
  _atom_site_fract_x
  _atom_site_fract_y
  _atom_site_fract_z
  _atom_site_occupancy
  Fe  Fe1       1.0  0.00129  0.00129  0.00129  1.0000
  Fe  Fe2       1.0  0.50400  0.50400  0.50400  1.0000
  Mn  Mn1       1.0  0.24700  0.24700  0.24700  1.0000
  Mn  Mn2       1.0  0.74700  0.74700  0.74700  1.0000
  Zr  Zr1       1.0  0.38500  0.38500  0.38500  1.0000
  Zr  Zr2       1.0  0.62500  0.62500  0.62500  1.0000
  Zr  Zr3       1.0  0.86500  0.86500  0.86500  1.0000
