data_image0
_chemical_formula_structural       Cr3Ni2Sr2
_chemical_formula_sum              "Cr3 Ni2 Sr2"
_cell_length_a       9.59294
_cell_length_b       9.59294
_cell_length_c       9.59294
_cell_angle_alpha    25.7924
_cell_angle_beta     25.7924
_cell_angle_gamma    25.7924

_space_group_name_H-M_alt    "P 1"
_space_group_IT_number       1

loop_
  _space_group_symop_operation_xyz
  'x, y, z'

loop_
  _atom_site_type_symbol
  _atom_site_label
  _atom_site_symmetry_multiplicity
  _atom_site_fract_x
  _atom_site_fract_y
  _atom_site_fract_z
  _atom_site_occupancy
  Cr  Cr1       1.0  0.31400  0.31400  0.31400  1.0000
  Cr  Cr2       1.0  0.63900  0.63900  0.63900  1.0000
  Cr  Cr3       1.0  0.92600  0.92600  0.92600  1.0000
  Ni  Ni1       1.0  0.01380  0.01380  0.01380  1.0000
  Ni  Ni2       1.0  0.55900  0.55900  0.55900  1.0000
  Sr  Sr1       1.0  0.17900  0.17900  0.17900  1.0000
  Sr  Sr2       1.0  0.74400  0.74400  0.74400  1.0000
