data_image0
_chemical_formula_structural       Cu2Li2Mo3
_chemical_formula_sum              "Cu2 Li2 Mo3"
_cell_length_a       6.74871
_cell_length_b       6.74871
_cell_length_c       6.74871
_cell_angle_alpha    36.8031
_cell_angle_beta     36.8031
_cell_angle_gamma    36.8031

_space_group_name_H-M_alt    "P 1"
_space_group_IT_number       1

loop_
  _space_group_symop_operation_xyz
  'x, y, z'

loop_
  _atom_site_type_symbol
  _atom_site_label
  _atom_site_symmetry_multiplicity
  _atom_site_fract_x
  _atom_site_fract_y
  _atom_site_fract_z
  _atom_site_occupancy
  Cu  Cu1       1.0  0.05810  0.05810  0.05810  1.0000
  Cu  Cu2       1.0  0.48200  0.48200  0.48200  1.0000
  Li  Li1       1.0  0.18900  0.18900  0.18900  1.0000
  Li  Li2       1.0  0.76700  0.76700  0.76700  1.0000
  Mo  Mo1       1.0  0.33800  0.33800  0.33800  1.0000
  Mo  Mo2       1.0  0.62400  0.62400  0.62400  1.0000
  Mo  Mo3       1.0  0.91700  0.91700  0.91700  1.0000
