data_image0
_chemical_formula_structural       Mn2Os2Pb3
_chemical_formula_sum              "Mn2 Os2 Pb3"
_cell_length_a       8.1626
_cell_length_b       8.1626
_cell_length_c       8.1626
_cell_angle_alpha    33.0747
_cell_angle_beta     33.0747
_cell_angle_gamma    33.0747

_space_group_name_H-M_alt    "P 1"
_space_group_IT_number       1

loop_
  _space_group_symop_operation_xyz
  'x, y, z'

loop_
  _atom_site_type_symbol
  _atom_site_label
  _atom_site_symmetry_multiplicity
  _atom_site_fract_x
  _atom_site_fract_y
  _atom_site_fract_z
  _atom_site_occupancy
  Mn  Mn1       1.0  0.24100  0.24100  0.24100  1.0000
  Mn  Mn2       1.0  0.74800  0.74800  0.74800  1.0000
  Os  Os1       1.0  0.50900  0.50900  0.50900  1.0000
  Os  Os2       1.0  0.99500  0.99500  0.99500  1.0000
  Pb  Pb1       1.0  0.38800  0.38800  0.38800  1.0000
  Pb  Pb2       1.0  0.62800  0.62800  0.62800  1.0000
  Pb  Pb3       1.0  0.86500  0.86500  0.86500  1.0000
