data_image0
_chemical_formula_structural       Os2Pb3Re2
_chemical_formula_sum              "Os2 Pb3 Re2"
_cell_length_a       8.12746
_cell_length_b       8.12746
_cell_length_c       8.12746
_cell_angle_alpha    32.6805
_cell_angle_beta     32.6805
_cell_angle_gamma    32.6805

_space_group_name_H-M_alt    "P 1"
_space_group_IT_number       1

loop_
  _space_group_symop_operation_xyz
  'x, y, z'

loop_
  _atom_site_type_symbol
  _atom_site_label
  _atom_site_symmetry_multiplicity
  _atom_site_fract_x
  _atom_site_fract_y
  _atom_site_fract_z
  _atom_site_occupancy
  Os  Os1       1.0  0.49900  0.49900  0.49900  1.0000
  Os  Os2       1.0  0.99800  0.99800  0.99800  1.0000
  Pb  Pb1       1.0  0.38100  0.38100  0.38100  1.0000
  Pb  Pb2       1.0  0.62400  0.62400  0.62400  1.0000
  Pb  Pb3       1.0  0.86800  0.86800  0.86800  1.0000
  Re  Re1       1.0  0.25300  0.25300  0.25300  1.0000
  Re  Re2       1.0  0.75100  0.75100  0.75100  1.0000
