data_image0
_chemical_formula_structural       Ca2Cr3Pt2
_chemical_formula_sum              "Ca2 Cr3 Pt2"
_cell_length_a       7.81493
_cell_length_b       7.81493
_cell_length_c       7.81493
_cell_angle_alpha    35.0295
_cell_angle_beta     35.0295
_cell_angle_gamma    35.0295

_space_group_name_H-M_alt    "P 1"
_space_group_IT_number       1

loop_
  _space_group_symop_operation_xyz
  'x, y, z'

loop_
  _atom_site_type_symbol
  _atom_site_label
  _atom_site_symmetry_multiplicity
  _atom_site_fract_x
  _atom_site_fract_y
  _atom_site_fract_z
  _atom_site_occupancy
  Ca  Ca1       1.0  0.19900  0.19900  0.19900  1.0000
  Ca  Ca2       1.0  0.76400  0.76400  0.76400  1.0000
  Cr  Cr1       1.0  0.35800  0.35800  0.35800  1.0000
  Cr  Cr2       1.0  0.62800  0.62800  0.62800  1.0000
  Cr  Cr3       1.0  0.90400  0.90400  0.90400  1.0000
  Pt  Pt1       1.0  0.01880  0.01880  0.01880  1.0000
  Pt  Pt2       1.0  0.50400  0.50400  0.50400  1.0000
