data_image0
_chemical_formula_structural       Ba2Mo3Pt2
_chemical_formula_sum              "Ba2 Mo3 Pt2"
_cell_length_a       11.4223
_cell_length_b       11.4223
_cell_length_c       11.4223
_cell_angle_alpha    21.7957
_cell_angle_beta     21.7957
_cell_angle_gamma    21.7957

_space_group_name_H-M_alt    "P 1"
_space_group_IT_number       1

loop_
  _space_group_symop_operation_xyz
  'x, y, z'

loop_
  _atom_site_type_symbol
  _atom_site_label
  _atom_site_symmetry_multiplicity
  _atom_site_fract_x
  _atom_site_fract_y
  _atom_site_fract_z
  _atom_site_occupancy
  Ba  Ba1       1.0  0.20500  0.20500  0.20500  1.0000
  Ba  Ba2       1.0  0.75700  0.75700  0.75700  1.0000
  Mo  Mo1       1.0  0.32900  0.32900  0.32900  1.0000
  Mo  Mo2       1.0  0.63300  0.63300  0.63300  1.0000
  Mo  Mo3       1.0  0.94500  0.94500  0.94500  1.0000
  Pt  Pt1       1.0  0.02340  0.02340  0.02340  1.0000
  Pt  Pt2       1.0  0.48200  0.48200  0.48200  1.0000
