data_image0
_chemical_formula_structural       Au2Cr3Li2
_chemical_formula_sum              "Au2 Cr3 Li2"
_cell_length_a       6.92753
_cell_length_b       6.92753
_cell_length_c       6.92753
_cell_angle_alpha    34.4756
_cell_angle_beta     34.4756
_cell_angle_gamma    34.4756

_space_group_name_H-M_alt    "P 1"
_space_group_IT_number       1

loop_
  _space_group_symop_operation_xyz
  'x, y, z'

loop_
  _atom_site_type_symbol
  _atom_site_label
  _atom_site_symmetry_multiplicity
  _atom_site_fract_x
  _atom_site_fract_y
  _atom_site_fract_z
  _atom_site_occupancy
  Au  Au1       1.0  0.05610  0.05610  0.05610  1.0000
  Au  Au2       1.0  0.48600  0.48600  0.48600  1.0000
  Cr  Cr1       1.0  0.32400  0.32400  0.32400  1.0000
  Cr  Cr2       1.0  0.62500  0.62500  0.62500  1.0000
  Cr  Cr3       1.0  0.92100  0.92100  0.92100  1.0000
  Li  Li1       1.0  0.19400  0.19400  0.19400  1.0000
  Li  Li2       1.0  0.76900  0.76900  0.76900  1.0000
