data_image0
_chemical_formula_structural       Cu2Na2W3
_chemical_formula_sum              "Cu2 Na2 W3"
_cell_length_a       7.53687
_cell_length_b       7.53687
_cell_length_c       7.53687
_cell_angle_alpha    34.153
_cell_angle_beta     34.153
_cell_angle_gamma    34.153

_space_group_name_H-M_alt    "P 1"
_space_group_IT_number       1

loop_
  _space_group_symop_operation_xyz
  'x, y, z'

loop_
  _atom_site_type_symbol
  _atom_site_label
  _atom_site_symmetry_multiplicity
  _atom_site_fract_x
  _atom_site_fract_y
  _atom_site_fract_z
  _atom_site_occupancy
  Cu  Cu1       1.0  0.04290  0.04290  0.04290  1.0000
  Cu  Cu2       1.0  0.50300  0.50300  0.50300  1.0000
  Na  Na1       1.0  0.18100  0.18100  0.18100  1.0000
  Na  Na2       1.0  0.76800  0.76800  0.76800  1.0000
  W   W1        1.0  0.32900  0.32900  0.32900  1.0000
  W   W2        1.0  0.62400  0.62400  0.62400  1.0000
  W   W3        1.0  0.92600  0.92600  0.92600  1.0000
