data_image0
_chemical_formula_structural       Cr3Mg2Ni2
_chemical_formula_sum              "Cr3 Mg2 Ni2"
_cell_length_a       6.69773
_cell_length_b       6.69773
_cell_length_c       6.69773
_cell_angle_alpha    35.2982
_cell_angle_beta     35.2982
_cell_angle_gamma    35.2982

_space_group_name_H-M_alt    "P 1"
_space_group_IT_number       1

loop_
  _space_group_symop_operation_xyz
  'x, y, z'

loop_
  _atom_site_type_symbol
  _atom_site_label
  _atom_site_symmetry_multiplicity
  _atom_site_fract_x
  _atom_site_fract_y
  _atom_site_fract_z
  _atom_site_occupancy
  Cr  Cr1       1.0  0.33500  0.33500  0.33500  1.0000
  Cr  Cr2       1.0  0.62300  0.62300  0.62300  1.0000
  Cr  Cr3       1.0  0.92600  0.92600  0.92600  1.0000
  Mg  Mg1       1.0  0.19300  0.19300  0.19300  1.0000
  Mg  Mg2       1.0  0.76700  0.76700  0.76700  1.0000
  Ni  Ni1       1.0  0.04810  0.04810  0.04810  1.0000
  Ni  Ni2       1.0  0.48300  0.48300  0.48300  1.0000
