data_image0
_chemical_formula_structural       Cd2Eu2Sn2
_chemical_formula_sum              "Cd2 Eu2 Sn2"
_cell_length_a       4.92289
_cell_length_b       4.92295
_cell_length_c       7.82045
_cell_angle_alpha    90
_cell_angle_beta     90
_cell_angle_gamma    120

_space_group_name_H-M_alt    "P 1"
_space_group_IT_number       1

loop_
  _space_group_symop_operation_xyz
  'x, y, z'

loop_
  _atom_site_type_symbol
  _atom_site_label
  _atom_site_symmetry_multiplicity
  _atom_site_fract_x
  _atom_site_fract_y
  _atom_site_fract_z
  _atom_site_occupancy
  Cd  Cd1       1.0  0.33300  0.66700  0.04760  1.0000
  Cd  Cd2       1.0  0.66700  0.33300  0.54800  1.0000
  Eu  Eu1       1.0  0.00000  0.00000  0.24700  1.0000
  Eu  Eu2       1.0  0.00002  0.00003  0.74700  1.0000
  Sn  Sn1       1.0  0.33300  0.66700  0.45300  1.0000
  Sn  Sn2       1.0  0.66700  0.33300  0.95300  1.0000
