data_image0
_chemical_formula_structural       Cl6F20K6Sn10
_chemical_formula_sum              "Cl6 F20 K6 Sn10"
_cell_length_a       9.42575
_cell_length_b       4.25704
_cell_length_c       20.2011
_cell_angle_alpha    90
_cell_angle_beta     90
_cell_angle_gamma    103.051

_space_group_name_H-M_alt    "P 1"
_space_group_IT_number       1

loop_
  _space_group_symop_operation_xyz
  'x, y, z'

loop_
  _atom_site_type_symbol
  _atom_site_label
  _atom_site_symmetry_multiplicity
  _atom_site_fract_x
  _atom_site_fract_y
  _atom_site_fract_z
  _atom_site_occupancy
  Cl  Cl1       1.0  0.37600  0.18800  0.11300  1.0000
  Cl  Cl2       1.0  0.84000  0.42000  0.25000  1.0000
  Cl  Cl3       1.0  0.37600  0.18800  0.38700  1.0000
  Cl  Cl4       1.0  0.62400  0.81200  0.61300  1.0000
  Cl  Cl5       1.0  0.16000  0.58000  0.75000  1.0000
  Cl  Cl6       1.0  0.62400  0.81200  0.88700  1.0000
  F   F1        1.0  0.14400  0.57200  0.03610  1.0000
  F   F2        1.0  0.71200  0.85600  0.03760  1.0000
  F   F3        1.0  0.74800  0.37400  0.10300  1.0000
  F   F4        1.0  0.95200  0.97600  0.13100  1.0000
  F   F5        1.0  0.19400  0.09700  0.25000  1.0000
  F   F6        1.0  0.35500  0.67800  0.25000  1.0000
  F   F7        1.0  0.95200  0.97600  0.36900  1.0000
  F   F8        1.0  0.74800  0.37400  0.39700  1.0000
  F   F9        1.0  0.71200  0.85600  0.46200  1.0000
  F   F10       1.0  0.14400  0.57200  0.46400  1.0000
  F   F11       1.0  0.85600  0.42800  0.53600  1.0000
  F   F12       1.0  0.28800  0.14400  0.53800  1.0000
  F   F13       1.0  0.25200  0.62600  0.60300  1.0000
  F   F14       1.0  0.04830  0.02420  0.63100  1.0000
  F   F15       1.0  0.64500  0.32200  0.75000  1.0000
  F   F16       1.0  0.80600  0.90300  0.75000  1.0000
  F   F17       1.0  0.04830  0.02420  0.86900  1.0000
  F   F18       1.0  0.25200  0.62600  0.89700  1.0000
  F   F19       1.0  0.28800  0.14400  0.96200  1.0000
  F   F20       1.0  0.85600  0.42800  0.96400  1.0000
  K   K1        1.0  0.00000  0.00000  0.00000  1.0000
  K   K2        1.0  0.12000  0.56000  0.16400  1.0000
  K   K3        1.0  0.12000  0.56000  0.33600  1.0000
  K   K4        1.0  0.00000  0.00000  0.50000  1.0000
  K   K5        1.0  0.88000  0.44000  0.66400  1.0000
  K   K6        1.0  0.88000  0.44000  0.83600  1.0000
  Sn  Sn1       1.0  0.35400  0.67700  0.00115  1.0000
  Sn  Sn2       1.0  0.73300  0.86600  0.15300  1.0000
  Sn  Sn3       1.0  0.42400  0.21200  0.25000  1.0000
  Sn  Sn4       1.0  0.73300  0.86600  0.34700  1.0000
  Sn  Sn5       1.0  0.35400  0.67700  0.49900  1.0000
  Sn  Sn6       1.0  0.64600  0.32300  0.50100  1.0000
  Sn  Sn7       1.0  0.26700  0.13400  0.65300  1.0000
  Sn  Sn8       1.0  0.57600  0.78800  0.75000  1.0000
  Sn  Sn9       1.0  0.26700  0.13400  0.84700  1.0000
  Sn  Sn10      1.0  0.64600  0.32300  0.99900  1.0000
