data_image0
_chemical_formula_structural       Co2Cr2Ti3
_chemical_formula_sum              "Co2 Cr2 Ti3"
_cell_length_a       7.19941
_cell_length_b       7.19941
_cell_length_c       7.19941
_cell_angle_alpha    33.3918
_cell_angle_beta     33.3918
_cell_angle_gamma    33.3918

_space_group_name_H-M_alt    "P 1"
_space_group_IT_number       1

loop_
  _space_group_symop_operation_xyz
  'x, y, z'

loop_
  _atom_site_type_symbol
  _atom_site_label
  _atom_site_symmetry_multiplicity
  _atom_site_fract_x
  _atom_site_fract_y
  _atom_site_fract_z
  _atom_site_occupancy
  Co  Co1       1.0  0.49800  0.49800  0.49800  1.0000
  Co  Co2       1.0  0.00000  0.00000  1.00000  1.0000
  Cr  Cr1       1.0  0.24400  0.24400  0.24400  1.0000
  Cr  Cr2       1.0  0.75600  0.75600  0.75600  1.0000
  Ti  Ti1       1.0  0.37800  0.37800  0.37800  1.0000
  Ti  Ti2       1.0  0.62400  0.62400  0.62400  1.0000
  Ti  Ti3       1.0  0.87400  0.87400  0.87400  1.0000
