data_image0
_chemical_formula_structural       Ge4K6Nb6O26
_chemical_formula_sum              "Ge4 K6 Nb6 O26"
_cell_length_a       9.28525
_cell_length_b       9.28525
_cell_length_c       7.80056
_cell_angle_alpha    90
_cell_angle_beta     90
_cell_angle_gamma    120

_space_group_name_H-M_alt    "P 1"
_space_group_IT_number       1

loop_
  _space_group_symop_operation_xyz
  'x, y, z'

loop_
  _atom_site_type_symbol
  _atom_site_label
  _atom_site_symmetry_multiplicity
  _atom_site_fract_x
  _atom_site_fract_y
  _atom_site_fract_z
  _atom_site_occupancy
  Ge  Ge1       1.0  0.66700  0.33300  0.22700  1.0000
  Ge  Ge2       1.0  0.33300  0.66700  0.22700  1.0000
  Ge  Ge3       1.0  0.66700  0.33300  0.77300  1.0000
  Ge  Ge4       1.0  0.33300  0.66700  0.77300  1.0000
  K   K1        1.0  0.59900  0.00000  0.00000  1.0000
  K   K2        1.0  0.40100  0.40100  0.00000  1.0000
  K   K3        1.0  0.00000  0.59900  0.00000  1.0000
  K   K4        1.0  0.60800  0.00000  0.50000  1.0000
  K   K5        1.0  0.39200  0.39200  0.50000  1.0000
  K   K6        1.0  1.00000  0.60800  0.50000  1.0000
  Nb  Nb1       1.0  0.23300  0.00000  0.25000  1.0000
  Nb  Nb2       1.0  0.00000  0.23300  0.25000  1.0000
  Nb  Nb3       1.0  0.76700  0.76700  0.25000  1.0000
  Nb  Nb4       1.0  0.23300  0.00000  0.75000  1.0000
  Nb  Nb5       1.0  0.00000  0.23300  0.75000  1.0000
  Nb  Nb6       1.0  0.76700  0.76700  0.75000  1.0000
  O   O1        1.0  0.28700  0.00000  0.00000  1.0000
  O   O2        1.0  0.00000  0.28700  0.00000  1.0000
  O   O3        1.0  0.66700  0.33300  0.00000  1.0000
  O   O4        1.0  0.33300  0.66700  0.00000  1.0000
  O   O5        1.0  0.71300  0.71300  0.00000  1.0000
  O   O6        1.0  0.82400  0.00000  0.21500  1.0000
  O   O7        1.0  0.17600  0.17600  0.21500  1.0000
  O   O8        1.0  0.00000  0.82400  0.21500  1.0000
  O   O9        1.0  0.82400  0.29900  0.29700  1.0000
  O   O10       1.0  0.29900  0.82400  0.29700  1.0000
  O   O11       1.0  0.47500  0.17600  0.29700  1.0000
  O   O12       1.0  0.17600  0.47500  0.29700  1.0000
  O   O13       1.0  0.70100  0.52500  0.29700  1.0000
  O   O14       1.0  0.52500  0.70100  0.29700  1.0000
  O   O15       1.0  0.20000  0.00000  0.50000  1.0000
  O   O16       1.0  0.00000  0.20000  0.50000  1.0000
  O   O17       1.0  0.80000  0.80000  0.50000  1.0000
  O   O18       1.0  0.47500  0.17600  0.70300  1.0000
  O   O19       1.0  0.17600  0.47500  0.70300  1.0000
  O   O20       1.0  0.70100  0.52500  0.70300  1.0000
  O   O21       1.0  0.52500  0.70100  0.70300  1.0000
  O   O22       1.0  0.82400  0.29900  0.70300  1.0000
  O   O23       1.0  0.29900  0.82400  0.70300  1.0000
  O   O24       1.0  0.17600  0.17600  0.78500  1.0000
  O   O25       1.0  0.82400  0.00000  0.78500  1.0000
  O   O26       1.0  0.00000  0.82400  0.78500  1.0000
