data_image0
_chemical_formula_structural       Hg2Sc2Si3
_chemical_formula_sum              "Hg2 Sc2 Si3"
_cell_length_a       8.91956
_cell_length_b       8.91956
_cell_length_c       8.91956
_cell_angle_alpha    28.4321
_cell_angle_beta     28.4321
_cell_angle_gamma    28.4321

_space_group_name_H-M_alt    "P 1"
_space_group_IT_number       1

loop_
  _space_group_symop_operation_xyz
  'x, y, z'

loop_
  _atom_site_type_symbol
  _atom_site_label
  _atom_site_symmetry_multiplicity
  _atom_site_fract_x
  _atom_site_fract_y
  _atom_site_fract_z
  _atom_site_occupancy
  Hg  Hg1       1.0  0.04480  0.04480  0.04480  1.0000
  Hg  Hg2       1.0  0.49000  0.49000  0.49000  1.0000
  Sc  Sc1       1.0  0.23900  0.23900  0.23900  1.0000
  Sc  Sc2       1.0  0.75600  0.75600  0.75600  1.0000
  Si  Si1       1.0  0.34200  0.34200  0.34200  1.0000
  Si  Si2       1.0  0.63900  0.63900  0.63900  1.0000
  Si  Si3       1.0  0.86400  0.86400  0.86400  1.0000
