data_image0
_chemical_formula_structural       Ag2Cr3Li2
_chemical_formula_sum              "Ag2 Cr3 Li2"
_cell_length_a       7.08031
_cell_length_b       7.08031
_cell_length_c       7.08031
_cell_angle_alpha    33.4299
_cell_angle_beta     33.4299
_cell_angle_gamma    33.4299

_space_group_name_H-M_alt    "P 1"
_space_group_IT_number       1

loop_
  _space_group_symop_operation_xyz
  'x, y, z'

loop_
  _atom_site_type_symbol
  _atom_site_label
  _atom_site_symmetry_multiplicity
  _atom_site_fract_x
  _atom_site_fract_y
  _atom_site_fract_z
  _atom_site_occupancy
  Ag  Ag1       1.0  0.05790  0.05790  0.05790  1.0000
  Ag  Ag2       1.0  0.48400  0.48400  0.48400  1.0000
  Cr  Cr1       1.0  0.32100  0.32100  0.32100  1.0000
  Cr  Cr2       1.0  0.62400  0.62400  0.62400  1.0000
  Cr  Cr3       1.0  0.92500  0.92500  0.92500  1.0000
  Li  Li1       1.0  0.19600  0.19600  0.19600  1.0000
  Li  Li2       1.0  0.76600  0.76600  0.76600  1.0000
