data_image0
_chemical_formula_structural       Ba4Cu10F28
_chemical_formula_sum              "Ba4 Cu10 F28"
_cell_length_a       6.57748
_cell_length_b       9.54096
_cell_length_c       10.135
_cell_angle_alpha    115.417
_cell_angle_beta     90
_cell_angle_gamma    110.163

_space_group_name_H-M_alt    "P 1"
_space_group_IT_number       1

loop_
  _space_group_symop_operation_xyz
  'x, y, z'

loop_
  _atom_site_type_symbol
  _atom_site_label
  _atom_site_symmetry_multiplicity
  _atom_site_fract_x
  _atom_site_fract_y
  _atom_site_fract_z
  _atom_site_occupancy
  Ba  Ba1       1.0  0.54200  0.32200  0.12300  1.0000
  Ba  Ba2       1.0  0.22000  0.67800  0.37700  1.0000
  Ba  Ba3       1.0  0.78000  0.32200  0.62300  1.0000
  Ba  Ba4       1.0  0.45800  0.67800  0.87700  1.0000
  Cu  Cu1       1.0  0.93200  0.63600  0.00266  1.0000
  Cu  Cu2       1.0  0.90100  0.07050  0.14000  1.0000
  Cu  Cu3       1.0  0.36200  0.00000  0.25000  1.0000
  Cu  Cu4       1.0  0.83100  0.92900  0.36000  1.0000
  Cu  Cu5       1.0  0.29600  0.36400  0.49700  1.0000
  Cu  Cu6       1.0  0.70400  0.63600  0.50300  1.0000
  Cu  Cu7       1.0  0.16900  0.07050  0.64000  1.0000
  Cu  Cu8       1.0  0.63800  0.00000  0.75000  1.0000
  Cu  Cu9       1.0  0.09880  0.92900  0.86000  1.0000
  Cu  Cu10      1.0  0.06820  0.36400  0.99700  1.0000
  F   F1        1.0  0.23200  0.77300  0.10000  1.0000
  F   F2        1.0  0.35100  0.52100  0.10900  1.0000
  F   F3        1.0  0.79400  0.83900  0.11000  1.0000
  F   F4        1.0  0.19200  0.06710  0.13200  1.0000
  F   F5        1.0  0.99900  0.28100  0.14000  1.0000
  F   F6        1.0  0.60800  0.06060  0.14200  1.0000
  F   F7        1.0  0.91200  0.55100  0.14400  1.0000
  F   F8        1.0  0.36100  0.44900  0.35600  1.0000
  F   F9        1.0  0.54700  0.93900  0.35800  1.0000
  F   F10       1.0  0.71700  0.71900  0.36000  1.0000
  F   F11       1.0  0.12500  0.93300  0.36800  1.0000
  F   F12       1.0  0.95500  0.16100  0.39000  1.0000
  F   F13       1.0  0.83100  0.47900  0.39100  1.0000
  F   F14       1.0  0.45900  0.22700  0.40000  1.0000
  F   F15       1.0  0.54100  0.77300  0.60000  1.0000
  F   F16       1.0  0.16900  0.52100  0.60900  1.0000
  F   F17       1.0  0.04490  0.83900  0.61000  1.0000
  F   F18       1.0  0.87500  0.06710  0.63200  1.0000
  F   F19       1.0  0.28300  0.28100  0.64000  1.0000
  F   F20       1.0  0.45300  0.06060  0.64200  1.0000
  F   F21       1.0  0.63900  0.55100  0.64400  1.0000
  F   F22       1.0  0.08820  0.44900  0.85600  1.0000
  F   F23       1.0  0.39200  0.93900  0.85800  1.0000
  F   F24       1.0  0.00110  0.71900  0.86000  1.0000
  F   F25       1.0  0.80800  0.93300  0.86800  1.0000
  F   F26       1.0  0.20600  0.16100  0.89000  1.0000
  F   F27       1.0  0.64900  0.47900  0.89100  1.0000
  F   F28       1.0  0.76800  0.22700  0.90000  1.0000
