data_image0
_chemical_formula_structural       Hf3Hg2Tl2
_chemical_formula_sum              "Hf3 Hg2 Tl2"
_cell_length_a       8.49049
_cell_length_b       8.49049
_cell_length_c       8.49049
_cell_angle_alpha    33.5747
_cell_angle_beta     33.5747
_cell_angle_gamma    33.5747

_space_group_name_H-M_alt    "P 1"
_space_group_IT_number       1

loop_
  _space_group_symop_operation_xyz
  'x, y, z'

loop_
  _atom_site_type_symbol
  _atom_site_label
  _atom_site_symmetry_multiplicity
  _atom_site_fract_x
  _atom_site_fract_y
  _atom_site_fract_z
  _atom_site_occupancy
  Hf  Hf1       1.0  0.37000  0.37000  0.37000  1.0000
  Hf  Hf2       1.0  0.62600  0.62600  0.62600  1.0000
  Hf  Hf3       1.0  0.87900  0.87900  0.87900  1.0000
  Hg  Hg1       1.0  0.00876  0.00876  0.00876  1.0000
  Hg  Hg2       1.0  0.49300  0.49300  0.49300  1.0000
  Tl  Tl1       1.0  0.24100  0.24100  0.24100  1.0000
  Tl  Tl2       1.0  0.75700  0.75700  0.75700  1.0000
