data_image0
_chemical_formula_structural       Si3Y2Zn2
_chemical_formula_sum              "Si3 Y2 Zn2"
_cell_length_a       9.18169
_cell_length_b       9.18169
_cell_length_c       9.18169
_cell_angle_alpha    26.6018
_cell_angle_beta     26.6018
_cell_angle_gamma    26.6018

_space_group_name_H-M_alt    "P 1"
_space_group_IT_number       1

loop_
  _space_group_symop_operation_xyz
  'x, y, z'

loop_
  _atom_site_type_symbol
  _atom_site_label
  _atom_site_symmetry_multiplicity
  _atom_site_fract_x
  _atom_site_fract_y
  _atom_site_fract_z
  _atom_site_occupancy
  Si  Si1       1.0  0.35800  0.35800  0.35800  1.0000
  Si  Si2       1.0  0.64600  0.64600  0.64600  1.0000
  Si  Si3       1.0  0.85700  0.85700  0.85700  1.0000
  Y   Y1        1.0  0.24800  0.24800  0.24800  1.0000
  Y   Y2        1.0  0.75400  0.75400  0.75400  1.0000
  Zn  Zn1       1.0  0.00781  0.00781  0.00781  1.0000
  Zn  Zn2       1.0  0.50300  0.50300  0.50300  1.0000
