data_image0
_chemical_formula_structural       Ag2K2Mo3
_chemical_formula_sum              "Ag2 K2 Mo3"
_cell_length_a       10.7637
_cell_length_b       10.7637
_cell_length_c       10.7637
_cell_angle_alpha    23.8141
_cell_angle_beta     23.8141
_cell_angle_gamma    23.8141

_space_group_name_H-M_alt    "P 1"
_space_group_IT_number       1

loop_
  _space_group_symop_operation_xyz
  'x, y, z'

loop_
  _atom_site_type_symbol
  _atom_site_label
  _atom_site_symmetry_multiplicity
  _atom_site_fract_x
  _atom_site_fract_y
  _atom_site_fract_z
  _atom_site_occupancy
  Ag  Ag1       1.0  0.02260  0.02260  0.02260  1.0000
  Ag  Ag2       1.0  0.55700  0.55700  0.55700  1.0000
  K   K1        1.0  0.16800  0.16800  0.16800  1.0000
  K   K2        1.0  0.75200  0.75200  0.75200  1.0000
  Mo  Mo1       1.0  0.29700  0.29700  0.29700  1.0000
  Mo  Mo2       1.0  0.64200  0.64200  0.64200  1.0000
  Mo  Mo3       1.0  0.93500  0.93500  0.93500  1.0000
