data_image0
_chemical_formula_structural       Na8O24P6Sc4
_chemical_formula_sum              "Na8 O24 P6 Sc4"
_cell_length_a       9.11143
_cell_length_b       9.11143
_cell_length_c       8.76266
_cell_angle_alpha    121.298
_cell_angle_beta     121.298
_cell_angle_gamma    60.0043

_space_group_name_H-M_alt    "P 1"
_space_group_IT_number       1

loop_
  _space_group_symop_operation_xyz
  'x, y, z'

loop_
  _atom_site_type_symbol
  _atom_site_label
  _atom_site_symmetry_multiplicity
  _atom_site_fract_x
  _atom_site_fract_y
  _atom_site_fract_z
  _atom_site_occupancy
  Na  Na1       1.0  0.50000  0.00000  0.00000  1.0000
  Na  Na2       1.0  0.89200  0.75000  0.25000  1.0000
  Na  Na3       1.0  0.60800  0.39200  0.25000  1.0000
  Na  Na4       1.0  0.25000  0.10800  0.25000  1.0000
  Na  Na5       1.0  0.00000  0.50000  0.50000  1.0000
  Na  Na6       1.0  0.75000  0.89200  0.75000  1.0000
  Na  Na7       1.0  0.39200  0.60800  0.75000  1.0000
  Na  Na8       1.0  0.10800  0.25000  0.75000  1.0000
  O   O1        1.0  0.96800  0.89900  0.06880  1.0000
  O   O2        1.0  0.39900  0.70200  0.06880  1.0000
  O   O3        1.0  0.20200  0.46800  0.06890  1.0000
  O   O4        1.0  0.08820  0.42100  0.24700  1.0000
  O   O5        1.0  0.73800  0.58800  0.24700  1.0000
  O   O6        1.0  0.92100  0.23800  0.24700  1.0000
  O   O7        1.0  0.76200  0.07870  0.25300  1.0000
  O   O8        1.0  0.41200  0.26200  0.25300  1.0000
  O   O9        1.0  0.57900  0.91200  0.25300  1.0000
  O   O10       1.0  0.53200  0.79800  0.43100  1.0000
  O   O11       1.0  0.29800  0.60100  0.43100  1.0000
  O   O12       1.0  0.10100  0.03200  0.43100  1.0000
  O   O13       1.0  0.89900  0.96800  0.56900  1.0000
  O   O14       1.0  0.70200  0.39900  0.56900  1.0000
  O   O15       1.0  0.46800  0.20200  0.56900  1.0000
  O   O16       1.0  0.42100  0.08820  0.74700  1.0000
  O   O17       1.0  0.58800  0.73800  0.74700  1.0000
  O   O18       1.0  0.23800  0.92100  0.74700  1.0000
  O   O19       1.0  0.07870  0.76200  0.75300  1.0000
  O   O20       1.0  0.26200  0.41200  0.75300  1.0000
  O   O21       1.0  0.91200  0.57900  0.75300  1.0000
  O   O22       1.0  0.79800  0.53200  0.93100  1.0000
  O   O23       1.0  0.60100  0.29800  0.93100  1.0000
  O   O24       1.0  0.03200  0.10100  0.93100  1.0000
  P   P1        1.0  0.56200  0.75000  0.25000  1.0000
  P   P2        1.0  0.93800  0.06180  0.25000  1.0000
  P   P3        1.0  0.25000  0.43800  0.25000  1.0000
  P   P4        1.0  0.75000  0.56200  0.75000  1.0000
  P   P5        1.0  0.06180  0.93800  0.75000  1.0000
  P   P6        1.0  0.43800  0.25000  0.75000  1.0000
  Sc  Sc1       1.0  0.84400  0.34400  0.03080  1.0000
  Sc  Sc2       1.0  0.65600  0.15600  0.46900  1.0000
  Sc  Sc3       1.0  0.34400  0.84400  0.53100  1.0000
  Sc  Sc4       1.0  0.15600  0.65600  0.96900  1.0000
