data_image0
_chemical_formula_structural       Co2Pb3W2
_chemical_formula_sum              "Co2 Pb3 W2"
_cell_length_a       10.3077
_cell_length_b       10.3077
_cell_length_c       10.3077
_cell_angle_alpha    23.1083
_cell_angle_beta     23.1083
_cell_angle_gamma    23.1083

_space_group_name_H-M_alt    "P 1"
_space_group_IT_number       1

loop_
  _space_group_symop_operation_xyz
  'x, y, z'

loop_
  _atom_site_type_symbol
  _atom_site_label
  _atom_site_symmetry_multiplicity
  _atom_site_fract_x
  _atom_site_fract_y
  _atom_site_fract_z
  _atom_site_occupancy
  Co  Co1       1.0  0.22400  0.22400  0.22400  1.0000
  Co  Co2       1.0  0.71400  0.71400  0.71400  1.0000
  Pb  Pb1       1.0  0.42100  0.42100  0.42100  1.0000
  Pb  Pb2       1.0  0.62700  0.62700  0.62700  1.0000
  Pb  Pb3       1.0  0.82400  0.82400  0.82400  1.0000
  W   W1        1.0  0.02810  0.02810  0.02810  1.0000
  W   W2        1.0  0.53800  0.53800  0.53800  1.0000
