data_image0
_chemical_formula_structural       Al2Cd2Sn3
_chemical_formula_sum              "Al2 Cd2 Sn3"
_cell_length_a       8.61968
_cell_length_b       8.61968
_cell_length_c       8.61968
_cell_angle_alpha    34.0464
_cell_angle_beta     34.0464
_cell_angle_gamma    34.0464

_space_group_name_H-M_alt    "P 1"
_space_group_IT_number       1

loop_
  _space_group_symop_operation_xyz
  'x, y, z'

loop_
  _atom_site_type_symbol
  _atom_site_label
  _atom_site_symmetry_multiplicity
  _atom_site_fract_x
  _atom_site_fract_y
  _atom_site_fract_z
  _atom_site_occupancy
  Al  Al1       1.0  0.24700  0.24700  0.24700  1.0000
  Al  Al2       1.0  0.75200  0.75200  0.75200  1.0000
  Cd  Cd1       1.0  0.01470  0.01470  0.01470  1.0000
  Cd  Cd2       1.0  0.49300  0.49300  0.49300  1.0000
  Sn  Sn1       1.0  0.37400  0.37400  0.37400  1.0000
  Sn  Sn2       1.0  0.62200  0.62200  0.62200  1.0000
  Sn  Sn3       1.0  0.87400  0.87400  0.87400  1.0000
