data_image0
_chemical_formula_structural       Cd2Si3Y2
_chemical_formula_sum              "Cd2 Si3 Y2"
_cell_length_a       9.16565
_cell_length_b       9.16565
_cell_length_c       9.16565
_cell_angle_alpha    28.6763
_cell_angle_beta     28.6763
_cell_angle_gamma    28.6763

_space_group_name_H-M_alt    "P 1"
_space_group_IT_number       1

loop_
  _space_group_symop_operation_xyz
  'x, y, z'

loop_
  _atom_site_type_symbol
  _atom_site_label
  _atom_site_symmetry_multiplicity
  _atom_site_fract_x
  _atom_site_fract_y
  _atom_site_fract_z
  _atom_site_occupancy
  Cd  Cd1       1.0  0.00351  0.00351  0.00351  1.0000
  Cd  Cd2       1.0  0.49800  0.49800  0.49800  1.0000
  Si  Si1       1.0  0.38300  0.38300  0.38300  1.0000
  Si  Si2       1.0  0.63200  0.63200  0.63200  1.0000
  Si  Si3       1.0  0.85800  0.85800  0.85800  1.0000
  Y   Y1        1.0  0.24900  0.24900  0.24900  1.0000
  Y   Y2        1.0  0.75100  0.75100  0.75100  1.0000
