data_image0
_chemical_formula_structural       Cu2Mo3Na2
_chemical_formula_sum              "Cu2 Mo3 Na2"
_cell_length_a       7.59714
_cell_length_b       7.59714
_cell_length_c       7.59714
_cell_angle_alpha    33.6365
_cell_angle_beta     33.6365
_cell_angle_gamma    33.6365

_space_group_name_H-M_alt    "P 1"
_space_group_IT_number       1

loop_
  _space_group_symop_operation_xyz
  'x, y, z'

loop_
  _atom_site_type_symbol
  _atom_site_label
  _atom_site_symmetry_multiplicity
  _atom_site_fract_x
  _atom_site_fract_y
  _atom_site_fract_z
  _atom_site_occupancy
  Cu  Cu1       1.0  0.04140  0.04140  0.04140  1.0000
  Cu  Cu2       1.0  0.50500  0.50500  0.50500  1.0000
  Mo  Mo1       1.0  0.32900  0.32900  0.32900  1.0000
  Mo  Mo2       1.0  0.62500  0.62500  0.62500  1.0000
  Mo  Mo3       1.0  0.92600  0.92600  0.92600  1.0000
  Na  Na1       1.0  0.18100  0.18100  0.18100  1.0000
  Na  Na2       1.0  0.76800  0.76800  0.76800  1.0000
