data_image0
_chemical_formula_structural       Ag2Na2W3
_chemical_formula_sum              "Ag2 Na2 W3"
_cell_length_a       7.75531
_cell_length_b       7.75531
_cell_length_c       7.75531
_cell_angle_alpha    33.8626
_cell_angle_beta     33.8626
_cell_angle_gamma    33.8626

_space_group_name_H-M_alt    "P 1"
_space_group_IT_number       1

loop_
  _space_group_symop_operation_xyz
  'x, y, z'

loop_
  _atom_site_type_symbol
  _atom_site_label
  _atom_site_symmetry_multiplicity
  _atom_site_fract_x
  _atom_site_fract_y
  _atom_site_fract_z
  _atom_site_occupancy
  Ag  Ag1       1.0  0.05610  0.05610  0.05610  1.0000
  Ag  Ag2       1.0  0.48600  0.48600  0.48600  1.0000
  Na  Na1       1.0  0.18900  0.18900  0.18900  1.0000
  Na  Na2       1.0  0.76800  0.76800  0.76800  1.0000
  W   W1        1.0  0.32300  0.32300  0.32300  1.0000
  W   W2        1.0  0.62100  0.62100  0.62100  1.0000
  W   W3        1.0  0.93200  0.93200  0.93200  1.0000
