data_image0
_chemical_formula_structural       Ir2La2Mo3
_chemical_formula_sum              "Ir2 La2 Mo3"
_cell_length_a       8.79583
_cell_length_b       8.79583
_cell_length_c       8.79583
_cell_angle_alpha    29.4769
_cell_angle_beta     29.4769
_cell_angle_gamma    29.4769

_space_group_name_H-M_alt    "P 1"
_space_group_IT_number       1

loop_
  _space_group_symop_operation_xyz
  'x, y, z'

loop_
  _atom_site_type_symbol
  _atom_site_label
  _atom_site_symmetry_multiplicity
  _atom_site_fract_x
  _atom_site_fract_y
  _atom_site_fract_z
  _atom_site_occupancy
  Ir  Ir1       1.0  0.02210  0.02210  0.02210  1.0000
  Ir  Ir2       1.0  0.51000  0.51000  0.51000  1.0000
  La  La1       1.0  0.20000  0.20000  0.20000  1.0000
  La  La2       1.0  0.76400  0.76400  0.76400  1.0000
  Mo  Mo1       1.0  0.33300  0.33300  0.33300  1.0000
  Mo  Mo2       1.0  0.62400  0.62400  0.62400  1.0000
  Mo  Mo3       1.0  0.92100  0.92100  0.92100  1.0000
