data_image0
_chemical_formula_structural       Cu2K2W3
_chemical_formula_sum              "Cu2 K2 W3"
_cell_length_a       9.25765
_cell_length_b       9.25765
_cell_length_c       9.25765
_cell_angle_alpha    27.7694
_cell_angle_beta     27.7694
_cell_angle_gamma    27.7694

_space_group_name_H-M_alt    "P 1"
_space_group_IT_number       1

loop_
  _space_group_symop_operation_xyz
  'x, y, z'

loop_
  _atom_site_type_symbol
  _atom_site_label
  _atom_site_symmetry_multiplicity
  _atom_site_fract_x
  _atom_site_fract_y
  _atom_site_fract_z
  _atom_site_occupancy
  Cu  Cu1       1.0  0.02430  0.02430  0.02430  1.0000
  Cu  Cu2       1.0  0.54300  0.54300  0.54300  1.0000
  K   K1        1.0  0.16500  0.16500  0.16500  1.0000
  K   K2        1.0  0.75900  0.75900  0.75900  1.0000
  W   W1        1.0  0.31800  0.31800  0.31800  1.0000
  W   W2        1.0  0.63300  0.63300  0.63300  1.0000
  W   W3        1.0  0.93100  0.93100  0.93100  1.0000
