data_image0
_chemical_formula_structural       Hg2Si3Y2
_chemical_formula_sum              "Hg2 Si3 Y2"
_cell_length_a       10.1443
_cell_length_b       10.1443
_cell_length_c       10.1443
_cell_angle_alpha    24.7168
_cell_angle_beta     24.7168
_cell_angle_gamma    24.7168

_space_group_name_H-M_alt    "P 1"
_space_group_IT_number       1

loop_
  _space_group_symop_operation_xyz
  'x, y, z'

loop_
  _atom_site_type_symbol
  _atom_site_label
  _atom_site_symmetry_multiplicity
  _atom_site_fract_x
  _atom_site_fract_y
  _atom_site_fract_z
  _atom_site_occupancy
  Hg  Hg1       1.0  0.04070  0.04070  0.04070  1.0000
  Hg  Hg2       1.0  0.49200  0.49200  0.49200  1.0000
  Si  Si1       1.0  0.33900  0.33900  0.33900  1.0000
  Si  Si2       1.0  0.64100  0.64100  0.64100  1.0000
  Si  Si3       1.0  0.86000  0.86000  0.86000  1.0000
  Y   Y1        1.0  0.24100  0.24100  0.24100  1.0000
  Y   Y2        1.0  0.76000  0.76000  0.76000  1.0000
