data_image0
_chemical_formula_structural       Au2Mo3Rb2
_chemical_formula_sum              "Au2 Mo3 Rb2"
_cell_length_a       10.257
_cell_length_b       10.257
_cell_length_c       10.257
_cell_angle_alpha    25.2511
_cell_angle_beta     25.2511
_cell_angle_gamma    25.2511

_space_group_name_H-M_alt    "P 1"
_space_group_IT_number       1

loop_
  _space_group_symop_operation_xyz
  'x, y, z'

loop_
  _atom_site_type_symbol
  _atom_site_label
  _atom_site_symmetry_multiplicity
  _atom_site_fract_x
  _atom_site_fract_y
  _atom_site_fract_z
  _atom_site_occupancy
  Au  Au1       1.0  0.02460  0.02460  0.02460  1.0000
  Au  Au2       1.0  0.55200  0.55200  0.55200  1.0000
  Mo  Mo1       1.0  0.30700  0.30700  0.30700  1.0000
  Mo  Mo2       1.0  0.63900  0.63900  0.63900  1.0000
  Mo  Mo3       1.0  0.93400  0.93400  0.93400  1.0000
  Rb  Rb1       1.0  0.16200  0.16200  0.16200  1.0000
  Rb  Rb2       1.0  0.75600  0.75600  0.75600  1.0000
