data_image0
_chemical_formula_structural       Cr3Cu2Li2
_chemical_formula_sum              "Cr3 Cu2 Li2"
_cell_length_a       6.59513
_cell_length_b       6.59513
_cell_length_c       6.59513
_cell_angle_alpha    35.9062
_cell_angle_beta     35.9062
_cell_angle_gamma    35.9062

_space_group_name_H-M_alt    "P 1"
_space_group_IT_number       1

loop_
  _space_group_symop_operation_xyz
  'x, y, z'

loop_
  _atom_site_type_symbol
  _atom_site_label
  _atom_site_symmetry_multiplicity
  _atom_site_fract_x
  _atom_site_fract_y
  _atom_site_fract_z
  _atom_site_occupancy
  Cr  Cr1       1.0  0.33900  0.33900  0.33900  1.0000
  Cr  Cr2       1.0  0.62400  0.62400  0.62400  1.0000
  Cr  Cr3       1.0  0.91500  0.91500  0.91500  1.0000
  Cu  Cu1       1.0  0.05520  0.05520  0.05520  1.0000
  Cu  Cu2       1.0  0.48300  0.48300  0.48300  1.0000
  Li  Li1       1.0  0.19100  0.19100  0.19100  1.0000
  Li  Li2       1.0  0.76700  0.76700  0.76700  1.0000
