data_image0
_chemical_formula_structural       Cu2K2Mo3
_chemical_formula_sum              "Cu2 K2 Mo3"
_cell_length_a       10.5925
_cell_length_b       10.5925
_cell_length_c       10.5925
_cell_angle_alpha    23.6727
_cell_angle_beta     23.6727
_cell_angle_gamma    23.6727

_space_group_name_H-M_alt    "P 1"
_space_group_IT_number       1

loop_
  _space_group_symop_operation_xyz
  'x, y, z'

loop_
  _atom_site_type_symbol
  _atom_site_label
  _atom_site_symmetry_multiplicity
  _atom_site_fract_x
  _atom_site_fract_y
  _atom_site_fract_z
  _atom_site_occupancy
  Cu  Cu1       1.0  0.01790  0.01790  0.01790  1.0000
  Cu  Cu2       1.0  0.55600  0.55600  0.55600  1.0000
  K   K1        1.0  0.16900  0.16900  0.16900  1.0000
  K   K2        1.0  0.74800  0.74800  0.74800  1.0000
  Mo  Mo1       1.0  0.31600  0.31600  0.31600  1.0000
  Mo  Mo2       1.0  0.63500  0.63500  0.63500  1.0000
  Mo  Mo3       1.0  0.93400  0.93400  0.93400  1.0000
