data_image0
_chemical_formula_structural       Ir2Mo3Tl2
_chemical_formula_sum              "Ir2 Mo3 Tl2"
_cell_length_a       7.54614
_cell_length_b       7.54614
_cell_length_c       7.54614
_cell_angle_alpha    34.5406
_cell_angle_beta     34.5406
_cell_angle_gamma    34.5406

_space_group_name_H-M_alt    "P 1"
_space_group_IT_number       1

loop_
  _space_group_symop_operation_xyz
  'x, y, z'

loop_
  _atom_site_type_symbol
  _atom_site_label
  _atom_site_symmetry_multiplicity
  _atom_site_fract_x
  _atom_site_fract_y
  _atom_site_fract_z
  _atom_site_occupancy
  Ir  Ir1       1.0  0.03600  0.03600  0.03600  1.0000
  Ir  Ir2       1.0  0.49400  0.49400  0.49400  1.0000
  Mo  Mo1       1.0  0.34000  0.34000  0.34000  1.0000
  Mo  Mo2       1.0  0.62500  0.62500  0.62500  1.0000
  Mo  Mo3       1.0  0.91800  0.91800  0.91800  1.0000
  Tl  Tl1       1.0  0.19700  0.19700  0.19700  1.0000
  Tl  Tl2       1.0  0.76600  0.76600  0.76600  1.0000
