data_image0
_chemical_formula_structural       B2Si3Zn2
_chemical_formula_sum              "B2 Si3 Zn2"
_cell_length_a       8.26471
_cell_length_b       8.26471
_cell_length_c       8.26471
_cell_angle_alpha    25.6215
_cell_angle_beta     25.6215
_cell_angle_gamma    25.6215

_space_group_name_H-M_alt    "P 1"
_space_group_IT_number       1

loop_
  _space_group_symop_operation_xyz
  'x, y, z'

loop_
  _atom_site_type_symbol
  _atom_site_label
  _atom_site_symmetry_multiplicity
  _atom_site_fract_x
  _atom_site_fract_y
  _atom_site_fract_z
  _atom_site_occupancy
  B   B1        1.0  0.00639  0.00639  0.00639  1.0000
  B   B2        1.0  0.46000  0.46000  0.46000  1.0000
  Si  Si1       1.0  0.37700  0.37700  0.37700  1.0000
  Si  Si2       1.0  0.64200  0.64200  0.64200  1.0000
  Si  Si3       1.0  0.91700  0.91700  0.91700  1.0000
  Zn  Zn1       1.0  0.18300  0.18300  0.18300  1.0000
  Zn  Zn2       1.0  0.78900  0.78900  0.78900  1.0000
