data_image0
_chemical_formula_structural       Ag2Cr3Na2
_chemical_formula_sum              "Ag2 Cr3 Na2"
_cell_length_a       7.52559
_cell_length_b       7.52559
_cell_length_c       7.52559
_cell_angle_alpha    37.1693
_cell_angle_beta     37.1693
_cell_angle_gamma    37.1693

_space_group_name_H-M_alt    "P 1"
_space_group_IT_number       1

loop_
  _space_group_symop_operation_xyz
  'x, y, z'

loop_
  _atom_site_type_symbol
  _atom_site_label
  _atom_site_symmetry_multiplicity
  _atom_site_fract_x
  _atom_site_fract_y
  _atom_site_fract_z
  _atom_site_occupancy
  Ag  Ag1       1.0  0.03920  0.03920  0.03920  1.0000
  Ag  Ag2       1.0  0.49200  0.49200  0.49200  1.0000
  Cr  Cr1       1.0  0.34600  0.34600  0.34600  1.0000
  Cr  Cr2       1.0  0.62600  0.62600  0.62600  1.0000
  Cr  Cr3       1.0  0.91200  0.91200  0.91200  1.0000
  Na  Na1       1.0  0.19200  0.19200  0.19200  1.0000
  Na  Na2       1.0  0.76700  0.76700  0.76700  1.0000
