data_image0
_chemical_formula_structural       Cd2Sc2Si3
_chemical_formula_sum              "Cd2 Sc2 Si3"
_cell_length_a       8.81203
_cell_length_b       8.81203
_cell_length_c       8.81203
_cell_angle_alpha    28.9761
_cell_angle_beta     28.9761
_cell_angle_gamma    28.9761

_space_group_name_H-M_alt    "P 1"
_space_group_IT_number       1

loop_
  _space_group_symop_operation_xyz
  'x, y, z'

loop_
  _atom_site_type_symbol
  _atom_site_label
  _atom_site_symmetry_multiplicity
  _atom_site_fract_x
  _atom_site_fract_y
  _atom_site_fract_z
  _atom_site_occupancy
  Cd  Cd1       1.0  0.00463  0.00463  0.00463  1.0000
  Cd  Cd2       1.0  0.49700  0.49700  0.49700  1.0000
  Sc  Sc1       1.0  0.25000  0.25000  0.25000  1.0000
  Sc  Sc2       1.0  0.75200  0.75200  0.75200  1.0000
  Si  Si1       1.0  0.38700  0.38700  0.38700  1.0000
  Si  Si2       1.0  0.62400  0.62400  0.62400  1.0000
  Si  Si3       1.0  0.86000  0.86000  0.86000  1.0000
