data_image0
_chemical_formula_structural       Sc2Si3Zn2
_chemical_formula_sum              "Sc2 Si3 Zn2"
_cell_length_a       8.93873
_cell_length_b       8.93873
_cell_length_c       8.93873
_cell_angle_alpha    26.6813
_cell_angle_beta     26.6813
_cell_angle_gamma    26.6813

_space_group_name_H-M_alt    "P 1"
_space_group_IT_number       1

loop_
  _space_group_symop_operation_xyz
  'x, y, z'

loop_
  _atom_site_type_symbol
  _atom_site_label
  _atom_site_symmetry_multiplicity
  _atom_site_fract_x
  _atom_site_fract_y
  _atom_site_fract_z
  _atom_site_occupancy
  Sc  Sc1       1.0  0.24900  0.24900  0.24900  1.0000
  Sc  Sc2       1.0  0.75300  0.75300  0.75300  1.0000
  Si  Si1       1.0  0.36000  0.36000  0.36000  1.0000
  Si  Si2       1.0  0.64400  0.64400  0.64400  1.0000
  Si  Si3       1.0  0.85700  0.85700  0.85700  1.0000
  Zn  Zn1       1.0  0.01240  0.01240  0.01240  1.0000
  Zn  Zn2       1.0  0.50000  0.50000  0.50000  1.0000
