data_image0
_chemical_formula_structural       Ag2Mo3Rb2
_chemical_formula_sum              "Ag2 Mo3 Rb2"
_cell_length_a       10.3873
_cell_length_b       10.3873
_cell_length_c       10.3873
_cell_angle_alpha    24.9831
_cell_angle_beta     24.9831
_cell_angle_gamma    24.9831

_space_group_name_H-M_alt    "P 1"
_space_group_IT_number       1

loop_
  _space_group_symop_operation_xyz
  'x, y, z'

loop_
  _atom_site_type_symbol
  _atom_site_label
  _atom_site_symmetry_multiplicity
  _atom_site_fract_x
  _atom_site_fract_y
  _atom_site_fract_z
  _atom_site_occupancy
  Ag  Ag1       1.0  0.02510  0.02510  0.02510  1.0000
  Ag  Ag2       1.0  0.55000  0.55000  0.55000  1.0000
  Mo  Mo1       1.0  0.30900  0.30900  0.30900  1.0000
  Mo  Mo2       1.0  0.63700  0.63700  0.63700  1.0000
  Mo  Mo3       1.0  0.93600  0.93600  0.93600  1.0000
  Rb  Rb1       1.0  0.16400  0.16400  0.16400  1.0000
  Rb  Rb2       1.0  0.75500  0.75500  0.75500  1.0000
