data_image0
_chemical_formula_structural       Au2Na2W3
_chemical_formula_sum              "Au2 Na2 W3"
_cell_length_a       7.64959
_cell_length_b       7.64959
_cell_length_c       7.64959
_cell_angle_alpha    34.369
_cell_angle_beta     34.369
_cell_angle_gamma    34.369

_space_group_name_H-M_alt    "P 1"
_space_group_IT_number       1

loop_
  _space_group_symop_operation_xyz
  'x, y, z'

loop_
  _atom_site_type_symbol
  _atom_site_label
  _atom_site_symmetry_multiplicity
  _atom_site_fract_x
  _atom_site_fract_y
  _atom_site_fract_z
  _atom_site_occupancy
  Au  Au1       1.0  0.05510  0.05510  0.05510  1.0000
  Au  Au2       1.0  0.48600  0.48600  0.48600  1.0000
  Na  Na1       1.0  0.18900  0.18900  0.18900  1.0000
  Na  Na2       1.0  0.76900  0.76900  0.76900  1.0000
  W   W1        1.0  0.32600  0.32600  0.32600  1.0000
  W   W2        1.0  0.61900  0.61900  0.61900  1.0000
  W   W3        1.0  0.93100  0.93100  0.93100  1.0000
