data_image0
_chemical_formula_structural       Be2Cr3Pt2
_chemical_formula_sum              "Be2 Cr3 Pt2"
_cell_length_a       6.42078
_cell_length_b       6.42078
_cell_length_c       6.42078
_cell_angle_alpha    36.09
_cell_angle_beta     36.09
_cell_angle_gamma    36.09

_space_group_name_H-M_alt    "P 1"
_space_group_IT_number       1

loop_
  _space_group_symop_operation_xyz
  'x, y, z'

loop_
  _atom_site_type_symbol
  _atom_site_label
  _atom_site_symmetry_multiplicity
  _atom_site_fract_x
  _atom_site_fract_y
  _atom_site_fract_z
  _atom_site_occupancy
  Be  Be1       1.0  0.19600  0.19600  0.19600  1.0000
  Be  Be2       1.0  0.77000  0.77000  0.77000  1.0000
  Cr  Cr1       1.0  0.32900  0.32900  0.32900  1.0000
  Cr  Cr2       1.0  0.62600  0.62600  0.62600  1.0000
  Cr  Cr3       1.0  0.91300  0.91300  0.91300  1.0000
  Pt  Pt1       1.0  0.05740  0.05740  0.05740  1.0000
  Pt  Pt2       1.0  0.48400  0.48400  0.48400  1.0000
