data_image0
_chemical_formula_structural       Cr3Mg2Pt2
_chemical_formula_sum              "Cr3 Mg2 Pt2"
_cell_length_a       6.89018
_cell_length_b       6.89018
_cell_length_c       6.89018
_cell_angle_alpha    35.7078
_cell_angle_beta     35.7078
_cell_angle_gamma    35.7078

_space_group_name_H-M_alt    "P 1"
_space_group_IT_number       1

loop_
  _space_group_symop_operation_xyz
  'x, y, z'

loop_
  _atom_site_type_symbol
  _atom_site_label
  _atom_site_symmetry_multiplicity
  _atom_site_fract_x
  _atom_site_fract_y
  _atom_site_fract_z
  _atom_site_occupancy
  Cr  Cr1       1.0  0.33100  0.33100  0.33100  1.0000
  Cr  Cr2       1.0  0.62500  0.62500  0.62500  1.0000
  Cr  Cr3       1.0  0.92100  0.92100  0.92100  1.0000
  Mg  Mg1       1.0  0.19500  0.19500  0.19500  1.0000
  Mg  Mg2       1.0  0.76800  0.76800  0.76800  1.0000
  Pt  Pt1       1.0  0.04990  0.04990  0.04990  1.0000
  Pt  Pt2       1.0  0.48500  0.48500  0.48500  1.0000
