data_image0
_chemical_formula_structural       Al2Ir2Mo3
_chemical_formula_sum              "Al2 Ir2 Mo3"
_cell_length_a       6.83858
_cell_length_b       6.83858
_cell_length_c       6.83858
_cell_angle_alpha    37.0632
_cell_angle_beta     37.0632
_cell_angle_gamma    37.0632

_space_group_name_H-M_alt    "P 1"
_space_group_IT_number       1

loop_
  _space_group_symop_operation_xyz
  'x, y, z'

loop_
  _atom_site_type_symbol
  _atom_site_label
  _atom_site_symmetry_multiplicity
  _atom_site_fract_x
  _atom_site_fract_y
  _atom_site_fract_z
  _atom_site_occupancy
  Al  Al1       1.0  0.19200  0.19200  0.19200  1.0000
  Al  Al2       1.0  0.77000  0.77000  0.77000  1.0000
  Ir  Ir1       1.0  0.05450  0.05450  0.05450  1.0000
  Ir  Ir2       1.0  0.48200  0.48200  0.48200  1.0000
  Mo  Mo1       1.0  0.33700  0.33700  0.33700  1.0000
  Mo  Mo2       1.0  0.62600  0.62600  0.62600  1.0000
  Mo  Mo3       1.0  0.91300  0.91300  0.91300  1.0000
