data_image0
_chemical_formula_structural       Hf2Ru2W3
_chemical_formula_sum              "Hf2 Ru2 W3"
_cell_length_a       7.64497
_cell_length_b       7.64497
_cell_length_c       7.64497
_cell_angle_alpha    33.958
_cell_angle_beta     33.958
_cell_angle_gamma    33.958

_space_group_name_H-M_alt    "P 1"
_space_group_IT_number       1

loop_
  _space_group_symop_operation_xyz
  'x, y, z'

loop_
  _atom_site_type_symbol
  _atom_site_label
  _atom_site_symmetry_multiplicity
  _atom_site_fract_x
  _atom_site_fract_y
  _atom_site_fract_z
  _atom_site_occupancy
  Hf  Hf1       1.0  0.24300  0.24300  0.24300  1.0000
  Hf  Hf2       1.0  0.75800  0.75800  0.75800  1.0000
  Ru  Ru1       1.0  0.00016  0.00016  0.00016  1.0000
  Ru  Ru2       1.0  0.49300  0.49300  0.49300  1.0000
  W   W1        1.0  0.37500  0.37500  0.37500  1.0000
  W   W2        1.0  0.62900  0.62900  0.62900  1.0000
  W   W3        1.0  0.87800  0.87800  0.87800  1.0000
