data_image0
_chemical_formula_structural       Mn2Sb2W3
_chemical_formula_sum              "Mn2 Sb2 W3"
_cell_length_a       7.10572
_cell_length_b       7.10572
_cell_length_c       7.10572
_cell_angle_alpha    36.2123
_cell_angle_beta     36.2123
_cell_angle_gamma    36.2123

_space_group_name_H-M_alt    "P 1"
_space_group_IT_number       1

loop_
  _space_group_symop_operation_xyz
  'x, y, z'

loop_
  _atom_site_type_symbol
  _atom_site_label
  _atom_site_symmetry_multiplicity
  _atom_site_fract_x
  _atom_site_fract_y
  _atom_site_fract_z
  _atom_site_occupancy
  Mn  Mn1       1.0  0.20600  0.20600  0.20600  1.0000
  Mn  Mn2       1.0  0.76600  0.76600  0.76600  1.0000
  Sb  Sb1       1.0  0.05520  0.05520  0.05520  1.0000
  Sb  Sb2       1.0  0.48500  0.48500  0.48500  1.0000
  W   W1        1.0  0.33300  0.33300  0.33300  1.0000
  W   W2        1.0  0.62400  0.62400  0.62400  1.0000
  W   W3        1.0  0.90700  0.90700  0.90700  1.0000
