data_image0
_chemical_formula_structural       B4Be2Ir10Mg4
_chemical_formula_sum              "B4 Be2 Ir10 Mg4"
_cell_length_a       9.26927
_cell_length_b       9.26927
_cell_length_c       2.89441
_cell_angle_alpha    90
_cell_angle_beta     90
_cell_angle_gamma    90

_space_group_name_H-M_alt    "P 1"
_space_group_IT_number       1

loop_
  _space_group_symop_operation_xyz
  'x, y, z'

loop_
  _atom_site_type_symbol
  _atom_site_label
  _atom_site_symmetry_multiplicity
  _atom_site_fract_x
  _atom_site_fract_y
  _atom_site_fract_z
  _atom_site_occupancy
  B   B1        1.0  0.37000  0.13000  0.00000  1.0000
  B   B2        1.0  0.87000  0.37000  0.00000  1.0000
  B   B3        1.0  0.13000  0.63000  0.00000  1.0000
  B   B4        1.0  0.63000  0.87000  0.00000  1.0000
  Be  Be1       1.0  0.00000  0.00000  0.00000  1.0000
  Be  Be2       1.0  0.50000  0.50000  0.00000  1.0000
  Ir  Ir1       1.0  0.50000  0.00000  0.50000  1.0000
  Ir  Ir2       1.0  0.20700  0.06870  0.50000  1.0000
  Ir  Ir3       1.0  0.93100  0.20700  0.50000  1.0000
  Ir  Ir4       1.0  0.43100  0.29300  0.50000  1.0000
  Ir  Ir5       1.0  0.70700  0.43100  0.50000  1.0000
  Ir  Ir6       1.0  0.00000  0.50000  0.50000  1.0000
  Ir  Ir7       1.0  0.29300  0.56900  0.50000  1.0000
  Ir  Ir8       1.0  0.56900  0.70700  0.50000  1.0000
  Ir  Ir9       1.0  0.06870  0.79300  0.50000  1.0000
  Ir  Ir10      1.0  0.79300  0.93100  0.50000  1.0000
  Mg  Mg1       1.0  0.67700  0.17700  0.00000  1.0000
  Mg  Mg2       1.0  0.17700  0.32300  0.00000  1.0000
  Mg  Mg3       1.0  0.82300  0.67700  0.00000  1.0000
  Mg  Mg4       1.0  0.32300  0.82300  0.00000  1.0000
