data_image0
_chemical_formula_structural       Er2Ge2Ti2
_chemical_formula_sum              "Er2 Ge2 Ti2"
_cell_length_a       4.02383
_cell_length_b       4.02383
_cell_length_c       7.58822
_cell_angle_alpha    90
_cell_angle_beta     90
_cell_angle_gamma    90

_space_group_name_H-M_alt    "P 1"
_space_group_IT_number       1

loop_
  _space_group_symop_operation_xyz
  'x, y, z'

loop_
  _atom_site_type_symbol
  _atom_site_label
  _atom_site_symmetry_multiplicity
  _atom_site_fract_x
  _atom_site_fract_y
  _atom_site_fract_z
  _atom_site_occupancy
  Er  Er1       1.0  0.75000  0.75000  0.34100  1.0000
  Er  Er2       1.0  0.25000  0.25000  0.65900  1.0000
  Ge  Ge1       1.0  0.25000  0.25000  0.24800  1.0000
  Ge  Ge2       1.0  0.75000  0.75000  0.75200  1.0000
  Ti  Ti1       1.0  0.75000  0.25000  0.00000  1.0000
  Ti  Ti2       1.0  0.25000  0.75000  0.00000  1.0000
