data_image0
_chemical_formula_structural       Br2C2N2
_chemical_formula_sum              "Br2 C2 N2"
_cell_length_a       5.72707
_cell_length_b       5.91272
_cell_length_c       4.04535
_cell_angle_alpha    90
_cell_angle_beta     90
_cell_angle_gamma    90

_space_group_name_H-M_alt    "P 1"
_space_group_IT_number       1

loop_
  _space_group_symop_operation_xyz
  'x, y, z'

loop_
  _atom_site_type_symbol
  _atom_site_label
  _atom_site_symmetry_multiplicity
  _atom_site_fract_x
  _atom_site_fract_y
  _atom_site_fract_z
  _atom_site_occupancy
  Br  Br1       1.0  0.13800  0.25000  0.25000  1.0000
  Br  Br2       1.0  0.86200  0.75000  0.75000  1.0000
  C   C1        1.0  0.45100  0.25000  0.25000  1.0000
  C   C2        1.0  0.54900  0.75000  0.75000  1.0000
  N   N1        1.0  0.65500  0.25000  0.25000  1.0000
  N   N2        1.0  0.34500  0.75000  0.75000  1.0000
