data_image0
_chemical_formula_structural       B2CErNi2
_chemical_formula_sum              "B2 C1 Er1 Ni2"
_cell_length_a       3.5212
_cell_length_b       3.5212
_cell_length_c       5.77926
_cell_angle_alpha    107.737
_cell_angle_beta     107.737
_cell_angle_gamma    90

_space_group_name_H-M_alt    "P 1"
_space_group_IT_number       1

loop_
  _space_group_symop_operation_xyz
  'x, y, z'

loop_
  _atom_site_type_symbol
  _atom_site_label
  _atom_site_symmetry_multiplicity
  _atom_site_fract_x
  _atom_site_fract_y
  _atom_site_fract_z
  _atom_site_occupancy
  B   B1        1.0  0.64300  0.64300  0.28600  1.0000
  B   B2        1.0  0.35700  0.35700  0.71400  1.0000
  C   C1        1.0  0.50000  0.50000  0.00000  1.0000
  Er  Er1       1.0  0.00000  0.00000  0.00000  1.0000
  Ni  Ni1       1.0  0.75000  0.25000  0.50000  1.0000
  Ni  Ni2       1.0  0.25000  0.75000  0.50000  1.0000
