data_image0
_chemical_formula_structural       Mg2Sc4Se8
_chemical_formula_sum              "Mg2 Sc4 Se8"
_cell_length_a       7.89942
_cell_length_b       7.89942
_cell_length_c       7.89942
_cell_angle_alpha    120
_cell_angle_beta     90
_cell_angle_gamma    120

_space_group_name_H-M_alt    "P 1"
_space_group_IT_number       1

loop_
  _space_group_symop_operation_xyz
  'x, y, z'

loop_
  _atom_site_type_symbol
  _atom_site_label
  _atom_site_symmetry_multiplicity
  _atom_site_fract_x
  _atom_site_fract_y
  _atom_site_fract_z
  _atom_site_occupancy
  Mg  Mg1       1.0  0.37500  0.75000  0.12500  1.0000
  Mg  Mg2       1.0  0.62500  0.25000  0.87500  1.0000
  Sc  Sc1       1.0  0.00000  0.00000  0.00000  1.0000
  Sc  Sc2       1.0  0.00000  0.00000  0.50000  1.0000
  Sc  Sc3       1.0  0.00000  0.50000  0.50000  1.0000
  Sc  Sc4       1.0  0.50000  0.50000  0.50000  1.0000
  Se  Se1       1.0  0.24300  0.01490  0.25700  1.0000
  Se  Se2       1.0  0.24300  0.48500  0.25700  1.0000
  Se  Se3       1.0  0.77200  0.01490  0.25700  1.0000
  Se  Se4       1.0  0.75700  0.51500  0.27200  1.0000
  Se  Se5       1.0  0.24300  0.48500  0.72800  1.0000
  Se  Se6       1.0  0.75700  0.51500  0.74300  1.0000
  Se  Se7       1.0  0.22800  0.98500  0.74300  1.0000
  Se  Se8       1.0  0.75700  0.98500  0.74300  1.0000
