data_image0
_chemical_formula_structural       Eu2O2S
_chemical_formula_sum              "Eu2 O2 S1"
_cell_length_a       3.93298
_cell_length_b       3.933
_cell_length_c       6.87373
_cell_angle_alpha    90
_cell_angle_beta     90.0024
_cell_angle_gamma    120

_space_group_name_H-M_alt    "P 1"
_space_group_IT_number       1

loop_
  _space_group_symop_operation_xyz
  'x, y, z'

loop_
  _atom_site_type_symbol
  _atom_site_label
  _atom_site_symmetry_multiplicity
  _atom_site_fract_x
  _atom_site_fract_y
  _atom_site_fract_z
  _atom_site_occupancy
  Eu  Eu1       1.0  0.33300  0.66700  0.29100  1.0000
  Eu  Eu2       1.0  0.66700  0.33300  0.70900  1.0000
  O   O1        1.0  0.66700  0.33300  0.36700  1.0000
  O   O2        1.0  0.33300  0.66700  0.63300  1.0000
  S   S1        1.0  0.00000  0.00000  0.00000  1.0000
