data_image0
_chemical_formula_structural       P2Te2U2
_chemical_formula_sum              "P2 Te2 U2"
_cell_length_a       4.07493
_cell_length_b       4.07493
_cell_length_c       8.89188
_cell_angle_alpha    103.246
_cell_angle_beta     103.246
_cell_angle_gamma    90

_space_group_name_H-M_alt    "P 1"
_space_group_IT_number       1

loop_
  _space_group_symop_operation_xyz
  'x, y, z'

loop_
  _atom_site_type_symbol
  _atom_site_label
  _atom_site_symmetry_multiplicity
  _atom_site_fract_x
  _atom_site_fract_y
  _atom_site_fract_z
  _atom_site_occupancy
  P   P1        1.0  0.50000  0.00000  0.00000  1.0000
  P   P2        1.0  0.00000  0.50000  0.00000  1.0000
  Te  Te1       1.0  0.68500  0.68500  0.37000  1.0000
  Te  Te2       1.0  0.31500  0.31500  0.63000  1.0000
  U   U1        1.0  0.10900  0.10900  0.21900  1.0000
  U   U2        1.0  0.89100  0.89100  0.78100  1.0000
