data_image0
_chemical_formula_structural       Ga4Mg10
_chemical_formula_sum              "Ga4 Mg10"
_cell_length_a       6.01452
_cell_length_b       7.00269
_cell_length_c       8.25193
_cell_angle_alpha    115.107
_cell_angle_beta     111.373
_cell_angle_gamma    90

_space_group_name_H-M_alt    "P 1"
_space_group_IT_number       1

loop_
  _space_group_symop_operation_xyz
  'x, y, z'

loop_
  _atom_site_type_symbol
  _atom_site_label
  _atom_site_symmetry_multiplicity
  _atom_site_fract_x
  _atom_site_fract_y
  _atom_site_fract_z
  _atom_site_occupancy
  Ga  Ga1       1.0  0.62300  0.38500  0.24500  1.0000
  Ga  Ga2       1.0  0.12300  0.86000  0.24500  1.0000
  Ga  Ga3       1.0  0.87700  0.14000  0.75500  1.0000
  Ga  Ga4       1.0  0.37700  0.61500  0.75500  1.0000
  Mg  Mg1       1.0  0.25000  0.00000  0.00000  1.0000
  Mg  Mg2       1.0  0.75000  0.00000  0.00000  1.0000
  Mg  Mg3       1.0  0.08290  0.42900  0.16600  1.0000
  Mg  Mg4       1.0  0.58300  0.73700  0.16600  1.0000
  Mg  Mg5       1.0  0.48400  0.23400  0.46700  1.0000
  Mg  Mg6       1.0  0.98400  0.23400  0.46700  1.0000
  Mg  Mg7       1.0  0.01630  0.76600  0.53300  1.0000
  Mg  Mg8       1.0  0.51600  0.76600  0.53300  1.0000
  Mg  Mg9       1.0  0.41700  0.26300  0.83400  1.0000
  Mg  Mg10      1.0  0.91700  0.57100  0.83400  1.0000
