data_image0
_chemical_formula_structural       Pt2Tl4
_chemical_formula_sum              "Pt2 Tl4"
_cell_length_a       5.64219
_cell_length_b       5.64273
_cell_length_c       5.64273
_cell_angle_alpha    104.475
_cell_angle_beta     60.0032
_cell_angle_gamma    119.997

_space_group_name_H-M_alt    "P 1"
_space_group_IT_number       1

loop_
  _space_group_symop_operation_xyz
  'x, y, z'

loop_
  _atom_site_type_symbol
  _atom_site_label
  _atom_site_symmetry_multiplicity
  _atom_site_fract_x
  _atom_site_fract_y
  _atom_site_fract_z
  _atom_site_occupancy
  Pt  Pt1       1.0  0.25000  0.00000  0.00000  1.0000
  Pt  Pt2       1.0  0.75000  0.00000  0.00000  1.0000
  Tl  Tl1       1.0  0.16000  0.50000  0.17900  1.0000
  Tl  Tl2       1.0  0.34000  0.17900  0.50000  1.0000
  Tl  Tl3       1.0  0.66000  0.82100  0.50000  1.0000
  Tl  Tl4       1.0  0.84000  0.50000  0.82100  1.0000
