data_image0
_chemical_formula_structural       BrCuO2Sr2
_chemical_formula_sum              "Br1 Cu1 O2 Sr2"
_cell_length_a       4.02554
_cell_length_b       4.02554
_cell_length_c       9.73936
_cell_angle_alpha    90
_cell_angle_beta     101.927
_cell_angle_gamma    120

_space_group_name_H-M_alt    "P 1"
_space_group_IT_number       1

loop_
  _space_group_symop_operation_xyz
  'x, y, z'

loop_
  _atom_site_type_symbol
  _atom_site_label
  _atom_site_symmetry_multiplicity
  _atom_site_fract_x
  _atom_site_fract_y
  _atom_site_fract_z
  _atom_site_occupancy
  Br  Br1       1.0  0.00000  0.00000  0.00000  1.0000
  Cu  Cu1       1.0  0.00000  0.50000  0.50000  1.0000
  O   O1        1.0  0.87300  0.43600  0.30900  1.0000
  O   O2        1.0  0.12700  0.56400  0.69100  1.0000
  Sr  Sr1       1.0  0.49300  0.74700  0.24000  1.0000
  Sr  Sr2       1.0  0.50700  0.25300  0.76000  1.0000
