data_image0
_chemical_formula_structural       Mg10Tl4
_chemical_formula_sum              "Mg10 Tl4"
_cell_length_a       6.2188
_cell_length_b       7.38109
_cell_length_c       8.59341
_cell_angle_alpha    115.433
_cell_angle_beta     111.213
_cell_angle_gamma    90

_space_group_name_H-M_alt    "P 1"
_space_group_IT_number       1

loop_
  _space_group_symop_operation_xyz
  'x, y, z'

loop_
  _atom_site_type_symbol
  _atom_site_label
  _atom_site_symmetry_multiplicity
  _atom_site_fract_x
  _atom_site_fract_y
  _atom_site_fract_z
  _atom_site_occupancy
  Mg  Mg1       1.0  0.25000  0.50000  0.00000  1.0000
  Mg  Mg2       1.0  0.75000  0.50000  0.00000  1.0000
  Mg  Mg3       1.0  0.58800  0.25300  0.17700  1.0000
  Mg  Mg4       1.0  0.08830  0.92400  0.17700  1.0000
  Mg  Mg5       1.0  0.48100  0.73100  0.46300  1.0000
  Mg  Mg6       1.0  0.98100  0.73100  0.46300  1.0000
  Mg  Mg7       1.0  0.01860  0.26900  0.53700  1.0000
  Mg  Mg8       1.0  0.51900  0.26900  0.53700  1.0000
  Mg  Mg9       1.0  0.91200  0.07650  0.82300  1.0000
  Mg  Mg10      1.0  0.41200  0.74700  0.82300  1.0000
  Tl  Tl1       1.0  0.12200  0.35200  0.24400  1.0000
  Tl  Tl2       1.0  0.62200  0.89200  0.24400  1.0000
  Tl  Tl3       1.0  0.37800  0.10800  0.75600  1.0000
  Tl  Tl4       1.0  0.87800  0.64800  0.75600  1.0000
