data_image0
_chemical_formula_structural       Au2Cr3K2
_chemical_formula_sum              "Au2 Cr3 K2"
_cell_length_a       9.65068
_cell_length_b       9.65068
_cell_length_c       9.65068
_cell_angle_alpha    28.673
_cell_angle_beta     28.673
_cell_angle_gamma    28.673

_space_group_name_H-M_alt    "P 1"
_space_group_IT_number       1

loop_
  _space_group_symop_operation_xyz
  'x, y, z'

loop_
  _atom_site_type_symbol
  _atom_site_label
  _atom_site_symmetry_multiplicity
  _atom_site_fract_x
  _atom_site_fract_y
  _atom_site_fract_z
  _atom_site_occupancy
  Au  Au1       1.0  0.01170  0.01170  0.01170  1.0000
  Au  Au2       1.0  0.55100  0.55100  0.55100  1.0000
  Cr  Cr1       1.0  0.33100  0.33100  0.33100  1.0000
  Cr  Cr2       1.0  0.64500  0.64500  0.64500  1.0000
  Cr  Cr3       1.0  0.91500  0.91500  0.91500  1.0000
  K   K1        1.0  0.16400  0.16400  0.16400  1.0000
  K   K2        1.0  0.75700  0.75700  0.75700  1.0000
