data_image0
_chemical_formula_structural       Pb4Pd2
_chemical_formula_sum              "Pb4 Pd2"
_cell_length_a       5.73864
_cell_length_b       5.73864
_cell_length_c       5.73864
_cell_angle_alpha    118.274
_cell_angle_beta     105.257
_cell_angle_gamma    105.257

_space_group_name_H-M_alt    "P 1"
_space_group_IT_number       1

loop_
  _space_group_symop_operation_xyz
  'x, y, z'

loop_
  _atom_site_type_symbol
  _atom_site_label
  _atom_site_symmetry_multiplicity
  _atom_site_fract_x
  _atom_site_fract_y
  _atom_site_fract_z
  _atom_site_occupancy
  Pb  Pb1       1.0  0.50000  0.33900  0.16100  1.0000
  Pb  Pb2       1.0  0.17700  0.83900  0.33900  1.0000
  Pb  Pb3       1.0  0.82300  0.16100  0.66100  1.0000
  Pb  Pb4       1.0  0.50000  0.66100  0.83900  1.0000
  Pd  Pd1       1.0  0.00000  0.25000  0.25000  1.0000
  Pd  Pd2       1.0  0.00000  0.75000  0.75000  1.0000
