data_image0
_chemical_formula_structural       Cr3Pt2Sr2
_chemical_formula_sum              "Cr3 Pt2 Sr2"
_cell_length_a       8.28745
_cell_length_b       8.28745
_cell_length_c       8.28745
_cell_angle_alpha    33.7852
_cell_angle_beta     33.7852
_cell_angle_gamma    33.7852

_space_group_name_H-M_alt    "P 1"
_space_group_IT_number       1

loop_
  _space_group_symop_operation_xyz
  'x, y, z'

loop_
  _atom_site_type_symbol
  _atom_site_label
  _atom_site_symmetry_multiplicity
  _atom_site_fract_x
  _atom_site_fract_y
  _atom_site_fract_z
  _atom_site_occupancy
  Cr  Cr1       1.0  0.34900  0.34900  0.34900  1.0000
  Cr  Cr2       1.0  0.62800  0.62800  0.62800  1.0000
  Cr  Cr3       1.0  0.90800  0.90800  0.90800  1.0000
  Pt  Pt1       1.0  0.01530  0.01530  0.01530  1.0000
  Pt  Pt2       1.0  0.50900  0.50900  0.50900  1.0000
  Sr  Sr1       1.0  0.20200  0.20200  0.20200  1.0000
  Sr  Sr2       1.0  0.76300  0.76300  0.76300  1.0000
