data_image0
_chemical_formula_structural       O2Se2Th2
_chemical_formula_sum              "O2 Se2 Th2"
_cell_length_a       4.05634
_cell_length_b       4.05634
_cell_length_c       7.08414
_cell_angle_alpha    90
_cell_angle_beta     90
_cell_angle_gamma    90

_space_group_name_H-M_alt    "P 1"
_space_group_IT_number       1

loop_
  _space_group_symop_operation_xyz
  'x, y, z'

loop_
  _atom_site_type_symbol
  _atom_site_label
  _atom_site_symmetry_multiplicity
  _atom_site_fract_x
  _atom_site_fract_y
  _atom_site_fract_z
  _atom_site_occupancy
  O   O1        1.0  0.75000  0.25000  0.00000  1.0000
  O   O2        1.0  0.25000  0.75000  0.00000  1.0000
  Se  Se1       1.0  0.75000  0.75000  0.36700  1.0000
  Se  Se2       1.0  0.25000  0.25000  0.63300  1.0000
  Th  Th1       1.0  0.25000  0.25000  0.19100  1.0000
  Th  Th2       1.0  0.75000  0.75000  0.80900  1.0000
