data_image0
_chemical_formula_structural       Ba2Cr3Pd2
_chemical_formula_sum              "Ba2 Cr3 Pd2"
_cell_length_a       9.01524
_cell_length_b       9.01524
_cell_length_c       9.01524
_cell_angle_alpha    31.7274
_cell_angle_beta     31.7274
_cell_angle_gamma    31.7274

_space_group_name_H-M_alt    "P 1"
_space_group_IT_number       1

loop_
  _space_group_symop_operation_xyz
  'x, y, z'

loop_
  _atom_site_type_symbol
  _atom_site_label
  _atom_site_symmetry_multiplicity
  _atom_site_fract_x
  _atom_site_fract_y
  _atom_site_fract_z
  _atom_site_occupancy
  Ba  Ba1       1.0  0.19800  0.19800  0.19800  1.0000
  Ba  Ba2       1.0  0.75900  0.75900  0.75900  1.0000
  Cr  Cr1       1.0  0.33600  0.33600  0.33600  1.0000
  Cr  Cr2       1.0  0.62900  0.62900  0.62900  1.0000
  Cr  Cr3       1.0  0.91800  0.91800  0.91800  1.0000
  Pd  Pd1       1.0  0.01520  0.01520  0.01520  1.0000
  Pd  Pd2       1.0  0.52000  0.52000  0.52000  1.0000
