data_image0
_chemical_formula_structural       Mo2P4
_chemical_formula_sum              "Mo2 P4"
_cell_length_a       3.15805
_cell_length_b       5.00267
_cell_length_c       5.83039
_cell_angle_alpha    90
_cell_angle_beta     74.2865
_cell_angle_gamma    90

_space_group_name_H-M_alt    "P 1"
_space_group_IT_number       1

loop_
  _space_group_symop_operation_xyz
  'x, y, z'

loop_
  _atom_site_type_symbol
  _atom_site_label
  _atom_site_symmetry_multiplicity
  _atom_site_fract_x
  _atom_site_fract_y
  _atom_site_fract_z
  _atom_site_occupancy
  Mo  Mo1       1.0  0.90700  0.50000  0.18600  1.0000
  Mo  Mo2       1.0  0.09290  0.00013  0.81400  1.0000
  P   P1        1.0  0.43000  0.11900  0.14000  1.0000
  P   P2        1.0  0.29800  0.80200  0.40400  1.0000
  P   P3        1.0  0.70200  0.30200  0.59600  1.0000
  P   P4        1.0  0.57000  0.61900  0.86000  1.0000
