data_image0
_chemical_formula_structural       Ir2Mo3Y2
_chemical_formula_sum              "Ir2 Mo3 Y2"
_cell_length_a       7.82018
_cell_length_b       7.82018
_cell_length_c       7.82018
_cell_angle_alpha    33.8608
_cell_angle_beta     33.8608
_cell_angle_gamma    33.8608

_space_group_name_H-M_alt    "P 1"
_space_group_IT_number       1

loop_
  _space_group_symop_operation_xyz
  'x, y, z'

loop_
  _atom_site_type_symbol
  _atom_site_label
  _atom_site_symmetry_multiplicity
  _atom_site_fract_x
  _atom_site_fract_y
  _atom_site_fract_z
  _atom_site_occupancy
  Ir  Ir1       1.0  0.49400  0.49400  0.49400  1.0000
  Ir  Ir2       1.0  0.99800  0.99800  0.99800  1.0000
  Mo  Mo1       1.0  0.37400  0.37400  0.37400  1.0000
  Mo  Mo2       1.0  0.63100  0.63100  0.63100  1.0000
  Mo  Mo3       1.0  0.87900  0.87900  0.87900  1.0000
  Y   Y1        1.0  0.23800  0.23800  0.23800  1.0000
  Y   Y2        1.0  0.76000  0.76000  0.76000  1.0000
