data_image0
_chemical_formula_structural       Cr3Mg2Pd2
_chemical_formula_sum              "Cr3 Mg2 Pd2"
_cell_length_a       7.0609
_cell_length_b       7.0609
_cell_length_c       7.0609
_cell_angle_alpha    34.1549
_cell_angle_beta     34.1549
_cell_angle_gamma    34.1549

_space_group_name_H-M_alt    "P 1"
_space_group_IT_number       1

loop_
  _space_group_symop_operation_xyz
  'x, y, z'

loop_
  _atom_site_type_symbol
  _atom_site_label
  _atom_site_symmetry_multiplicity
  _atom_site_fract_x
  _atom_site_fract_y
  _atom_site_fract_z
  _atom_site_occupancy
  Cr  Cr1       1.0  0.32700  0.32700  0.32700  1.0000
  Cr  Cr2       1.0  0.62300  0.62300  0.62300  1.0000
  Cr  Cr3       1.0  0.92700  0.92700  0.92700  1.0000
  Mg  Mg1       1.0  0.19600  0.19600  0.19600  1.0000
  Mg  Mg2       1.0  0.76600  0.76600  0.76600  1.0000
  Pd  Pd1       1.0  0.05240  0.05240  0.05240  1.0000
  Pd  Pd2       1.0  0.48300  0.48300  0.48300  1.0000
