data_image0
_chemical_formula_structural       B2Rh2W3
_chemical_formula_sum              "B2 Rh2 W3"
_cell_length_a       6.88937
_cell_length_b       6.88937
_cell_length_c       6.88937
_cell_angle_alpha    34.7551
_cell_angle_beta     34.7551
_cell_angle_gamma    34.7551

_space_group_name_H-M_alt    "P 1"
_space_group_IT_number       1

loop_
  _space_group_symop_operation_xyz
  'x, y, z'

loop_
  _atom_site_type_symbol
  _atom_site_label
  _atom_site_symmetry_multiplicity
  _atom_site_fract_x
  _atom_site_fract_y
  _atom_site_fract_z
  _atom_site_occupancy
  B   B1        1.0  0.24000  0.24000  0.24000  1.0000
  B   B2        1.0  0.75700  0.75700  0.75700  1.0000
  Rh  Rh1       1.0  0.05400  0.05400  0.05400  1.0000
  Rh  Rh2       1.0  0.47700  0.47700  0.47700  1.0000
  W   W1        1.0  0.35100  0.35100  0.35100  1.0000
  W   W2        1.0  0.62100  0.62100  0.62100  1.0000
  W   W3        1.0  0.87600  0.87600  0.87600  1.0000
