data_image0
_chemical_formula_structural       In2Ir2Mo3
_chemical_formula_sum              "In2 Ir2 Mo3"
_cell_length_a       7.21756
_cell_length_b       7.21756
_cell_length_c       7.21756
_cell_angle_alpha    36.2093
_cell_angle_beta     36.2093
_cell_angle_gamma    36.2093

_space_group_name_H-M_alt    "P 1"
_space_group_IT_number       1

loop_
  _space_group_symop_operation_xyz
  'x, y, z'

loop_
  _atom_site_type_symbol
  _atom_site_label
  _atom_site_symmetry_multiplicity
  _atom_site_fract_x
  _atom_site_fract_y
  _atom_site_fract_z
  _atom_site_occupancy
  In  In1       1.0  0.19500  0.19500  0.19500  1.0000
  In  In2       1.0  0.76700  0.76700  0.76700  1.0000
  Ir  Ir1       1.0  0.04390  0.04390  0.04390  1.0000
  Ir  Ir2       1.0  0.48600  0.48600  0.48600  1.0000
  Mo  Mo1       1.0  0.33900  0.33900  0.33900  1.0000
  Mo  Mo2       1.0  0.62600  0.62600  0.62600  1.0000
  Mo  Mo3       1.0  0.91800  0.91800  0.91800  1.0000
