data_image0
_chemical_formula_structural       In2Mo3Rh2
_chemical_formula_sum              "In2 Mo3 Rh2"
_cell_length_a       7.21609
_cell_length_b       7.21609
_cell_length_c       7.21609
_cell_angle_alpha    36.0104
_cell_angle_beta     36.0104
_cell_angle_gamma    36.0104

_space_group_name_H-M_alt    "P 1"
_space_group_IT_number       1

loop_
  _space_group_symop_operation_xyz
  'x, y, z'

loop_
  _atom_site_type_symbol
  _atom_site_label
  _atom_site_symmetry_multiplicity
  _atom_site_fract_x
  _atom_site_fract_y
  _atom_site_fract_z
  _atom_site_occupancy
  In  In1       1.0  0.19400  0.19400  0.19400  1.0000
  In  In2       1.0  0.76700  0.76700  0.76700  1.0000
  Mo  Mo1       1.0  0.33800  0.33800  0.33800  1.0000
  Mo  Mo2       1.0  0.62500  0.62500  0.62500  1.0000
  Mo  Mo3       1.0  0.92000  0.92000  0.92000  1.0000
  Rh  Rh1       1.0  0.04680  0.04680  0.04680  1.0000
  Rh  Rh2       1.0  0.48400  0.48400  0.48400  1.0000
