data_image0
_chemical_formula_structural       In2Rh2W3
_chemical_formula_sum              "In2 Rh2 W3"
_cell_length_a       7.25307
_cell_length_b       7.25307
_cell_length_c       7.25307
_cell_angle_alpha    35.9038
_cell_angle_beta     35.9038
_cell_angle_gamma    35.9038

_space_group_name_H-M_alt    "P 1"
_space_group_IT_number       1

loop_
  _space_group_symop_operation_xyz
  'x, y, z'

loop_
  _atom_site_type_symbol
  _atom_site_label
  _atom_site_symmetry_multiplicity
  _atom_site_fract_x
  _atom_site_fract_y
  _atom_site_fract_z
  _atom_site_occupancy
  In  In1       1.0  0.19300  0.19300  0.19300  1.0000
  In  In2       1.0  0.76700  0.76700  0.76700  1.0000
  Rh  Rh1       1.0  0.04530  0.04530  0.04530  1.0000
  Rh  Rh2       1.0  0.48700  0.48700  0.48700  1.0000
  W   W1        1.0  0.33900  0.33900  0.33900  1.0000
  W   W2        1.0  0.62500  0.62500  0.62500  1.0000
  W   W3        1.0  0.91900  0.91900  0.91900  1.0000
