data_image0
_chemical_formula_structural       Ba2Cr3Pt2
_chemical_formula_sum              "Ba2 Cr3 Pt2"
_cell_length_a       8.77342
_cell_length_b       8.77342
_cell_length_c       8.77342
_cell_angle_alpha    32.4701
_cell_angle_beta     32.4701
_cell_angle_gamma    32.4701

_space_group_name_H-M_alt    "P 1"
_space_group_IT_number       1

loop_
  _space_group_symop_operation_xyz
  'x, y, z'

loop_
  _atom_site_type_symbol
  _atom_site_label
  _atom_site_symmetry_multiplicity
  _atom_site_fract_x
  _atom_site_fract_y
  _atom_site_fract_z
  _atom_site_occupancy
  Ba  Ba1       1.0  0.20200  0.20200  0.20200  1.0000
  Ba  Ba2       1.0  0.76200  0.76200  0.76200  1.0000
  Cr  Cr1       1.0  0.34000  0.34000  0.34000  1.0000
  Cr  Cr2       1.0  0.63000  0.63000  0.63000  1.0000
  Cr  Cr3       1.0  0.91300  0.91300  0.91300  1.0000
  Pt  Pt1       1.0  0.01290  0.01290  0.01290  1.0000
  Pt  Pt2       1.0  0.51600  0.51600  0.51600  1.0000
