data_image0
_chemical_formula_structural       Ca2Mo3Pd2
_chemical_formula_sum              "Ca2 Mo3 Pd2"
_cell_length_a       7.9684
_cell_length_b       7.9684
_cell_length_c       7.9684
_cell_angle_alpha    33.1104
_cell_angle_beta     33.1104
_cell_angle_gamma    33.1104

_space_group_name_H-M_alt    "P 1"
_space_group_IT_number       1

loop_
  _space_group_symop_operation_xyz
  'x, y, z'

loop_
  _atom_site_type_symbol
  _atom_site_label
  _atom_site_symmetry_multiplicity
  _atom_site_fract_x
  _atom_site_fract_y
  _atom_site_fract_z
  _atom_site_occupancy
  Ca  Ca1       1.0  0.19300  0.19300  0.19300  1.0000
  Ca  Ca2       1.0  0.76200  0.76200  0.76200  1.0000
  Mo  Mo1       1.0  0.32600  0.32600  0.32600  1.0000
  Mo  Mo2       1.0  0.62200  0.62200  0.62200  1.0000
  Mo  Mo3       1.0  0.93500  0.93500  0.93500  1.0000
  Pd  Pd1       1.0  0.05130  0.05130  0.05130  1.0000
  Pd  Pd2       1.0  0.48500  0.48500  0.48500  1.0000
