data_image0
_chemical_formula_structural       In2Ir2W3
_chemical_formula_sum              "In2 Ir2 W3"
_cell_length_a       7.27853
_cell_length_b       7.27853
_cell_length_c       7.27853
_cell_angle_alpha    35.9334
_cell_angle_beta     35.9334
_cell_angle_gamma    35.9334

_space_group_name_H-M_alt    "P 1"
_space_group_IT_number       1

loop_
  _space_group_symop_operation_xyz
  'x, y, z'

loop_
  _atom_site_type_symbol
  _atom_site_label
  _atom_site_symmetry_multiplicity
  _atom_site_fract_x
  _atom_site_fract_y
  _atom_site_fract_z
  _atom_site_occupancy
  In  In1       1.0  0.19400  0.19400  0.19400  1.0000
  In  In2       1.0  0.76800  0.76800  0.76800  1.0000
  Ir  Ir1       1.0  0.04240  0.04240  0.04240  1.0000
  Ir  Ir2       1.0  0.48900  0.48900  0.48900  1.0000
  W   W1        1.0  0.33900  0.33900  0.33900  1.0000
  W   W2        1.0  0.62600  0.62600  0.62600  1.0000
  W   W3        1.0  0.91800  0.91800  0.91800  1.0000
