data_image0
_chemical_formula_structural       Ir2W3Y2
_chemical_formula_sum              "Ir2 W3 Y2"
_cell_length_a       7.83431
_cell_length_b       7.83431
_cell_length_c       7.83431
_cell_angle_alpha    33.9237
_cell_angle_beta     33.9237
_cell_angle_gamma    33.9237

_space_group_name_H-M_alt    "P 1"
_space_group_IT_number       1

loop_
  _space_group_symop_operation_xyz
  'x, y, z'

loop_
  _atom_site_type_symbol
  _atom_site_label
  _atom_site_symmetry_multiplicity
  _atom_site_fract_x
  _atom_site_fract_y
  _atom_site_fract_z
  _atom_site_occupancy
  Ir  Ir1       1.0  0.49300  0.49300  0.49300  1.0000
  Ir  Ir2       1.0  0.99800  0.99800  0.99800  1.0000
  W   W1        1.0  0.37200  0.37200  0.37200  1.0000
  W   W2        1.0  0.63100  0.63100  0.63100  1.0000
  W   W3        1.0  0.88100  0.88100  0.88100  1.0000
  Y   Y1        1.0  0.23800  0.23800  0.23800  1.0000
  Y   Y2        1.0  0.76100  0.76100  0.76100  1.0000
