data_image0
_chemical_formula_structural       Cr3Fe2Ge2
_chemical_formula_sum              "Cr3 Fe2 Ge2"
_cell_length_a       6.37025
_cell_length_b       6.37025
_cell_length_c       6.37025
_cell_angle_alpha    36.5592
_cell_angle_beta     36.5592
_cell_angle_gamma    36.5592

_space_group_name_H-M_alt    "P 1"
_space_group_IT_number       1

loop_
  _space_group_symop_operation_xyz
  'x, y, z'

loop_
  _atom_site_type_symbol
  _atom_site_label
  _atom_site_symmetry_multiplicity
  _atom_site_fract_x
  _atom_site_fract_y
  _atom_site_fract_z
  _atom_site_occupancy
  Cr  Cr1       1.0  0.33500  0.33500  0.33500  1.0000
  Cr  Cr2       1.0  0.62600  0.62600  0.62600  1.0000
  Cr  Cr3       1.0  0.91000  0.91000  0.91000  1.0000
  Fe  Fe1       1.0  0.19900  0.19900  0.19900  1.0000
  Fe  Fe2       1.0  0.76900  0.76900  0.76900  1.0000
  Ge  Ge1       1.0  0.05010  0.05010  0.05010  1.0000
  Ge  Ge2       1.0  0.48700  0.48700  0.48700  1.0000
