data_image0
_chemical_formula_structural       Co2Cr3Tl2
_chemical_formula_sum              "Co2 Cr3 Tl2"
_cell_length_a       7.03654
_cell_length_b       7.03654
_cell_length_c       7.03654
_cell_angle_alpha    36.1614
_cell_angle_beta     36.1614
_cell_angle_gamma    36.1614

_space_group_name_H-M_alt    "P 1"
_space_group_IT_number       1

loop_
  _space_group_symop_operation_xyz
  'x, y, z'

loop_
  _atom_site_type_symbol
  _atom_site_label
  _atom_site_symmetry_multiplicity
  _atom_site_fract_x
  _atom_site_fract_y
  _atom_site_fract_z
  _atom_site_occupancy
  Co  Co1       1.0  0.04630  0.04630  0.04630  1.0000
  Co  Co2       1.0  0.48000  0.48000  0.48000  1.0000
  Cr  Cr1       1.0  0.34700  0.34700  0.34700  1.0000
  Cr  Cr2       1.0  0.61200  0.61200  0.61200  1.0000
  Cr  Cr3       1.0  0.93100  0.93100  0.93100  1.0000
  Tl  Tl1       1.0  0.19900  0.19900  0.19900  1.0000
  Tl  Tl2       1.0  0.76000  0.76000  0.76000  1.0000
