data_image0
_chemical_formula_structural       Au2K2Mo3
_chemical_formula_sum              "Au2 K2 Mo3"
_cell_length_a       12.3792
_cell_length_b       12.3792
_cell_length_c       12.3792
_cell_angle_alpha    20.2715
_cell_angle_beta     20.2715
_cell_angle_gamma    20.2715

_space_group_name_H-M_alt    "P 1"
_space_group_IT_number       1

loop_
  _space_group_symop_operation_xyz
  'x, y, z'

loop_
  _atom_site_type_symbol
  _atom_site_label
  _atom_site_symmetry_multiplicity
  _atom_site_fract_x
  _atom_site_fract_y
  _atom_site_fract_z
  _atom_site_occupancy
  Au  Au1       1.0  0.02420  0.02420  0.02420  1.0000
  Au  Au2       1.0  0.48200  0.48200  0.48200  1.0000
  K   K1        1.0  0.20700  0.20700  0.20700  1.0000
  K   K2        1.0  0.75600  0.75600  0.75600  1.0000
  Mo  Mo1       1.0  0.31800  0.31800  0.31800  1.0000
  Mo  Mo2       1.0  0.64000  0.64000  0.64000  1.0000
  Mo  Mo3       1.0  0.94900  0.94900  0.94900  1.0000
