data_image0
_chemical_formula_structural       Cr3Cu2Rb2
_chemical_formula_sum              "Cr3 Cu2 Rb2"
_cell_length_a       11.9209
_cell_length_b       11.9209
_cell_length_c       11.9209
_cell_angle_alpha    19.5578
_cell_angle_beta     19.5578
_cell_angle_gamma    19.5578

_space_group_name_H-M_alt    "P 1"
_space_group_IT_number       1

loop_
  _space_group_symop_operation_xyz
  'x, y, z'

loop_
  _atom_site_type_symbol
  _atom_site_label
  _atom_site_symmetry_multiplicity
  _atom_site_fract_x
  _atom_site_fract_y
  _atom_site_fract_z
  _atom_site_occupancy
  Cr  Cr1       1.0  0.29200  0.29200  0.29200  1.0000
  Cr  Cr2       1.0  0.64400  0.64400  0.64400  1.0000
  Cr  Cr3       1.0  0.93700  0.93700  0.93700  1.0000
  Cu  Cu1       1.0  0.00598  0.00598  0.00598  1.0000
  Cu  Cu2       1.0  0.57600  0.57600  0.57600  1.0000
  Rb  Rb1       1.0  0.17800  0.17800  0.17800  1.0000
  Rb  Rb2       1.0  0.74000  0.74000  0.74000  1.0000
