data_image0
_chemical_formula_structural       Co2Cr3Ga2
_chemical_formula_sum              "Co2 Cr3 Ga2"
_cell_length_a       6.39124
_cell_length_b       6.39124
_cell_length_c       6.39124
_cell_angle_alpha    36.5177
_cell_angle_beta     36.5177
_cell_angle_gamma    36.5177

_space_group_name_H-M_alt    "P 1"
_space_group_IT_number       1

loop_
  _space_group_symop_operation_xyz
  'x, y, z'

loop_
  _atom_site_type_symbol
  _atom_site_label
  _atom_site_symmetry_multiplicity
  _atom_site_fract_x
  _atom_site_fract_y
  _atom_site_fract_z
  _atom_site_occupancy
  Co  Co1       1.0  0.04980  0.04980  0.04980  1.0000
  Co  Co2       1.0  0.48200  0.48200  0.48200  1.0000
  Cr  Cr1       1.0  0.33900  0.33900  0.33900  1.0000
  Cr  Cr2       1.0  0.62400  0.62400  0.62400  1.0000
  Cr  Cr3       1.0  0.91800  0.91800  0.91800  1.0000
  Ga  Ga1       1.0  0.19600  0.19600  0.19600  1.0000
  Ga  Ga2       1.0  0.76600  0.76600  0.76600  1.0000
