data_image0
_chemical_formula_structural       Rh2Tl2W3
_chemical_formula_sum              "Rh2 Tl2 W3"
_cell_length_a       7.48
_cell_length_b       7.48
_cell_length_c       7.48
_cell_angle_alpha    34.8404
_cell_angle_beta     34.8404
_cell_angle_gamma    34.8404

_space_group_name_H-M_alt    "P 1"
_space_group_IT_number       1

loop_
  _space_group_symop_operation_xyz
  'x, y, z'

loop_
  _atom_site_type_symbol
  _atom_site_label
  _atom_site_symmetry_multiplicity
  _atom_site_fract_x
  _atom_site_fract_y
  _atom_site_fract_z
  _atom_site_occupancy
  Rh  Rh1       1.0  0.04120  0.04120  0.04120  1.0000
  Rh  Rh2       1.0  0.49000  0.49000  0.49000  1.0000
  Tl  Tl1       1.0  0.19300  0.19300  0.19300  1.0000
  Tl  Tl2       1.0  0.76600  0.76600  0.76600  1.0000
  W   W1        1.0  0.33800  0.33800  0.33800  1.0000
  W   W2        1.0  0.62600  0.62600  0.62600  1.0000
  W   W3        1.0  0.92000  0.92000  0.92000  1.0000
