data_image0
_chemical_formula_structural       Cr3Ru2Zr2
_chemical_formula_sum              "Cr3 Ru2 Zr2"
_cell_length_a       7.23279
_cell_length_b       7.23279
_cell_length_c       7.23279
_cell_angle_alpha    34.6922
_cell_angle_beta     34.6922
_cell_angle_gamma    34.6922

_space_group_name_H-M_alt    "P 1"
_space_group_IT_number       1

loop_
  _space_group_symop_operation_xyz
  'x, y, z'

loop_
  _atom_site_type_symbol
  _atom_site_label
  _atom_site_symmetry_multiplicity
  _atom_site_fract_x
  _atom_site_fract_y
  _atom_site_fract_z
  _atom_site_occupancy
  Cr  Cr1       1.0  0.37300  0.37300  0.37300  1.0000
  Cr  Cr2       1.0  0.63000  0.63000  0.63000  1.0000
  Cr  Cr3       1.0  0.88200  0.88200  0.88200  1.0000
  Ru  Ru1       1.0  0.49300  0.49300  0.49300  1.0000
  Ru  Ru2       1.0  0.99900  0.99900  0.99900  1.0000
  Zr  Zr1       1.0  0.24000  0.24000  0.24000  1.0000
  Zr  Zr2       1.0  0.75900  0.75900  0.75900  1.0000
