data_image0
_chemical_formula_structural       Co2Cr3In2
_chemical_formula_sum              "Co2 Cr3 In2"
_cell_length_a       6.83136
_cell_length_b       6.83136
_cell_length_c       6.83136
_cell_angle_alpha    36.3239
_cell_angle_beta     36.3239
_cell_angle_gamma    36.3239

_space_group_name_H-M_alt    "P 1"
_space_group_IT_number       1

loop_
  _space_group_symop_operation_xyz
  'x, y, z'

loop_
  _atom_site_type_symbol
  _atom_site_label
  _atom_site_symmetry_multiplicity
  _atom_site_fract_x
  _atom_site_fract_y
  _atom_site_fract_z
  _atom_site_occupancy
  Co  Co1       1.0  0.04350  0.04350  0.04350  1.0000
  Co  Co2       1.0  0.48200  0.48200  0.48200  1.0000
  Cr  Cr1       1.0  0.34400  0.34400  0.34400  1.0000
  Cr  Cr2       1.0  0.62300  0.62300  0.62300  1.0000
  Cr  Cr3       1.0  0.92200  0.92200  0.92200  1.0000
  In  In1       1.0  0.19700  0.19700  0.19700  1.0000
  In  In2       1.0  0.76400  0.76400  0.76400  1.0000
