data_image0
_chemical_formula_structural       F4In4O4
_chemical_formula_sum              "F4 In4 O4"
_cell_length_a       5.47586
_cell_length_b       5.47586
_cell_length_c       6.20558
_cell_angle_alpha    111.445
_cell_angle_beta     111.445
_cell_angle_gamma    99.8659

_space_group_name_H-M_alt    "P 1"
_space_group_IT_number       1

loop_
  _space_group_symop_operation_xyz
  'x, y, z'

loop_
  _atom_site_type_symbol
  _atom_site_label
  _atom_site_symmetry_multiplicity
  _atom_site_fract_x
  _atom_site_fract_y
  _atom_site_fract_z
  _atom_site_occupancy
  F   F1        1.0  0.50000  0.00000  0.00000  1.0000
  F   F2        1.0  0.50000  0.50000  0.00000  1.0000
  F   F3        1.0  0.00000  0.50000  0.50000  1.0000
  F   F4        1.0  0.50000  0.50000  0.50000  1.0000
  In  In1       1.0  0.92500  0.07540  0.25000  1.0000
  In  In2       1.0  0.32500  0.67500  0.25000  1.0000
  In  In3       1.0  0.67500  0.32500  0.75000  1.0000
  In  In4       1.0  0.07540  0.92500  0.75000  1.0000
  O   O1        1.0  0.01180  0.26200  0.02350  1.0000
  O   O2        1.0  0.73800  0.98800  0.47600  1.0000
  O   O3        1.0  0.26200  0.01180  0.52400  1.0000
  O   O4        1.0  0.98800  0.73800  0.97600  1.0000
