data_image0
_chemical_formula_structural       Cr3Fe2Hf2
_chemical_formula_sum              "Cr3 Fe2 Hf2"
_cell_length_a       6.74073
_cell_length_b       6.74073
_cell_length_c       6.74073
_cell_angle_alpha    36.4216
_cell_angle_beta     36.4216
_cell_angle_gamma    36.4216

_space_group_name_H-M_alt    "P 1"
_space_group_IT_number       1

loop_
  _space_group_symop_operation_xyz
  'x, y, z'

loop_
  _atom_site_type_symbol
  _atom_site_label
  _atom_site_symmetry_multiplicity
  _atom_site_fract_x
  _atom_site_fract_y
  _atom_site_fract_z
  _atom_site_occupancy
  Cr  Cr1       1.0  0.34000  0.34000  0.34000  1.0000
  Cr  Cr2       1.0  0.62500  0.62500  0.62500  1.0000
  Cr  Cr3       1.0  0.92200  0.92200  0.92200  1.0000
  Fe  Fe1       1.0  0.04270  0.04270  0.04270  1.0000
  Fe  Fe2       1.0  0.48300  0.48300  0.48300  1.0000
  Hf  Hf1       1.0  0.19800  0.19800  0.19800  1.0000
  Hf  Hf2       1.0  0.76400  0.76400  0.76400  1.0000
