data_image0
_chemical_formula_structural       Cr3Fe2Si2
_chemical_formula_sum              "Cr3 Fe2 Si2"
_cell_length_a       6.16797
_cell_length_b       6.16797
_cell_length_c       6.16797
_cell_angle_alpha    37.0992
_cell_angle_beta     37.0992
_cell_angle_gamma    37.0992

_space_group_name_H-M_alt    "P 1"
_space_group_IT_number       1

loop_
  _space_group_symop_operation_xyz
  'x, y, z'

loop_
  _atom_site_type_symbol
  _atom_site_label
  _atom_site_symmetry_multiplicity
  _atom_site_fract_x
  _atom_site_fract_y
  _atom_site_fract_z
  _atom_site_occupancy
  Cr  Cr1       1.0  0.33800  0.33800  0.33800  1.0000
  Cr  Cr2       1.0  0.62500  0.62500  0.62500  1.0000
  Cr  Cr3       1.0  0.91100  0.91100  0.91100  1.0000
  Fe  Fe1       1.0  0.19500  0.19500  0.19500  1.0000
  Fe  Fe2       1.0  0.76900  0.76900  0.76900  1.0000
  Si  Si1       1.0  0.05400  0.05400  0.05400  1.0000
  Si  Si2       1.0  0.48300  0.48300  0.48300  1.0000
