data_image0
_chemical_formula_structural       Co2Mo3Y2
_chemical_formula_sum              "Co2 Mo3 Y2"
_cell_length_a       7.79476
_cell_length_b       7.79476
_cell_length_c       7.79476
_cell_angle_alpha    32.7993
_cell_angle_beta     32.7993
_cell_angle_gamma    32.7993

_space_group_name_H-M_alt    "P 1"
_space_group_IT_number       1

loop_
  _space_group_symop_operation_xyz
  'x, y, z'

loop_
  _atom_site_type_symbol
  _atom_site_label
  _atom_site_symmetry_multiplicity
  _atom_site_fract_x
  _atom_site_fract_y
  _atom_site_fract_z
  _atom_site_occupancy
  Co  Co1       1.0  0.02940  0.02940  0.02940  1.0000
  Co  Co2       1.0  0.50200  0.50200  0.50200  1.0000
  Mo  Mo1       1.0  0.34000  0.34000  0.34000  1.0000
  Mo  Mo2       1.0  0.62400  0.62400  0.62400  1.0000
  Mo  Mo3       1.0  0.92100  0.92100  0.92100  1.0000
  Y   Y1        1.0  0.19300  0.19300  0.19300  1.0000
  Y   Y2        1.0  0.76500  0.76500  0.76500  1.0000
