data_image0
_chemical_formula_structural       Cu2Rb2W3
_chemical_formula_sum              "Cu2 Rb2 W3"
_cell_length_a       11.928
_cell_length_b       11.928
_cell_length_c       11.928
_cell_angle_alpha    20.9463
_cell_angle_beta     20.9463
_cell_angle_gamma    20.9463

_space_group_name_H-M_alt    "P 1"
_space_group_IT_number       1

loop_
  _space_group_symop_operation_xyz
  'x, y, z'

loop_
  _atom_site_type_symbol
  _atom_site_label
  _atom_site_symmetry_multiplicity
  _atom_site_fract_x
  _atom_site_fract_y
  _atom_site_fract_z
  _atom_site_occupancy
  Cu  Cu1       1.0  0.01110  0.01110  0.01110  1.0000
  Cu  Cu2       1.0  0.56200  0.56200  0.56200  1.0000
  Rb  Rb1       1.0  0.17200  0.17200  0.17200  1.0000
  Rb  Rb2       1.0  0.74200  0.74200  0.74200  1.0000
  W   W1        1.0  0.31700  0.31700  0.31700  1.0000
  W   W2        1.0  0.63200  0.63200  0.63200  1.0000
  W   W3        1.0  0.93800  0.93800  0.93800  1.0000
