data_image0
_chemical_formula_structural       Ir2Tl2W3
_chemical_formula_sum              "Ir2 Tl2 W3"
_cell_length_a       7.6218
_cell_length_b       7.6218
_cell_length_c       7.6218
_cell_angle_alpha    34.2128
_cell_angle_beta     34.2128
_cell_angle_gamma    34.2128

_space_group_name_H-M_alt    "P 1"
_space_group_IT_number       1

loop_
  _space_group_symop_operation_xyz
  'x, y, z'

loop_
  _atom_site_type_symbol
  _atom_site_label
  _atom_site_symmetry_multiplicity
  _atom_site_fract_x
  _atom_site_fract_y
  _atom_site_fract_z
  _atom_site_occupancy
  Ir  Ir1       1.0  0.03600  0.03600  0.03600  1.0000
  Ir  Ir2       1.0  0.49700  0.49700  0.49700  1.0000
  Tl  Tl1       1.0  0.19400  0.19400  0.19400  1.0000
  Tl  Tl2       1.0  0.76600  0.76600  0.76600  1.0000
  W   W1        1.0  0.33800  0.33800  0.33800  1.0000
  W   W2        1.0  0.62500  0.62500  0.62500  1.0000
  W   W3        1.0  0.91900  0.91900  0.91900  1.0000
