data_image0
_chemical_formula_structural       Co2La2W3
_chemical_formula_sum              "Co2 La2 W3"
_cell_length_a       8.58441
_cell_length_b       8.58441
_cell_length_c       8.58441
_cell_angle_alpha    29.3903
_cell_angle_beta     29.3903
_cell_angle_gamma    29.3903

_space_group_name_H-M_alt    "P 1"
_space_group_IT_number       1

loop_
  _space_group_symop_operation_xyz
  'x, y, z'

loop_
  _atom_site_type_symbol
  _atom_site_label
  _atom_site_symmetry_multiplicity
  _atom_site_fract_x
  _atom_site_fract_y
  _atom_site_fract_z
  _atom_site_occupancy
  Co  Co1       1.0  0.02200  0.02200  0.02200  1.0000
  Co  Co2       1.0  0.52100  0.52100  0.52100  1.0000
  La  La1       1.0  0.19000  0.19000  0.19000  1.0000
  La  La2       1.0  0.76100  0.76100  0.76100  1.0000
  W   W1        1.0  0.33100  0.33100  0.33100  1.0000
  W   W2        1.0  0.62600  0.62600  0.62600  1.0000
  W   W3        1.0  0.92400  0.92400  0.92400  1.0000
