data_image0
_chemical_formula_structural       Ce2F2O2
_chemical_formula_sum              "Ce2 F2 O2"
_cell_length_a       4.00609
_cell_length_b       4.00609
_cell_length_c       7.05362
_cell_angle_alpha    106.498
_cell_angle_beta     106.498
_cell_angle_gamma    60

_space_group_name_H-M_alt    "P 1"
_space_group_IT_number       1

loop_
  _space_group_symop_operation_xyz
  'x, y, z'

loop_
  _atom_site_type_symbol
  _atom_site_label
  _atom_site_symmetry_multiplicity
  _atom_site_fract_x
  _atom_site_fract_y
  _atom_site_fract_z
  _atom_site_occupancy
  Ce  Ce1       1.0  0.75800  0.75800  0.27300  1.0000
  Ce  Ce2       1.0  0.24200  0.24200  0.72700  1.0000
  F   F1        1.0  0.37000  0.37000  0.11100  1.0000
  F   F2        1.0  0.63000  0.63000  0.88900  1.0000
  O   O1        1.0  0.12200  0.12200  0.36600  1.0000
  O   O2        1.0  0.87800  0.87800  0.63400  1.0000
