data_image0
_chemical_formula_structural       B2Ir3Tb
_chemical_formula_sum              "B2 Ir3 Tb1"
_cell_length_a       3.16081
_cell_length_b       5.46097
_cell_length_c       5.46205
_cell_angle_alpha    60.0065
_cell_angle_beta     89.981
_cell_angle_gamma    89.9619

_space_group_name_H-M_alt    "P 1"
_space_group_IT_number       1

loop_
  _space_group_symop_operation_xyz
  'x, y, z'

loop_
  _atom_site_type_symbol
  _atom_site_label
  _atom_site_symmetry_multiplicity
  _atom_site_fract_x
  _atom_site_fract_y
  _atom_site_fract_z
  _atom_site_occupancy
  B   B1        1.0  0.50000  0.83300  0.33300  1.0000
  B   B2        1.0  0.50000  0.16700  0.66700  1.0000
  Ir  Ir1       1.0  0.00000  0.00000  0.00000  1.0000
  Ir  Ir2       1.0  0.00000  1.00000  0.50000  1.0000
  Ir  Ir3       1.0  0.00000  0.50000  0.50000  1.0000
  Tb  Tb1       1.0  0.50000  0.50000  0.00000  1.0000
