data_image0
_chemical_formula_structural       F2O2Ti2
_chemical_formula_sum              "F2 O2 Ti2"
_cell_length_a       3.43979
_cell_length_b       3.43979
_cell_length_c       6.02071
_cell_angle_alpha    73.4015
_cell_angle_beta     106.598
_cell_angle_gamma    120

_space_group_name_H-M_alt    "P 1"
_space_group_IT_number       1

loop_
  _space_group_symop_operation_xyz
  'x, y, z'

loop_
  _atom_site_type_symbol
  _atom_site_label
  _atom_site_symmetry_multiplicity
  _atom_site_fract_x
  _atom_site_fract_y
  _atom_site_fract_z
  _atom_site_occupancy
  F   F1        1.0  0.37000  0.63000  0.11000  1.0000
  F   F2        1.0  0.63000  0.37000  0.89000  1.0000
  O   O1        1.0  0.12000  0.88000  0.36100  1.0000
  O   O2        1.0  0.88000  0.12000  0.63900  1.0000
  Ti  Ti1       1.0  0.76000  0.24000  0.28000  1.0000
  Ti  Ti2       1.0  0.24000  0.76000  0.72000  1.0000
