data_image0
_chemical_formula_structural       Cr3Os2Si2
_chemical_formula_sum              "Cr3 Os2 Si2"
_cell_length_a       7.02618
_cell_length_b       7.02618
_cell_length_c       7.02618
_cell_angle_alpha    33.4882
_cell_angle_beta     33.4882
_cell_angle_gamma    33.4882

_space_group_name_H-M_alt    "P 1"
_space_group_IT_number       1

loop_
  _space_group_symop_operation_xyz
  'x, y, z'

loop_
  _atom_site_type_symbol
  _atom_site_label
  _atom_site_symmetry_multiplicity
  _atom_site_fract_x
  _atom_site_fract_y
  _atom_site_fract_z
  _atom_site_occupancy
  Cr  Cr1       1.0  0.37400  0.37400  0.37400  1.0000
  Cr  Cr2       1.0  0.62500  0.62500  0.62500  1.0000
  Cr  Cr3       1.0  0.87700  0.87700  0.87700  1.0000
  Os  Os1       1.0  0.01050  0.01050  0.01050  1.0000
  Os  Os2       1.0  0.49300  0.49300  0.49300  1.0000
  Si  Si1       1.0  0.23900  0.23900  0.23900  1.0000
  Si  Si2       1.0  0.75600  0.75600  0.75600  1.0000
