data_image0
_chemical_formula_structural       Mo3Ru2Ti2
_chemical_formula_sum              "Mo3 Ru2 Ti2"
_cell_length_a       7.45801
_cell_length_b       7.45801
_cell_length_c       7.45801
_cell_angle_alpha    33.8014
_cell_angle_beta     33.8014
_cell_angle_gamma    33.8014

_space_group_name_H-M_alt    "P 1"
_space_group_IT_number       1

loop_
  _space_group_symop_operation_xyz
  'x, y, z'

loop_
  _atom_site_type_symbol
  _atom_site_label
  _atom_site_symmetry_multiplicity
  _atom_site_fract_x
  _atom_site_fract_y
  _atom_site_fract_z
  _atom_site_occupancy
  Mo  Mo1       1.0  0.37800  0.37800  0.37800  1.0000
  Mo  Mo2       1.0  0.62800  0.62800  0.62800  1.0000
  Mo  Mo3       1.0  0.87400  0.87400  0.87400  1.0000
  Ru  Ru1       1.0  0.00011  0.00011  0.00011  1.0000
  Ru  Ru2       1.0  0.49500  0.49500  0.49500  1.0000
  Ti  Ti1       1.0  0.24500  0.24500  0.24500  1.0000
  Ti  Ti2       1.0  0.75500  0.75500  0.75500  1.0000
