data_image0
_chemical_formula_structural       Al2Co2W3
_chemical_formula_sum              "Al2 Co2 W3"
_cell_length_a       6.68071
_cell_length_b       6.68071
_cell_length_c       6.68071
_cell_angle_alpha    37.2961
_cell_angle_beta     37.2961
_cell_angle_gamma    37.2961

_space_group_name_H-M_alt    "P 1"
_space_group_IT_number       1

loop_
  _space_group_symop_operation_xyz
  'x, y, z'

loop_
  _atom_site_type_symbol
  _atom_site_label
  _atom_site_symmetry_multiplicity
  _atom_site_fract_x
  _atom_site_fract_y
  _atom_site_fract_z
  _atom_site_occupancy
  Al  Al1       1.0  0.18900  0.18900  0.18900  1.0000
  Al  Al2       1.0  0.76900  0.76900  0.76900  1.0000
  Co  Co1       1.0  0.05240  0.05240  0.05240  1.0000
  Co  Co2       1.0  0.48200  0.48200  0.48200  1.0000
  W   W1        1.0  0.34500  0.34500  0.34500  1.0000
  W   W2        1.0  0.62500  0.62500  0.62500  1.0000
  W   W3        1.0  0.91300  0.91300  0.91300  1.0000
