data_image0
_chemical_formula_structural       Cr3Ru2Si2
_chemical_formula_sum              "Cr3 Ru2 Si2"
_cell_length_a       6.96109
_cell_length_b       6.96109
_cell_length_c       6.96109
_cell_angle_alpha    33.8698
_cell_angle_beta     33.8698
_cell_angle_gamma    33.8698

_space_group_name_H-M_alt    "P 1"
_space_group_IT_number       1

loop_
  _space_group_symop_operation_xyz
  'x, y, z'

loop_
  _atom_site_type_symbol
  _atom_site_label
  _atom_site_symmetry_multiplicity
  _atom_site_fract_x
  _atom_site_fract_y
  _atom_site_fract_z
  _atom_site_occupancy
  Cr  Cr1       1.0  0.37300  0.37300  0.37300  1.0000
  Cr  Cr2       1.0  0.62300  0.62300  0.62300  1.0000
  Cr  Cr3       1.0  0.87900  0.87900  0.87900  1.0000
  Ru  Ru1       1.0  0.01550  0.01550  0.01550  1.0000
  Ru  Ru2       1.0  0.49000  0.49000  0.49000  1.0000
  Si  Si1       1.0  0.23800  0.23800  0.23800  1.0000
  Si  Si2       1.0  0.75600  0.75600  0.75600  1.0000
