data_image0
_chemical_formula_structural       Ge2Mo3Os2
_chemical_formula_sum              "Ge2 Mo3 Os2"
_cell_length_a       7.36113
_cell_length_b       7.36113
_cell_length_c       7.36113
_cell_angle_alpha    34.3146
_cell_angle_beta     34.3146
_cell_angle_gamma    34.3146

_space_group_name_H-M_alt    "P 1"
_space_group_IT_number       1

loop_
  _space_group_symop_operation_xyz
  'x, y, z'

loop_
  _atom_site_type_symbol
  _atom_site_label
  _atom_site_symmetry_multiplicity
  _atom_site_fract_x
  _atom_site_fract_y
  _atom_site_fract_z
  _atom_site_occupancy
  Ge  Ge1       1.0  0.23400  0.23400  0.23400  1.0000
  Ge  Ge2       1.0  0.75800  0.75800  0.75800  1.0000
  Mo  Mo1       1.0  0.37000  0.37000  0.37000  1.0000
  Mo  Mo2       1.0  0.62200  0.62200  0.62200  1.0000
  Mo  Mo3       1.0  0.88300  0.88300  0.88300  1.0000
  Os  Os1       1.0  0.01900  0.01900  0.01900  1.0000
  Os  Os2       1.0  0.49000  0.49000  0.49000  1.0000
