data_image0
_chemical_formula_structural       Fe2Mo3Ti2
_chemical_formula_sum              "Fe2 Mo3 Ti2"
_cell_length_a       7.24503
_cell_length_b       7.24503
_cell_length_c       7.24503
_cell_angle_alpha    34.1041
_cell_angle_beta     34.1041
_cell_angle_gamma    34.1041

_space_group_name_H-M_alt    "P 1"
_space_group_IT_number       1

loop_
  _space_group_symop_operation_xyz
  'x, y, z'

loop_
  _atom_site_type_symbol
  _atom_site_label
  _atom_site_symmetry_multiplicity
  _atom_site_fract_x
  _atom_site_fract_y
  _atom_site_fract_z
  _atom_site_occupancy
  Fe  Fe1       1.0  0.49500  0.49500  0.49500  1.0000
  Fe  Fe2       1.0  0.99800  0.99800  0.99800  1.0000
  Mo  Mo1       1.0  0.37800  0.37800  0.37800  1.0000
  Mo  Mo2       1.0  0.62900  0.62900  0.62900  1.0000
  Mo  Mo3       1.0  0.87500  0.87500  0.87500  1.0000
  Ti  Ti1       1.0  0.24400  0.24400  0.24400  1.0000
  Ti  Ti2       1.0  0.75600  0.75600  0.75600  1.0000
