data_image0
_chemical_formula_structural       B2Mo3Rh2
_chemical_formula_sum              "B2 Mo3 Rh2"
_cell_length_a       6.31317
_cell_length_b       6.31317
_cell_length_c       6.31317
_cell_angle_alpha    38.8836
_cell_angle_beta     38.8836
_cell_angle_gamma    38.8836

_space_group_name_H-M_alt    "P 1"
_space_group_IT_number       1

loop_
  _space_group_symop_operation_xyz
  'x, y, z'

loop_
  _atom_site_type_symbol
  _atom_site_label
  _atom_site_symmetry_multiplicity
  _atom_site_fract_x
  _atom_site_fract_y
  _atom_site_fract_z
  _atom_site_occupancy
  B   B1        1.0  0.20300  0.20300  0.20300  1.0000
  B   B2        1.0  0.75800  0.75800  0.75800  1.0000
  Mo  Mo1       1.0  0.33800  0.33800  0.33800  1.0000
  Mo  Mo2       1.0  0.62600  0.62600  0.62600  1.0000
  Mo  Mo3       1.0  0.89400  0.89400  0.89400  1.0000
  Rh  Rh1       1.0  0.07490  0.07490  0.07490  1.0000
  Rh  Rh2       1.0  0.48100  0.48100  0.48100  1.0000
