data_image0
_chemical_formula_structural       Cr3Fe2Pb2
_chemical_formula_sum              "Cr3 Fe2 Pb2"
_cell_length_a       7.35165
_cell_length_b       7.35165
_cell_length_c       7.35165
_cell_angle_alpha    34.4432
_cell_angle_beta     34.4432
_cell_angle_gamma    34.4432

_space_group_name_H-M_alt    "P 1"
_space_group_IT_number       1

loop_
  _space_group_symop_operation_xyz
  'x, y, z'

loop_
  _atom_site_type_symbol
  _atom_site_label
  _atom_site_symmetry_multiplicity
  _atom_site_fract_x
  _atom_site_fract_y
  _atom_site_fract_z
  _atom_site_occupancy
  Cr  Cr1       1.0  0.33300  0.33300  0.33300  1.0000
  Cr  Cr2       1.0  0.62700  0.62700  0.62700  1.0000
  Cr  Cr3       1.0  0.89500  0.89500  0.89500  1.0000
  Fe  Fe1       1.0  0.23100  0.23100  0.23100  1.0000
  Fe  Fe2       1.0  0.75500  0.75500  0.75500  1.0000
  Pb  Pb1       1.0  0.04450  0.04450  0.04450  1.0000
  Pb  Pb2       1.0  0.48900  0.48900  0.48900  1.0000
