data_image0
_chemical_formula_structural       Co2Tl2W3
_chemical_formula_sum              "Co2 Tl2 W3"
_cell_length_a       7.3245
_cell_length_b       7.3245
_cell_length_c       7.3245
_cell_angle_alpha    34.9105
_cell_angle_beta     34.9105
_cell_angle_gamma    34.9105

_space_group_name_H-M_alt    "P 1"
_space_group_IT_number       1

loop_
  _space_group_symop_operation_xyz
  'x, y, z'

loop_
  _atom_site_type_symbol
  _atom_site_label
  _atom_site_symmetry_multiplicity
  _atom_site_fract_x
  _atom_site_fract_y
  _atom_site_fract_z
  _atom_site_occupancy
  Co  Co1       1.0  0.03740  0.03740  0.03740  1.0000
  Co  Co2       1.0  0.49300  0.49300  0.49300  1.0000
  Tl  Tl1       1.0  0.19000  0.19000  0.19000  1.0000
  Tl  Tl2       1.0  0.76600  0.76600  0.76600  1.0000
  W   W1        1.0  0.34200  0.34200  0.34200  1.0000
  W   W2        1.0  0.62600  0.62600  0.62600  1.0000
  W   W3        1.0  0.92000  0.92000  0.92000  1.0000
