data_image0
_chemical_formula_structural       Fe2Mo3Zr2
_chemical_formula_sum              "Fe2 Mo3 Zr2"
_cell_length_a       7.40429
_cell_length_b       7.40429
_cell_length_c       7.40429
_cell_angle_alpha    34.82
_cell_angle_beta     34.82
_cell_angle_gamma    34.82

_space_group_name_H-M_alt    "P 1"
_space_group_IT_number       1

loop_
  _space_group_symop_operation_xyz
  'x, y, z'

loop_
  _atom_site_type_symbol
  _atom_site_label
  _atom_site_symmetry_multiplicity
  _atom_site_fract_x
  _atom_site_fract_y
  _atom_site_fract_z
  _atom_site_occupancy
  Fe  Fe1       1.0  0.49200  0.49200  0.49200  1.0000
  Fe  Fe2       1.0  0.99800  0.99800  0.99800  1.0000
  Mo  Mo1       1.0  0.37500  0.37500  0.37500  1.0000
  Mo  Mo2       1.0  0.63000  0.63000  0.63000  1.0000
  Mo  Mo3       1.0  0.88100  0.88100  0.88100  1.0000
  Zr  Zr1       1.0  0.23900  0.23900  0.23900  1.0000
  Zr  Zr2       1.0  0.75900  0.75900  0.75900  1.0000
