data_image0
_chemical_formula_structural       Rh2W3Y2
_chemical_formula_sum              "Rh2 W3 Y2"
_cell_length_a       7.82356
_cell_length_b       7.82356
_cell_length_c       7.82356
_cell_angle_alpha    33.6637
_cell_angle_beta     33.6637
_cell_angle_gamma    33.6637

_space_group_name_H-M_alt    "P 1"
_space_group_IT_number       1

loop_
  _space_group_symop_operation_xyz
  'x, y, z'

loop_
  _atom_site_type_symbol
  _atom_site_label
  _atom_site_symmetry_multiplicity
  _atom_site_fract_x
  _atom_site_fract_y
  _atom_site_fract_z
  _atom_site_occupancy
  Rh  Rh1       1.0  0.03630  0.03630  0.03630  1.0000
  Rh  Rh2       1.0  0.49600  0.49600  0.49600  1.0000
  W   W1        1.0  0.33600  0.33600  0.33600  1.0000
  W   W2        1.0  0.62400  0.62400  0.62400  1.0000
  W   W3        1.0  0.92200  0.92200  0.92200  1.0000
  Y   Y1        1.0  0.19500  0.19500  0.19500  1.0000
  Y   Y2        1.0  0.76500  0.76500  0.76500  1.0000
