data_image0
_chemical_formula_structural       Mo3Os2Ti2
_chemical_formula_sum              "Mo3 Os2 Ti2"
_cell_length_a       7.50273
_cell_length_b       7.50273
_cell_length_c       7.50273
_cell_angle_alpha    33.597
_cell_angle_beta     33.597
_cell_angle_gamma    33.597

_space_group_name_H-M_alt    "P 1"
_space_group_IT_number       1

loop_
  _space_group_symop_operation_xyz
  'x, y, z'

loop_
  _atom_site_type_symbol
  _atom_site_label
  _atom_site_symmetry_multiplicity
  _atom_site_fract_x
  _atom_site_fract_y
  _atom_site_fract_z
  _atom_site_occupancy
  Mo  Mo1       1.0  0.37800  0.37800  0.37800  1.0000
  Mo  Mo2       1.0  0.62700  0.62700  0.62700  1.0000
  Mo  Mo3       1.0  0.87400  0.87400  0.87400  1.0000
  Os  Os1       1.0  0.49600  0.49600  0.49600  1.0000
  Os  Os2       1.0  0.99900  0.99900  0.99900  1.0000
  Ti  Ti1       1.0  0.24500  0.24500  0.24500  1.0000
  Ti  Ti2       1.0  0.75500  0.75500  0.75500  1.0000
