data_image0
_chemical_formula_structural       Cr3Os2Pb2
_chemical_formula_sum              "Cr3 Os2 Pb2"
_cell_length_a       7.37756
_cell_length_b       7.37756
_cell_length_c       7.37756
_cell_angle_alpha    35.2034
_cell_angle_beta     35.2034
_cell_angle_gamma    35.2034

_space_group_name_H-M_alt    "P 1"
_space_group_IT_number       1

loop_
  _space_group_symop_operation_xyz
  'x, y, z'

loop_
  _atom_site_type_symbol
  _atom_site_label
  _atom_site_symmetry_multiplicity
  _atom_site_fract_x
  _atom_site_fract_y
  _atom_site_fract_z
  _atom_site_occupancy
  Cr  Cr1       1.0  0.33900  0.33900  0.33900  1.0000
  Cr  Cr2       1.0  0.62800  0.62800  0.62800  1.0000
  Cr  Cr3       1.0  0.87900  0.87900  0.87900  1.0000
  Os  Os1       1.0  0.23300  0.23300  0.23300  1.0000
  Os  Os2       1.0  0.76500  0.76500  0.76500  1.0000
  Pb  Pb1       1.0  0.04120  0.04120  0.04120  1.0000
  Pb  Pb2       1.0  0.48900  0.48900  0.48900  1.0000
