data_image0
_chemical_formula_structural       Cr3Pb2Ru2
_chemical_formula_sum              "Cr3 Pb2 Ru2"
_cell_length_a       7.32597
_cell_length_b       7.32597
_cell_length_c       7.32597
_cell_angle_alpha    35.0988
_cell_angle_beta     35.0988
_cell_angle_gamma    35.0988

_space_group_name_H-M_alt    "P 1"
_space_group_IT_number       1

loop_
  _space_group_symop_operation_xyz
  'x, y, z'

loop_
  _atom_site_type_symbol
  _atom_site_label
  _atom_site_symmetry_multiplicity
  _atom_site_fract_x
  _atom_site_fract_y
  _atom_site_fract_z
  _atom_site_occupancy
  Cr  Cr1       1.0  0.32800  0.32800  0.32800  1.0000
  Cr  Cr2       1.0  0.62600  0.62600  0.62600  1.0000
  Cr  Cr3       1.0  0.90600  0.90600  0.90600  1.0000
  Pb  Pb1       1.0  0.04540  0.04540  0.04540  1.0000
  Pb  Pb2       1.0  0.48900  0.48900  0.48900  1.0000
  Ru  Ru1       1.0  0.21400  0.21400  0.21400  1.0000
  Ru  Ru2       1.0  0.76600  0.76600  0.76600  1.0000
