data_image0
_chemical_formula_structural       Mg12Ru8
_chemical_formula_sum              "Mg12 Ru8"
_cell_length_a       6.93697
_cell_length_b       6.93697
_cell_length_c       6.93697
_cell_angle_alpha    90
_cell_angle_beta     90
_cell_angle_gamma    90

_space_group_name_H-M_alt    "P 1"
_space_group_IT_number       1

loop_
  _space_group_symop_operation_xyz
  'x, y, z'

loop_
  _atom_site_type_symbol
  _atom_site_label
  _atom_site_symmetry_multiplicity
  _atom_site_fract_x
  _atom_site_fract_y
  _atom_site_fract_z
  _atom_site_occupancy
  Mg  Mg1       1.0  0.87500  0.70600  0.04440  1.0000
  Mg  Mg2       1.0  0.20600  0.45600  0.12500  1.0000
  Mg  Mg3       1.0  0.45600  0.12500  0.20600  1.0000
  Mg  Mg4       1.0  0.54400  0.62500  0.29400  1.0000
  Mg  Mg5       1.0  0.79400  0.95600  0.37500  1.0000
  Mg  Mg6       1.0  0.12500  0.20600  0.45600  1.0000
  Mg  Mg7       1.0  0.62500  0.29400  0.54400  1.0000
  Mg  Mg8       1.0  0.29400  0.54400  0.62500  1.0000
  Mg  Mg9       1.0  0.04440  0.87500  0.70600  1.0000
  Mg  Mg10      1.0  0.95600  0.37500  0.79400  1.0000
  Mg  Mg11      1.0  0.70600  0.04440  0.87500  1.0000
  Mg  Mg12      1.0  0.37500  0.79400  0.95600  1.0000
  Ru  Ru1       1.0  0.07460  0.07460  0.07460  1.0000
  Ru  Ru2       1.0  0.82500  0.32500  0.17500  1.0000
  Ru  Ru3       1.0  0.17500  0.82500  0.32500  1.0000
  Ru  Ru4       1.0  0.92500  0.57500  0.42500  1.0000
  Ru  Ru5       1.0  0.42500  0.92500  0.57500  1.0000
  Ru  Ru6       1.0  0.67500  0.67500  0.67500  1.0000
  Ru  Ru7       1.0  0.32500  0.17500  0.82500  1.0000
  Ru  Ru8       1.0  0.57500  0.42500  0.92500  1.0000
