data_image0
_chemical_formula_structural       Mo3Pt2Sr2
_chemical_formula_sum              "Mo3 Pt2 Sr2"
_cell_length_a       10.0048
_cell_length_b       10.0048
_cell_length_c       10.0048
_cell_angle_alpha    25.1462
_cell_angle_beta     25.1462
_cell_angle_gamma    25.1462

_space_group_name_H-M_alt    "P 1"
_space_group_IT_number       1

loop_
  _space_group_symop_operation_xyz
  'x, y, z'

loop_
  _atom_site_type_symbol
  _atom_site_label
  _atom_site_symmetry_multiplicity
  _atom_site_fract_x
  _atom_site_fract_y
  _atom_site_fract_z
  _atom_site_occupancy
  Mo  Mo1       1.0  0.33000  0.33000  0.33000  1.0000
  Mo  Mo2       1.0  0.63100  0.63100  0.63100  1.0000
  Mo  Mo3       1.0  0.94100  0.94100  0.94100  1.0000
  Pt  Pt1       1.0  0.02780  0.02780  0.02780  1.0000
  Pt  Pt2       1.0  0.48400  0.48400  0.48400  1.0000
  Sr  Sr1       1.0  0.20200  0.20200  0.20200  1.0000
  Sr  Sr2       1.0  0.75900  0.75900  0.75900  1.0000
