data_image0
_chemical_formula_structural       Mo3Ru2Si2
_chemical_formula_sum              "Mo3 Ru2 Si2"
_cell_length_a       6.67454
_cell_length_b       6.67454
_cell_length_c       6.67454
_cell_angle_alpha    37.56
_cell_angle_beta     37.56
_cell_angle_gamma    37.56

_space_group_name_H-M_alt    "P 1"
_space_group_IT_number       1

loop_
  _space_group_symop_operation_xyz
  'x, y, z'

loop_
  _atom_site_type_symbol
  _atom_site_label
  _atom_site_symmetry_multiplicity
  _atom_site_fract_x
  _atom_site_fract_y
  _atom_site_fract_z
  _atom_site_occupancy
  Mo  Mo1       1.0  0.33900  0.33900  0.33900  1.0000
  Mo  Mo2       1.0  0.62600  0.62600  0.62600  1.0000
  Mo  Mo3       1.0  0.90800  0.90800  0.90800  1.0000
  Ru  Ru1       1.0  0.05820  0.05820  0.05820  1.0000
  Ru  Ru2       1.0  0.48100  0.48100  0.48100  1.0000
  Si  Si1       1.0  0.19500  0.19500  0.19500  1.0000
  Si  Si2       1.0  0.76800  0.76800  0.76800  1.0000
