data_image0
_chemical_formula_structural       Fe2Mo3Si2
_chemical_formula_sum              "Fe2 Mo3 Si2"
_cell_length_a       6.50057
_cell_length_b       6.50057
_cell_length_c       6.50057
_cell_angle_alpha    37.7334
_cell_angle_beta     37.7334
_cell_angle_gamma    37.7334

_space_group_name_H-M_alt    "P 1"
_space_group_IT_number       1

loop_
  _space_group_symop_operation_xyz
  'x, y, z'

loop_
  _atom_site_type_symbol
  _atom_site_label
  _atom_site_symmetry_multiplicity
  _atom_site_fract_x
  _atom_site_fract_y
  _atom_site_fract_z
  _atom_site_occupancy
  Fe  Fe1       1.0  0.19200  0.19200  0.19200  1.0000
  Fe  Fe2       1.0  0.77000  0.77000  0.77000  1.0000
  Mo  Mo1       1.0  0.34300  0.34300  0.34300  1.0000
  Mo  Mo2       1.0  0.62600  0.62600  0.62600  1.0000
  Mo  Mo3       1.0  0.90400  0.90400  0.90400  1.0000
  Si  Si1       1.0  0.05790  0.05790  0.05790  1.0000
  Si  Si2       1.0  0.48300  0.48300  0.48300  1.0000
