data_image0
_chemical_formula_structural       Ge2Mo3Ru2
_chemical_formula_sum              "Ge2 Mo3 Ru2"
_cell_length_a       6.80139
_cell_length_b       6.80139
_cell_length_c       6.80139
_cell_angle_alpha    37.3519
_cell_angle_beta     37.3519
_cell_angle_gamma    37.3519

_space_group_name_H-M_alt    "P 1"
_space_group_IT_number       1

loop_
  _space_group_symop_operation_xyz
  'x, y, z'

loop_
  _atom_site_type_symbol
  _atom_site_label
  _atom_site_symmetry_multiplicity
  _atom_site_fract_x
  _atom_site_fract_y
  _atom_site_fract_z
  _atom_site_occupancy
  Ge  Ge1       1.0  0.19600  0.19600  0.19600  1.0000
  Ge  Ge2       1.0  0.76800  0.76800  0.76800  1.0000
  Mo  Mo1       1.0  0.33900  0.33900  0.33900  1.0000
  Mo  Mo2       1.0  0.62600  0.62600  0.62600  1.0000
  Mo  Mo3       1.0  0.91100  0.91100  0.91100  1.0000
  Ru  Ru1       1.0  0.05370  0.05370  0.05370  1.0000
  Ru  Ru2       1.0  0.48100  0.48100  0.48100  1.0000
