data_image0
_chemical_formula_structural       Mo3Os2Si2
_chemical_formula_sum              "Mo3 Os2 Si2"
_cell_length_a       7.27716
_cell_length_b       7.27716
_cell_length_c       7.27716
_cell_angle_alpha    34.3117
_cell_angle_beta     34.3117
_cell_angle_gamma    34.3117

_space_group_name_H-M_alt    "P 1"
_space_group_IT_number       1

loop_
  _space_group_symop_operation_xyz
  'x, y, z'

loop_
  _atom_site_type_symbol
  _atom_site_label
  _atom_site_symmetry_multiplicity
  _atom_site_fract_x
  _atom_site_fract_y
  _atom_site_fract_z
  _atom_site_occupancy
  Mo  Mo1       1.0  0.37000  0.37000  0.37000  1.0000
  Mo  Mo2       1.0  0.62300  0.62300  0.62300  1.0000
  Mo  Mo3       1.0  0.88200  0.88200  0.88200  1.0000
  Os  Os1       1.0  0.02050  0.02050  0.02050  1.0000
  Os  Os2       1.0  0.49000  0.49000  0.49000  1.0000
  Si  Si1       1.0  0.23300  0.23300  0.23300  1.0000
  Si  Si2       1.0  0.75700  0.75700  0.75700  1.0000
