data_image0
_chemical_formula_structural       Fe2Si2W3
_chemical_formula_sum              "Fe2 Si2 W3"
_cell_length_a       6.50737
_cell_length_b       6.50737
_cell_length_c       6.50737
_cell_angle_alpha    38.0313
_cell_angle_beta     38.0313
_cell_angle_gamma    38.0313

_space_group_name_H-M_alt    "P 1"
_space_group_IT_number       1

loop_
  _space_group_symop_operation_xyz
  'x, y, z'

loop_
  _atom_site_type_symbol
  _atom_site_label
  _atom_site_symmetry_multiplicity
  _atom_site_fract_x
  _atom_site_fract_y
  _atom_site_fract_z
  _atom_site_occupancy
  Fe  Fe1       1.0  0.19300  0.19300  0.19300  1.0000
  Fe  Fe2       1.0  0.76900  0.76900  0.76900  1.0000
  Si  Si1       1.0  0.05810  0.05810  0.05810  1.0000
  Si  Si2       1.0  0.48400  0.48400  0.48400  1.0000
  W   W1        1.0  0.34300  0.34300  0.34300  1.0000
  W   W2        1.0  0.62500  0.62500  0.62500  1.0000
  W   W3        1.0  0.90300  0.90300  0.90300  1.0000
