data_image0
_chemical_formula_structural       Mo3Ru2Sn2
_chemical_formula_sum              "Mo3 Ru2 Sn2"
_cell_length_a       7.1205
_cell_length_b       7.1205
_cell_length_c       7.1205
_cell_angle_alpha    36.6271
_cell_angle_beta     36.6271
_cell_angle_gamma    36.6271

_space_group_name_H-M_alt    "P 1"
_space_group_IT_number       1

loop_
  _space_group_symop_operation_xyz
  'x, y, z'

loop_
  _atom_site_type_symbol
  _atom_site_label
  _atom_site_symmetry_multiplicity
  _atom_site_fract_x
  _atom_site_fract_y
  _atom_site_fract_z
  _atom_site_occupancy
  Mo  Mo1       1.0  0.33900  0.33900  0.33900  1.0000
  Mo  Mo2       1.0  0.62600  0.62600  0.62600  1.0000
  Mo  Mo3       1.0  0.91700  0.91700  0.91700  1.0000
  Ru  Ru1       1.0  0.04810  0.04810  0.04810  1.0000
  Ru  Ru2       1.0  0.48200  0.48200  0.48200  1.0000
  Sn  Sn1       1.0  0.19600  0.19600  0.19600  1.0000
  Sn  Sn2       1.0  0.76700  0.76700  0.76700  1.0000
