data_image0
_chemical_formula_structural       Ba2Cr3Ni2
_chemical_formula_sum              "Ba2 Cr3 Ni2"
_cell_length_a       11.3858
_cell_length_b       11.3858
_cell_length_c       11.3858
_cell_angle_alpha    21.336
_cell_angle_beta     21.336
_cell_angle_gamma    21.336

_space_group_name_H-M_alt    "P 1"
_space_group_IT_number       1

loop_
  _space_group_symop_operation_xyz
  'x, y, z'

loop_
  _atom_site_type_symbol
  _atom_site_label
  _atom_site_symmetry_multiplicity
  _atom_site_fract_x
  _atom_site_fract_y
  _atom_site_fract_z
  _atom_site_occupancy
  Ba  Ba1       1.0  0.18300  0.18300  0.18300  1.0000
  Ba  Ba2       1.0  0.73400  0.73400  0.73400  1.0000
  Cr  Cr1       1.0  0.31100  0.31100  0.31100  1.0000
  Cr  Cr2       1.0  0.64000  0.64000  0.64000  1.0000
  Cr  Cr3       1.0  0.93000  0.93000  0.93000  1.0000
  Ni  Ni1       1.0  0.00642  0.00642  0.00642  1.0000
  Ni  Ni2       1.0  0.57200  0.57200  0.57200  1.0000
