data_image0
_chemical_formula_structural       Mo3Ru2Zr2
_chemical_formula_sum              "Mo3 Ru2 Zr2"
_cell_length_a       7.63885
_cell_length_b       7.63885
_cell_length_c       7.63885
_cell_angle_alpha    34.1074
_cell_angle_beta     34.1074
_cell_angle_gamma    34.1074

_space_group_name_H-M_alt    "P 1"
_space_group_IT_number       1

loop_
  _space_group_symop_operation_xyz
  'x, y, z'

loop_
  _atom_site_type_symbol
  _atom_site_label
  _atom_site_symmetry_multiplicity
  _atom_site_fract_x
  _atom_site_fract_y
  _atom_site_fract_z
  _atom_site_occupancy
  Mo  Mo1       1.0  0.37600  0.37600  0.37600  1.0000
  Mo  Mo2       1.0  0.62900  0.62900  0.62900  1.0000
  Mo  Mo3       1.0  0.87700  0.87700  0.87700  1.0000
  Ru  Ru1       1.0  0.49400  0.49400  0.49400  1.0000
  Ru  Ru2       1.0  0.99900  0.99900  0.99900  1.0000
  Zr  Zr1       1.0  0.24300  0.24300  0.24300  1.0000
  Zr  Zr2       1.0  0.75700  0.75700  0.75700  1.0000
