data_image0
_chemical_formula_structural       Al2Co2Mo3
_chemical_formula_sum              "Al2 Co2 Mo3"
_cell_length_a       6.65949
_cell_length_b       6.65949
_cell_length_c       6.65949
_cell_angle_alpha    37.1305
_cell_angle_beta     37.1305
_cell_angle_gamma    37.1305

_space_group_name_H-M_alt    "P 1"
_space_group_IT_number       1

loop_
  _space_group_symop_operation_xyz
  'x, y, z'

loop_
  _atom_site_type_symbol
  _atom_site_label
  _atom_site_symmetry_multiplicity
  _atom_site_fract_x
  _atom_site_fract_y
  _atom_site_fract_z
  _atom_site_occupancy
  Al  Al1       1.0  0.18900  0.18900  0.18900  1.0000
  Al  Al2       1.0  0.76900  0.76900  0.76900  1.0000
  Co  Co1       1.0  0.05150  0.05150  0.05150  1.0000
  Co  Co2       1.0  0.48300  0.48300  0.48300  1.0000
  Mo  Mo1       1.0  0.34600  0.34600  0.34600  1.0000
  Mo  Mo2       1.0  0.62500  0.62500  0.62500  1.0000
  Mo  Mo3       1.0  0.91300  0.91300  0.91300  1.0000
