data_image0
_chemical_formula_structural       Fe2Mo3Sn2
_chemical_formula_sum              "Fe2 Mo3 Sn2"
_cell_length_a       7.0364
_cell_length_b       7.0364
_cell_length_c       7.0364
_cell_angle_alpha    36.4174
_cell_angle_beta     36.4174
_cell_angle_gamma    36.4174

_space_group_name_H-M_alt    "P 1"
_space_group_IT_number       1

loop_
  _space_group_symop_operation_xyz
  'x, y, z'

loop_
  _atom_site_type_symbol
  _atom_site_label
  _atom_site_symmetry_multiplicity
  _atom_site_fract_x
  _atom_site_fract_y
  _atom_site_fract_z
  _atom_site_occupancy
  Fe  Fe1       1.0  0.20600  0.20600  0.20600  1.0000
  Fe  Fe2       1.0  0.76700  0.76700  0.76700  1.0000
  Mo  Mo1       1.0  0.33200  0.33200  0.33200  1.0000
  Mo  Mo2       1.0  0.62500  0.62500  0.62500  1.0000
  Mo  Mo3       1.0  0.90600  0.90600  0.90600  1.0000
  Sn  Sn1       1.0  0.05520  0.05520  0.05520  1.0000
  Sn  Sn2       1.0  0.48400  0.48400  0.48400  1.0000
