data_image0
_chemical_formula_structural       Fe2Mo3Pb2
_chemical_formula_sum              "Fe2 Mo3 Pb2"
_cell_length_a       7.43578
_cell_length_b       7.43578
_cell_length_c       7.43578
_cell_angle_alpha    34.6248
_cell_angle_beta     34.6248
_cell_angle_gamma    34.6248

_space_group_name_H-M_alt    "P 1"
_space_group_IT_number       1

loop_
  _space_group_symop_operation_xyz
  'x, y, z'

loop_
  _atom_site_type_symbol
  _atom_site_label
  _atom_site_symmetry_multiplicity
  _atom_site_fract_x
  _atom_site_fract_y
  _atom_site_fract_z
  _atom_site_occupancy
  Fe  Fe1       1.0  0.21200  0.21200  0.21200  1.0000
  Fe  Fe2       1.0  0.76300  0.76300  0.76300  1.0000
  Mo  Mo1       1.0  0.32800  0.32800  0.32800  1.0000
  Mo  Mo2       1.0  0.62400  0.62400  0.62400  1.0000
  Mo  Mo3       1.0  0.90800  0.90800  0.90800  1.0000
  Pb  Pb1       1.0  0.05380  0.05380  0.05380  1.0000
  Pb  Pb2       1.0  0.48600  0.48600  0.48600  1.0000
