data_image0
_chemical_formula_structural       As2Cr3Re2
_chemical_formula_sum              "As2 Cr3 Re2"
_cell_length_a       7.12166
_cell_length_b       7.12166
_cell_length_c       7.12166
_cell_angle_alpha    33.4506
_cell_angle_beta     33.4506
_cell_angle_gamma    33.4506

_space_group_name_H-M_alt    "P 1"
_space_group_IT_number       1

loop_
  _space_group_symop_operation_xyz
  'x, y, z'

loop_
  _atom_site_type_symbol
  _atom_site_label
  _atom_site_symmetry_multiplicity
  _atom_site_fract_x
  _atom_site_fract_y
  _atom_site_fract_z
  _atom_site_occupancy
  As  As1       1.0  0.01060  0.01060  0.01060  1.0000
  As  As2       1.0  0.49300  0.49300  0.49300  1.0000
  Cr  Cr1       1.0  0.37300  0.37300  0.37300  1.0000
  Cr  Cr2       1.0  0.62500  0.62500  0.62500  1.0000
  Cr  Cr3       1.0  0.87600  0.87600  0.87600  1.0000
  Re  Re1       1.0  0.24100  0.24100  0.24100  1.0000
  Re  Re2       1.0  0.75600  0.75600  0.75600  1.0000
