data_image0
_chemical_formula_structural       Co2Mo3Tl2
_chemical_formula_sum              "Co2 Mo3 Tl2"
_cell_length_a       7.25533
_cell_length_b       7.25533
_cell_length_c       7.25533
_cell_angle_alpha    35.2214
_cell_angle_beta     35.2214
_cell_angle_gamma    35.2214

_space_group_name_H-M_alt    "P 1"
_space_group_IT_number       1

loop_
  _space_group_symop_operation_xyz
  'x, y, z'

loop_
  _atom_site_type_symbol
  _atom_site_label
  _atom_site_symmetry_multiplicity
  _atom_site_fract_x
  _atom_site_fract_y
  _atom_site_fract_z
  _atom_site_occupancy
  Co  Co1       1.0  0.03940  0.03940  0.03940  1.0000
  Co  Co2       1.0  0.48900  0.48900  0.48900  1.0000
  Mo  Mo1       1.0  0.34200  0.34200  0.34200  1.0000
  Mo  Mo2       1.0  0.62600  0.62600  0.62600  1.0000
  Mo  Mo3       1.0  0.92100  0.92100  0.92100  1.0000
  Tl  Tl1       1.0  0.19100  0.19100  0.19100  1.0000
  Tl  Tl2       1.0  0.76600  0.76600  0.76600  1.0000
