data_image0
_chemical_formula_structural       Co2In2Mo3
_chemical_formula_sum              "Co2 In2 Mo3"
_cell_length_a       7.00877
_cell_length_b       7.00877
_cell_length_c       7.00877
_cell_angle_alpha    36.2759
_cell_angle_beta     36.2759
_cell_angle_gamma    36.2759

_space_group_name_H-M_alt    "P 1"
_space_group_IT_number       1

loop_
  _space_group_symop_operation_xyz
  'x, y, z'

loop_
  _atom_site_type_symbol
  _atom_site_label
  _atom_site_symmetry_multiplicity
  _atom_site_fract_x
  _atom_site_fract_y
  _atom_site_fract_z
  _atom_site_occupancy
  Co  Co1       1.0  0.04590  0.04590  0.04590  1.0000
  Co  Co2       1.0  0.48400  0.48400  0.48400  1.0000
  In  In1       1.0  0.19100  0.19100  0.19100  1.0000
  In  In2       1.0  0.76800  0.76800  0.76800  1.0000
  Mo  Mo1       1.0  0.34300  0.34300  0.34300  1.0000
  Mo  Mo2       1.0  0.62400  0.62400  0.62400  1.0000
  Mo  Mo3       1.0  0.91900  0.91900  0.91900  1.0000
