data_image0
_chemical_formula_structural       Fe2Ge2W3
_chemical_formula_sum              "Fe2 Ge2 W3"
_cell_length_a       6.6472
_cell_length_b       6.6472
_cell_length_c       6.6472
_cell_angle_alpha    37.7933
_cell_angle_beta     37.7933
_cell_angle_gamma    37.7933

_space_group_name_H-M_alt    "P 1"
_space_group_IT_number       1

loop_
  _space_group_symop_operation_xyz
  'x, y, z'

loop_
  _atom_site_type_symbol
  _atom_site_label
  _atom_site_symmetry_multiplicity
  _atom_site_fract_x
  _atom_site_fract_y
  _atom_site_fract_z
  _atom_site_occupancy
  Fe  Fe1       1.0  0.19700  0.19700  0.19700  1.0000
  Fe  Fe2       1.0  0.76800  0.76800  0.76800  1.0000
  Ge  Ge1       1.0  0.05750  0.05750  0.05750  1.0000
  Ge  Ge2       1.0  0.48400  0.48400  0.48400  1.0000
  W   W1        1.0  0.34000  0.34000  0.34000  1.0000
  W   W2        1.0  0.62500  0.62500  0.62500  1.0000
  W   W3        1.0  0.90300  0.90300  0.90300  1.0000
