data_image0
_chemical_formula_structural       Ge2Os2W3
_chemical_formula_sum              "Ge2 Os2 W3"
_cell_length_a       7.37102
_cell_length_b       7.37102
_cell_length_c       7.37102
_cell_angle_alpha    34.4413
_cell_angle_beta     34.4413
_cell_angle_gamma    34.4413

_space_group_name_H-M_alt    "P 1"
_space_group_IT_number       1

loop_
  _space_group_symop_operation_xyz
  'x, y, z'

loop_
  _atom_site_type_symbol
  _atom_site_label
  _atom_site_symmetry_multiplicity
  _atom_site_fract_x
  _atom_site_fract_y
  _atom_site_fract_z
  _atom_site_occupancy
  Ge  Ge1       1.0  0.23400  0.23400  0.23400  1.0000
  Ge  Ge2       1.0  0.75900  0.75900  0.75900  1.0000
  Os  Os1       1.0  0.02090  0.02090  0.02090  1.0000
  Os  Os2       1.0  0.48800  0.48800  0.48800  1.0000
  W   W1        1.0  0.36800  0.36800  0.36800  1.0000
  W   W2        1.0  0.62100  0.62100  0.62100  1.0000
  W   W3        1.0  0.88500  0.88500  0.88500  1.0000
