data_image0
_chemical_formula_structural       As2Cr3Mn2
_chemical_formula_sum              "As2 Cr3 Mn2"
_cell_length_a       6.8081
_cell_length_b       6.8081
_cell_length_c       6.8081
_cell_angle_alpha    34.1577
_cell_angle_beta     34.1577
_cell_angle_gamma    34.1577

_space_group_name_H-M_alt    "P 1"
_space_group_IT_number       1

loop_
  _space_group_symop_operation_xyz
  'x, y, z'

loop_
  _atom_site_type_symbol
  _atom_site_label
  _atom_site_symmetry_multiplicity
  _atom_site_fract_x
  _atom_site_fract_y
  _atom_site_fract_z
  _atom_site_occupancy
  As  As1       1.0  0.01170  0.01170  0.01170  1.0000
  As  As2       1.0  0.49400  0.49400  0.49400  1.0000
  Cr  Cr1       1.0  0.37000  0.37000  0.37000  1.0000
  Cr  Cr2       1.0  0.62500  0.62500  0.62500  1.0000
  Cr  Cr3       1.0  0.88000  0.88000  0.88000  1.0000
  Mn  Mn1       1.0  0.23400  0.23400  0.23400  1.0000
  Mn  Mn2       1.0  0.76000  0.76000  0.76000  1.0000
