data_image0
_chemical_formula_structural       Pb2Ru2W3
_chemical_formula_sum              "Pb2 Ru2 W3"
_cell_length_a       7.50374
_cell_length_b       7.50374
_cell_length_c       7.50374
_cell_angle_alpha    34.9938
_cell_angle_beta     34.9938
_cell_angle_gamma    34.9938

_space_group_name_H-M_alt    "P 1"
_space_group_IT_number       1

loop_
  _space_group_symop_operation_xyz
  'x, y, z'

loop_
  _atom_site_type_symbol
  _atom_site_label
  _atom_site_symmetry_multiplicity
  _atom_site_fract_x
  _atom_site_fract_y
  _atom_site_fract_z
  _atom_site_occupancy
  Pb  Pb1       1.0  0.05440  0.05440  0.05440  1.0000
  Pb  Pb2       1.0  0.48500  0.48500  0.48500  1.0000
  Ru  Ru1       1.0  0.21000  0.21000  0.21000  1.0000
  Ru  Ru2       1.0  0.76200  0.76200  0.76200  1.0000
  W   W1        1.0  0.32900  0.32900  0.32900  1.0000
  W   W2        1.0  0.62300  0.62300  0.62300  1.0000
  W   W3        1.0  0.91200  0.91200  0.91200  1.0000
