data_image0
_chemical_formula_structural       Os2Sn2W3
_chemical_formula_sum              "Os2 Sn2 W3"
_cell_length_a       7.14698
_cell_length_b       7.14698
_cell_length_c       7.14698
_cell_angle_alpha    36.7834
_cell_angle_beta     36.7834
_cell_angle_gamma    36.7834

_space_group_name_H-M_alt    "P 1"
_space_group_IT_number       1

loop_
  _space_group_symop_operation_xyz
  'x, y, z'

loop_
  _atom_site_type_symbol
  _atom_site_label
  _atom_site_symmetry_multiplicity
  _atom_site_fract_x
  _atom_site_fract_y
  _atom_site_fract_z
  _atom_site_occupancy
  Os  Os1       1.0  0.04660  0.04660  0.04660  1.0000
  Os  Os2       1.0  0.48300  0.48300  0.48300  1.0000
  Sn  Sn1       1.0  0.19600  0.19600  0.19600  1.0000
  Sn  Sn2       1.0  0.76800  0.76800  0.76800  1.0000
  W   W1        1.0  0.33800  0.33800  0.33800  1.0000
  W   W2        1.0  0.62700  0.62700  0.62700  1.0000
  W   W3        1.0  0.91700  0.91700  0.91700  1.0000
