data_image0
_chemical_formula_structural       Mo3Os2Pb2
_chemical_formula_sum              "Mo3 Os2 Pb2"
_cell_length_a       7.39267
_cell_length_b       7.39267
_cell_length_c       7.39267
_cell_angle_alpha    35.7295
_cell_angle_beta     35.7295
_cell_angle_gamma    35.7295

_space_group_name_H-M_alt    "P 1"
_space_group_IT_number       1

loop_
  _space_group_symop_operation_xyz
  'x, y, z'

loop_
  _atom_site_type_symbol
  _atom_site_label
  _atom_site_symmetry_multiplicity
  _atom_site_fract_x
  _atom_site_fract_y
  _atom_site_fract_z
  _atom_site_occupancy
  Mo  Mo1       1.0  0.33100  0.33100  0.33100  1.0000
  Mo  Mo2       1.0  0.62300  0.62300  0.62300  1.0000
  Mo  Mo3       1.0  0.91100  0.91100  0.91100  1.0000
  Os  Os1       1.0  0.21000  0.21000  0.21000  1.0000
  Os  Os2       1.0  0.76400  0.76400  0.76400  1.0000
  Pb  Pb1       1.0  0.05220  0.05220  0.05220  1.0000
  Pb  Pb2       1.0  0.48400  0.48400  0.48400  1.0000
