data_image0
_chemical_formula_structural       Fe2Pb2W3
_chemical_formula_sum              "Fe2 Pb2 W3"
_cell_length_a       7.54206
_cell_length_b       7.54206
_cell_length_c       7.54206
_cell_angle_alpha    33.875
_cell_angle_beta     33.875
_cell_angle_gamma    33.875

_space_group_name_H-M_alt    "P 1"
_space_group_IT_number       1

loop_
  _space_group_symop_operation_xyz
  'x, y, z'

loop_
  _atom_site_type_symbol
  _atom_site_label
  _atom_site_symmetry_multiplicity
  _atom_site_fract_x
  _atom_site_fract_y
  _atom_site_fract_z
  _atom_site_occupancy
  Fe  Fe1       1.0  0.21600  0.21600  0.21600  1.0000
  Fe  Fe2       1.0  0.75500  0.75500  0.75500  1.0000
  Pb  Pb1       1.0  0.05650  0.05650  0.05650  1.0000
  Pb  Pb2       1.0  0.48700  0.48700  0.48700  1.0000
  W   W1        1.0  0.32800  0.32800  0.32800  1.0000
  W   W2        1.0  0.62400  0.62400  0.62400  1.0000
  W   W3        1.0  0.90900  0.90900  0.90900  1.0000
