data_image0
_chemical_formula_structural       Os2Pb2W3
_chemical_formula_sum              "Os2 Pb2 W3"
_cell_length_a       7.55359
_cell_length_b       7.55359
_cell_length_c       7.55359
_cell_angle_alpha    34.8703
_cell_angle_beta     34.8703
_cell_angle_gamma    34.8703

_space_group_name_H-M_alt    "P 1"
_space_group_IT_number       1

loop_
  _space_group_symop_operation_xyz
  'x, y, z'

loop_
  _atom_site_type_symbol
  _atom_site_label
  _atom_site_symmetry_multiplicity
  _atom_site_fract_x
  _atom_site_fract_y
  _atom_site_fract_z
  _atom_site_occupancy
  Os  Os1       1.0  0.21300  0.21300  0.21300  1.0000
  Os  Os2       1.0  0.75900  0.75900  0.75900  1.0000
  Pb  Pb1       1.0  0.05340  0.05340  0.05340  1.0000
  Pb  Pb2       1.0  0.48400  0.48400  0.48400  1.0000
  W   W1        1.0  0.33100  0.33100  0.33100  1.0000
  W   W2        1.0  0.62400  0.62400  0.62400  1.0000
  W   W3        1.0  0.91200  0.91200  0.91200  1.0000
