data_image0
_chemical_formula_structural       Cl2H2Sc2
_chemical_formula_sum              "Cl2 H2 Sc2"
_cell_length_a       3.47806
_cell_length_b       3.47806
_cell_length_c       9.07651
_cell_angle_alpha    78.954
_cell_angle_beta     101.046
_cell_angle_gamma    120

_space_group_name_H-M_alt    "P 1"
_space_group_IT_number       1

loop_
  _space_group_symop_operation_xyz
  'x, y, z'

loop_
  _atom_site_type_symbol
  _atom_site_label
  _atom_site_symmetry_multiplicity
  _atom_site_fract_x
  _atom_site_fract_y
  _atom_site_fract_z
  _atom_site_occupancy
  Cl  Cl1       1.0  0.39200  0.60800  0.17500  1.0000
  Cl  Cl2       1.0  0.60800  0.39200  0.82500  1.0000
  H   H1        1.0  0.80500  0.19500  0.41600  1.0000
  H   H2        1.0  0.19500  0.80500  0.58400  1.0000
  Sc  Sc1       1.0  0.11900  0.88100  0.35700  1.0000
  Sc  Sc2       1.0  0.88100  0.11900  0.64300  1.0000
