data_image0
_chemical_formula_structural       F2O2Pr2
_chemical_formula_sum              "F2 O2 Pr2"
_cell_length_a       3.96904
_cell_length_b       3.96904
_cell_length_c       6.97929
_cell_angle_alpha    73.4804
_cell_angle_beta     106.52
_cell_angle_gamma    120

_space_group_name_H-M_alt    "P 1"
_space_group_IT_number       1

loop_
  _space_group_symop_operation_xyz
  'x, y, z'

loop_
  _atom_site_type_symbol
  _atom_site_label
  _atom_site_symmetry_multiplicity
  _atom_site_fract_x
  _atom_site_fract_y
  _atom_site_fract_z
  _atom_site_occupancy
  F   F1        1.0  0.37000  0.63000  0.11100  1.0000
  F   F2        1.0  0.63000  0.37000  0.88900  1.0000
  O   O1        1.0  0.12200  0.87800  0.36700  1.0000
  O   O2        1.0  0.87800  0.12200  0.63300  1.0000
  Pr  Pr1       1.0  0.75800  0.24200  0.27500  1.0000
  Pr  Pr2       1.0  0.24200  0.75800  0.72500  1.0000
