data_image0
_chemical_formula_structural       Fe2Hf2Mo3
_chemical_formula_sum              "Fe2 Hf2 Mo3"
_cell_length_a       7.41667
_cell_length_b       7.41667
_cell_length_c       7.41667
_cell_angle_alpha    34.4125
_cell_angle_beta     34.4125
_cell_angle_gamma    34.4125

_space_group_name_H-M_alt    "P 1"
_space_group_IT_number       1

loop_
  _space_group_symop_operation_xyz
  'x, y, z'

loop_
  _atom_site_type_symbol
  _atom_site_label
  _atom_site_symmetry_multiplicity
  _atom_site_fract_x
  _atom_site_fract_y
  _atom_site_fract_z
  _atom_site_occupancy
  Fe  Fe1       1.0  0.49300  0.49300  0.49300  1.0000
  Fe  Fe2       1.0  0.99800  0.99800  0.99800  1.0000
  Hf  Hf1       1.0  0.24100  0.24100  0.24100  1.0000
  Hf  Hf2       1.0  0.75900  0.75900  0.75900  1.0000
  Mo  Mo1       1.0  0.37600  0.37600  0.37600  1.0000
  Mo  Mo2       1.0  0.63000  0.63000  0.63000  1.0000
  Mo  Mo3       1.0  0.87900  0.87900  0.87900  1.0000
