data_image0
_chemical_formula_structural       B2Co2W3
_chemical_formula_sum              "B2 Co2 W3"
_cell_length_a       7.45278
_cell_length_b       7.45278
_cell_length_c       7.45278
_cell_angle_alpha    28.8701
_cell_angle_beta     28.8701
_cell_angle_gamma    28.8701

_space_group_name_H-M_alt    "P 1"
_space_group_IT_number       1

loop_
  _space_group_symop_operation_xyz
  'x, y, z'

loop_
  _atom_site_type_symbol
  _atom_site_label
  _atom_site_symmetry_multiplicity
  _atom_site_fract_x
  _atom_site_fract_y
  _atom_site_fract_z
  _atom_site_occupancy
  B   B1        1.0  0.00087  0.00087  0.00087  1.0000
  B   B2        1.0  0.51500  0.51500  0.51500  1.0000
  Co  Co1       1.0  0.16300  0.16300  0.16300  1.0000
  Co  Co2       1.0  0.77100  0.77100  0.77100  1.0000
  W   W1        1.0  0.39400  0.39400  0.39400  1.0000
  W   W2        1.0  0.63900  0.63900  0.63900  1.0000
  W   W3        1.0  0.89100  0.89100  0.89100  1.0000
