data_image0
_chemical_formula_structural       Co2W3Y2
_chemical_formula_sum              "Co2 W3 Y2"
_cell_length_a       7.76922
_cell_length_b       7.76922
_cell_length_c       7.76922
_cell_angle_alpha    33.1296
_cell_angle_beta     33.1296
_cell_angle_gamma    33.1296

_space_group_name_H-M_alt    "P 1"
_space_group_IT_number       1

loop_
  _space_group_symop_operation_xyz
  'x, y, z'

loop_
  _atom_site_type_symbol
  _atom_site_label
  _atom_site_symmetry_multiplicity
  _atom_site_fract_x
  _atom_site_fract_y
  _atom_site_fract_z
  _atom_site_occupancy
  Co  Co1       1.0  0.03060  0.03060  0.03060  1.0000
  Co  Co2       1.0  0.50300  0.50300  0.50300  1.0000
  W   W1        1.0  0.33800  0.33800  0.33800  1.0000
  W   W2        1.0  0.62500  0.62500  0.62500  1.0000
  W   W3        1.0  0.92200  0.92200  0.92200  1.0000
  Y   Y1        1.0  0.19200  0.19200  0.19200  1.0000
  Y   Y2        1.0  0.76500  0.76500  0.76500  1.0000
