data_image0
_chemical_formula_structural       As2Re2W3
_chemical_formula_sum              "As2 Re2 W3"
_cell_length_a       7.28121
_cell_length_b       7.28121
_cell_length_c       7.28121
_cell_angle_alpha    35.3691
_cell_angle_beta     35.3691
_cell_angle_gamma    35.3691

_space_group_name_H-M_alt    "P 1"
_space_group_IT_number       1

loop_
  _space_group_symop_operation_xyz
  'x, y, z'

loop_
  _atom_site_type_symbol
  _atom_site_label
  _atom_site_symmetry_multiplicity
  _atom_site_fract_x
  _atom_site_fract_y
  _atom_site_fract_z
  _atom_site_occupancy
  As  As1       1.0  0.02960  0.02960  0.02960  1.0000
  As  As2       1.0  0.49000  0.49000  0.49000  1.0000
  Re  Re1       1.0  0.23500  0.23500  0.23500  1.0000
  Re  Re2       1.0  0.75600  0.75600  0.75600  1.0000
  W   W1        1.0  0.36500  0.36500  0.36500  1.0000
  W   W2        1.0  0.61900  0.61900  0.61900  1.0000
  W   W3        1.0  0.88100  0.88100  0.88100  1.0000
