data_image0
_chemical_formula_structural       Mo3Pb2Ru2
_chemical_formula_sum              "Mo3 Pb2 Ru2"
_cell_length_a       7.4638
_cell_length_b       7.4638
_cell_length_c       7.4638
_cell_angle_alpha    35.061
_cell_angle_beta     35.061
_cell_angle_gamma    35.061

_space_group_name_H-M_alt    "P 1"
_space_group_IT_number       1

loop_
  _space_group_symop_operation_xyz
  'x, y, z'

loop_
  _atom_site_type_symbol
  _atom_site_label
  _atom_site_symmetry_multiplicity
  _atom_site_fract_x
  _atom_site_fract_y
  _atom_site_fract_z
  _atom_site_occupancy
  Mo  Mo1       1.0  0.33000  0.33000  0.33000  1.0000
  Mo  Mo2       1.0  0.62300  0.62300  0.62300  1.0000
  Mo  Mo3       1.0  0.91200  0.91200  0.91200  1.0000
  Pb  Pb1       1.0  0.05210  0.05210  0.05210  1.0000
  Pb  Pb2       1.0  0.48500  0.48500  0.48500  1.0000
  Ru  Ru1       1.0  0.21000  0.21000  0.21000  1.0000
  Ru  Ru2       1.0  0.76300  0.76300  0.76300  1.0000
