data_image0
_chemical_formula_structural       Cl4Pd2
_chemical_formula_sum              "Cl4 Pd2"
_cell_length_a       5.64802
_cell_length_b       4.07024
_cell_length_c       6.47895
_cell_angle_alpha    90
_cell_angle_beta     107.317
_cell_angle_gamma    90

_space_group_name_H-M_alt    "P 1"
_space_group_IT_number       1

loop_
  _space_group_symop_operation_xyz
  'x, y, z'

loop_
  _atom_site_type_symbol
  _atom_site_label
  _atom_site_symmetry_multiplicity
  _atom_site_fract_x
  _atom_site_fract_y
  _atom_site_fract_z
  _atom_site_occupancy
  Cl  Cl1       1.0  0.75300  0.74400  0.18800  1.0000
  Cl  Cl2       1.0  0.24700  0.24400  0.31200  1.0000
  Cl  Cl3       1.0  0.75300  0.75600  0.68800  1.0000
  Cl  Cl4       1.0  0.24700  0.25600  0.81200  1.0000
  Pd  Pd1       1.0  0.00000  0.50000  0.00000  1.0000
  Pd  Pd2       1.0  0.00000  0.00000  0.50000  1.0000
