data_image0
_chemical_formula_structural       Fe5Li2
_chemical_formula_sum              "Fe5 Li2"
_cell_length_a       6.11177
_cell_length_b       6.11177
_cell_length_c       6.11177
_cell_angle_alpha    37.6868
_cell_angle_beta     37.6868
_cell_angle_gamma    37.6868

_space_group_name_H-M_alt    "P 1"
_space_group_IT_number       1

loop_
  _space_group_symop_operation_xyz
  'x, y, z'

loop_
  _atom_site_type_symbol
  _atom_site_label
  _atom_site_symmetry_multiplicity
  _atom_site_fract_x
  _atom_site_fract_y
  _atom_site_fract_z
  _atom_site_occupancy
  Fe  Fe1       1.0  0.04830  0.04830  0.04830  1.0000
  Fe  Fe2       1.0  0.34200  0.34200  0.34200  1.0000
  Fe  Fe3       1.0  0.48200  0.48200  0.48200  1.0000
  Fe  Fe4       1.0  0.62200  0.62200  0.62200  1.0000
  Fe  Fe5       1.0  0.91600  0.91600  0.91600  1.0000
  Li  Li1       1.0  0.19900  0.19900  0.19900  1.0000
  Li  Li2       1.0  0.76500  0.76500  0.76500  1.0000
