data_image0
_chemical_formula_structural       Mn2Nb2W3
_chemical_formula_sum              "Mn2 Nb2 W3"
_cell_length_a       7.39299
_cell_length_b       7.39299
_cell_length_c       7.39299
_cell_angle_alpha    34.3983
_cell_angle_beta     34.3983
_cell_angle_gamma    34.3983

_space_group_name_H-M_alt    "P 1"
_space_group_IT_number       1

loop_
  _space_group_symop_operation_xyz
  'x, y, z'

loop_
  _atom_site_type_symbol
  _atom_site_label
  _atom_site_symmetry_multiplicity
  _atom_site_fract_x
  _atom_site_fract_y
  _atom_site_fract_z
  _atom_site_occupancy
  Mn  Mn1       1.0  0.25100  0.25100  0.25100  1.0000
  Mn  Mn2       1.0  0.75600  0.75600  0.75600  1.0000
  Nb  Nb1       1.0  0.00579  0.00579  0.00579  1.0000
  Nb  Nb2       1.0  0.49300  0.49300  0.49300  1.0000
  W   W1        1.0  0.37200  0.37200  0.37200  1.0000
  W   W2        1.0  0.62200  0.62200  0.62200  1.0000
  W   W3        1.0  0.87400  0.87400  0.87400  1.0000
