data_image0
_chemical_formula_structural       Cr3Re2Sb2
_chemical_formula_sum              "Cr3 Re2 Sb2"
_cell_length_a       7.38161
_cell_length_b       7.38161
_cell_length_c       7.38161
_cell_angle_alpha    33.5581
_cell_angle_beta     33.5581
_cell_angle_gamma    33.5581

_space_group_name_H-M_alt    "P 1"
_space_group_IT_number       1

loop_
  _space_group_symop_operation_xyz
  'x, y, z'

loop_
  _atom_site_type_symbol
  _atom_site_label
  _atom_site_symmetry_multiplicity
  _atom_site_fract_x
  _atom_site_fract_y
  _atom_site_fract_z
  _atom_site_occupancy
  Cr  Cr1       1.0  0.37200  0.37200  0.37200  1.0000
  Cr  Cr2       1.0  0.62200  0.62200  0.62200  1.0000
  Cr  Cr3       1.0  0.87600  0.87600  0.87600  1.0000
  Re  Re1       1.0  0.24700  0.24700  0.24700  1.0000
  Re  Re2       1.0  0.75500  0.75500  0.75500  1.0000
  Sb  Sb1       1.0  0.00938  0.00938  0.00938  1.0000
  Sb  Sb2       1.0  0.49400  0.49400  0.49400  1.0000
