data_image0
_chemical_formula_structural       Ge2Sm2Ti2
_chemical_formula_sum              "Ge2 Sm2 Ti2"
_cell_length_a       4.09737
_cell_length_b       4.09737
_cell_length_c       8.41128
_cell_angle_alpha    104.097
_cell_angle_beta     104.097
_cell_angle_gamma    90

_space_group_name_H-M_alt    "P 1"
_space_group_IT_number       1

loop_
  _space_group_symop_operation_xyz
  'x, y, z'

loop_
  _atom_site_type_symbol
  _atom_site_label
  _atom_site_symmetry_multiplicity
  _atom_site_fract_x
  _atom_site_fract_y
  _atom_site_fract_z
  _atom_site_occupancy
  Ge  Ge1       1.0  0.11900  0.11900  0.23700  1.0000
  Ge  Ge2       1.0  0.88100  0.88100  0.76300  1.0000
  Sm  Sm1       1.0  0.67300  0.67300  0.34700  1.0000
  Sm  Sm2       1.0  0.32700  0.32700  0.65300  1.0000
  Ti  Ti1       1.0  0.50000  0.00000  0.00000  1.0000
  Ti  Ti2       1.0  0.00000  0.50000  0.00000  1.0000
