data_image0
_chemical_formula_structural       Br12In4Mg4
_chemical_formula_sum              "Br12 In4 Mg4"
_cell_length_a       9.48487
_cell_length_b       3.98041
_cell_length_c       15.4541
_cell_angle_alpha    90
_cell_angle_beta     90
_cell_angle_gamma    90

_space_group_name_H-M_alt    "P 1"
_space_group_IT_number       1

loop_
  _space_group_symop_operation_xyz
  'x, y, z'

loop_
  _atom_site_type_symbol
  _atom_site_label
  _atom_site_symmetry_multiplicity
  _atom_site_fract_x
  _atom_site_fract_y
  _atom_site_fract_z
  _atom_site_occupancy
  Br  Br1       1.0  0.17300  0.25000  0.00243  1.0000
  Br  Br2       1.0  0.47700  0.75000  0.10100  1.0000
  Br  Br3       1.0  0.77600  0.25000  0.20900  1.0000
  Br  Br4       1.0  0.27600  0.25000  0.29100  1.0000
  Br  Br5       1.0  0.97700  0.75000  0.39900  1.0000
  Br  Br6       1.0  0.67300  0.25000  0.49800  1.0000
  Br  Br7       1.0  0.32700  0.75000  0.50200  1.0000
  Br  Br8       1.0  0.02270  0.25000  0.60100  1.0000
  Br  Br9       1.0  0.72400  0.75000  0.70900  1.0000
  Br  Br10      1.0  0.22400  0.75000  0.79100  1.0000
  Br  Br11      1.0  0.52300  0.25000  0.89900  1.0000
  Br  Br12      1.0  0.82700  0.75000  0.99800  1.0000
  In  In1       1.0  0.04880  0.75000  0.17700  1.0000
  In  In2       1.0  0.54900  0.75000  0.32300  1.0000
  In  In3       1.0  0.45100  0.25000  0.67700  1.0000
  In  In4       1.0  0.95100  0.25000  0.82300  1.0000
  Mg  Mg1       1.0  0.66200  0.25000  0.05490  1.0000
  Mg  Mg2       1.0  0.16200  0.25000  0.44500  1.0000
  Mg  Mg3       1.0  0.83800  0.75000  0.55500  1.0000
  Mg  Mg4       1.0  0.33800  0.75000  0.94500  1.0000
