data_image0
_chemical_formula_structural       Nd2Pt2Sb2
_chemical_formula_sum              "Nd2 Pt2 Sb2"
_cell_length_a       4.57958
_cell_length_b       4.57962
_cell_length_c       8.01098
_cell_angle_alpha    90
_cell_angle_beta     90
_cell_angle_gamma    120

_space_group_name_H-M_alt    "P 1"
_space_group_IT_number       1

loop_
  _space_group_symop_operation_xyz
  'x, y, z'

loop_
  _atom_site_type_symbol
  _atom_site_label
  _atom_site_symmetry_multiplicity
  _atom_site_fract_x
  _atom_site_fract_y
  _atom_site_fract_z
  _atom_site_occupancy
  Nd  Nd1       1.0  0.00000  0.00001  0.99800  1.0000
  Nd  Nd2       1.0  0.00000  0.00000  0.49800  1.0000
  Pt  Pt1       1.0  0.33300  0.66700  0.29100  1.0000
  Pt  Pt2       1.0  0.66700  0.33300  0.79100  1.0000
  Sb  Sb1       1.0  0.66700  0.33300  0.23500  1.0000
  Sb  Sb2       1.0  0.33300  0.66700  0.73500  1.0000
