data_image0
_chemical_formula_structural       Bi2Mn2Mo3
_chemical_formula_sum              "Bi2 Mn2 Mo3"
_cell_length_a       7.33934
_cell_length_b       7.33934
_cell_length_c       7.33934
_cell_angle_alpha    36.3342
_cell_angle_beta     36.3342
_cell_angle_gamma    36.3342

_space_group_name_H-M_alt    "P 1"
_space_group_IT_number       1

loop_
  _space_group_symop_operation_xyz
  'x, y, z'

loop_
  _atom_site_type_symbol
  _atom_site_label
  _atom_site_symmetry_multiplicity
  _atom_site_fract_x
  _atom_site_fract_y
  _atom_site_fract_z
  _atom_site_occupancy
  Bi  Bi1       1.0  0.04780  0.04780  0.04780  1.0000
  Bi  Bi2       1.0  0.48700  0.48700  0.48700  1.0000
  Mn  Mn1       1.0  0.22100  0.22100  0.22100  1.0000
  Mn  Mn2       1.0  0.77900  0.77900  0.77900  1.0000
  Mo  Mo1       1.0  0.32400  0.32400  0.32400  1.0000
  Mo  Mo2       1.0  0.62700  0.62700  0.62700  1.0000
  Mo  Mo3       1.0  0.89000  0.89000  0.89000  1.0000
