data_image0
_chemical_formula_structural       Mn2Mo3Nb2
_chemical_formula_sum              "Mn2 Mo3 Nb2"
_cell_length_a       7.36579
_cell_length_b       7.36579
_cell_length_c       7.36579
_cell_angle_alpha    34.2746
_cell_angle_beta     34.2746
_cell_angle_gamma    34.2746

_space_group_name_H-M_alt    "P 1"
_space_group_IT_number       1

loop_
  _space_group_symop_operation_xyz
  'x, y, z'

loop_
  _atom_site_type_symbol
  _atom_site_label
  _atom_site_symmetry_multiplicity
  _atom_site_fract_x
  _atom_site_fract_y
  _atom_site_fract_z
  _atom_site_occupancy
  Mn  Mn1       1.0  0.25100  0.25100  0.25100  1.0000
  Mn  Mn2       1.0  0.75600  0.75600  0.75600  1.0000
  Mo  Mo1       1.0  0.37300  0.37300  0.37300  1.0000
  Mo  Mo2       1.0  0.62200  0.62200  0.62200  1.0000
  Mo  Mo3       1.0  0.87300  0.87300  0.87300  1.0000
  Nb  Nb1       1.0  0.00600  0.00600  0.00600  1.0000
  Nb  Nb2       1.0  0.49400  0.49400  0.49400  1.0000
