data_image0
_chemical_formula_structural       Cr3Mn2Sb2
_chemical_formula_sum              "Cr3 Mn2 Sb2"
_cell_length_a       7.4338
_cell_length_b       7.4338
_cell_length_c       7.4338
_cell_angle_alpha    34.138
_cell_angle_beta     34.138
_cell_angle_gamma    34.138

_space_group_name_H-M_alt    "P 1"
_space_group_IT_number       1

loop_
  _space_group_symop_operation_xyz
  'x, y, z'

loop_
  _atom_site_type_symbol
  _atom_site_label
  _atom_site_symmetry_multiplicity
  _atom_site_fract_x
  _atom_site_fract_y
  _atom_site_fract_z
  _atom_site_occupancy
  Cr  Cr1       1.0  0.37100  0.37100  0.37100  1.0000
  Cr  Cr2       1.0  0.62600  0.62600  0.62600  1.0000
  Cr  Cr3       1.0  0.87800  0.87800  0.87800  1.0000
  Mn  Mn1       1.0  0.23900  0.23900  0.23900  1.0000
  Mn  Mn2       1.0  0.75800  0.75800  0.75800  1.0000
  Sb  Sb1       1.0  0.00705  0.00705  0.00705  1.0000
  Sb  Sb2       1.0  0.49600  0.49600  0.49600  1.0000
