data_image0
_chemical_formula_structural       Re2Sb2W3
_chemical_formula_sum              "Re2 Sb2 W3"
_cell_length_a       7.61975
_cell_length_b       7.61975
_cell_length_c       7.61975
_cell_angle_alpha    34.6442
_cell_angle_beta     34.6442
_cell_angle_gamma    34.6442

_space_group_name_H-M_alt    "P 1"
_space_group_IT_number       1

loop_
  _space_group_symop_operation_xyz
  'x, y, z'

loop_
  _atom_site_type_symbol
  _atom_site_label
  _atom_site_symmetry_multiplicity
  _atom_site_fract_x
  _atom_site_fract_y
  _atom_site_fract_z
  _atom_site_occupancy
  Re  Re1       1.0  0.23700  0.23700  0.23700  1.0000
  Re  Re2       1.0  0.75900  0.75900  0.75900  1.0000
  Sb  Sb1       1.0  0.04900  0.04900  0.04900  1.0000
  Sb  Sb2       1.0  0.48400  0.48400  0.48400  1.0000
  W   W1        1.0  0.35100  0.35100  0.35100  1.0000
  W   W2        1.0  0.61600  0.61600  0.61600  1.0000
  W   W3        1.0  0.87900  0.87900  0.87900  1.0000
