data_image0
_chemical_formula_structural       Fe3Li2Os2
_chemical_formula_sum              "Fe3 Li2 Os2"
_cell_length_a       6.75616
_cell_length_b       6.75616
_cell_length_c       6.75616
_cell_angle_alpha    33.9957
_cell_angle_beta     33.9957
_cell_angle_gamma    33.9957

_space_group_name_H-M_alt    "P 1"
_space_group_IT_number       1

loop_
  _space_group_symop_operation_xyz
  'x, y, z'

loop_
  _atom_site_type_symbol
  _atom_site_label
  _atom_site_symmetry_multiplicity
  _atom_site_fract_x
  _atom_site_fract_y
  _atom_site_fract_z
  _atom_site_occupancy
  Fe  Fe1       1.0  0.37600  0.37600  0.37600  1.0000
  Fe  Fe2       1.0  0.62700  0.62700  0.62700  1.0000
  Fe  Fe3       1.0  0.87700  0.87700  0.87700  1.0000
  Li  Li1       1.0  0.24200  0.24200  0.24200  1.0000
  Li  Li2       1.0  0.75500  0.75500  0.75500  1.0000
  Os  Os1       1.0  0.00300  0.00300  0.00300  1.0000
  Os  Os2       1.0  0.49600  0.49600  0.49600  1.0000
