data_image0
_chemical_formula_structural       Fe5Na2
_chemical_formula_sum              "Fe5 Na2"
_cell_length_a       8.07542
_cell_length_b       8.07542
_cell_length_c       8.07542
_cell_angle_alpha    29.0614
_cell_angle_beta     29.0614
_cell_angle_gamma    29.0614

_space_group_name_H-M_alt    "P 1"
_space_group_IT_number       1

loop_
  _space_group_symop_operation_xyz
  'x, y, z'

loop_
  _atom_site_type_symbol
  _atom_site_label
  _atom_site_symmetry_multiplicity
  _atom_site_fract_x
  _atom_site_fract_y
  _atom_site_fract_z
  _atom_site_occupancy
  Fe  Fe1       1.0  0.01880  0.01880  0.01880  1.0000
  Fe  Fe2       1.0  0.29000  0.29000  0.29000  1.0000
  Fe  Fe3       1.0  0.55800  0.55800  0.55800  1.0000
  Fe  Fe4       1.0  0.65400  0.65400  0.65400  1.0000
  Fe  Fe5       1.0  0.92000  0.92000  0.92000  1.0000
  Na  Na1       1.0  0.16400  0.16400  0.16400  1.0000
  Na  Na2       1.0  0.76900  0.76900  0.76900  1.0000
