data_image0
_chemical_formula_structural       Bi2Mo3Re2
_chemical_formula_sum              "Bi2 Mo3 Re2"
_cell_length_a       7.64941
_cell_length_b       7.64941
_cell_length_c       7.64941
_cell_angle_alpha    35.2881
_cell_angle_beta     35.2881
_cell_angle_gamma    35.2881

_space_group_name_H-M_alt    "P 1"
_space_group_IT_number       1

loop_
  _space_group_symop_operation_xyz
  'x, y, z'

loop_
  _atom_site_type_symbol
  _atom_site_label
  _atom_site_symmetry_multiplicity
  _atom_site_fract_x
  _atom_site_fract_y
  _atom_site_fract_z
  _atom_site_occupancy
  Bi  Bi1       1.0  0.04630  0.04630  0.04630  1.0000
  Bi  Bi2       1.0  0.48500  0.48500  0.48500  1.0000
  Mo  Mo1       1.0  0.34800  0.34800  0.34800  1.0000
  Mo  Mo2       1.0  0.61500  0.61500  0.61500  1.0000
  Mo  Mo3       1.0  0.87900  0.87900  0.87900  1.0000
  Re  Re1       1.0  0.24000  0.24000  0.24000  1.0000
  Re  Re2       1.0  0.76100  0.76100  0.76100  1.0000
