data_image0
_chemical_formula_structural       Mn2Mo3Sb2
_chemical_formula_sum              "Mn2 Mo3 Sb2"
_cell_length_a       7.19411
_cell_length_b       7.19411
_cell_length_c       7.19411
_cell_angle_alpha    36.2124
_cell_angle_beta     36.2124
_cell_angle_gamma    36.2124

_space_group_name_H-M_alt    "P 1"
_space_group_IT_number       1

loop_
  _space_group_symop_operation_xyz
  'x, y, z'

loop_
  _atom_site_type_symbol
  _atom_site_label
  _atom_site_symmetry_multiplicity
  _atom_site_fract_x
  _atom_site_fract_y
  _atom_site_fract_z
  _atom_site_occupancy
  Mn  Mn1       1.0  0.21300  0.21300  0.21300  1.0000
  Mn  Mn2       1.0  0.76200  0.76200  0.76200  1.0000
  Mo  Mo1       1.0  0.33400  0.33400  0.33400  1.0000
  Mo  Mo2       1.0  0.62600  0.62600  0.62600  1.0000
  Mo  Mo3       1.0  0.90400  0.90400  0.90400  1.0000
  Sb  Sb1       1.0  0.04770  0.04770  0.04770  1.0000
  Sb  Sb2       1.0  0.48800  0.48800  0.48800  1.0000
