data_image0
_chemical_formula_structural       Nb2Re2W3
_chemical_formula_sum              "Nb2 Re2 W3"
_cell_length_a       7.63882
_cell_length_b       7.63882
_cell_length_c       7.63882
_cell_angle_alpha    33.8148
_cell_angle_beta     33.8148
_cell_angle_gamma    33.8148

_space_group_name_H-M_alt    "P 1"
_space_group_IT_number       1

loop_
  _space_group_symop_operation_xyz
  'x, y, z'

loop_
  _atom_site_type_symbol
  _atom_site_label
  _atom_site_symmetry_multiplicity
  _atom_site_fract_x
  _atom_site_fract_y
  _atom_site_fract_z
  _atom_site_occupancy
  Nb  Nb1       1.0  0.24600  0.24600  0.24600  1.0000
  Nb  Nb2       1.0  0.75600  0.75600  0.75600  1.0000
  Re  Re1       1.0  0.49600  0.49600  0.49600  1.0000
  Re  Re2       1.0  0.00000  0.00000  0.00000  1.0000
  W   W1        1.0  0.37600  0.37600  0.37600  1.0000
  W   W2        1.0  0.62600  0.62600  0.62600  1.0000
  W   W3        1.0  0.87600  0.87600  0.87600  1.0000
