data_image0
_chemical_formula_structural       Fe3Na2Os2
_chemical_formula_sum              "Fe3 Na2 Os2"
_cell_length_a       7.24942
_cell_length_b       7.24942
_cell_length_c       7.24942
_cell_angle_alpha    33.8105
_cell_angle_beta     33.8105
_cell_angle_gamma    33.8105

_space_group_name_H-M_alt    "P 1"
_space_group_IT_number       1

loop_
  _space_group_symop_operation_xyz
  'x, y, z'

loop_
  _atom_site_type_symbol
  _atom_site_label
  _atom_site_symmetry_multiplicity
  _atom_site_fract_x
  _atom_site_fract_y
  _atom_site_fract_z
  _atom_site_occupancy
  Fe  Fe1       1.0  0.37100  0.37100  0.37100  1.0000
  Fe  Fe2       1.0  0.63100  0.63100  0.63100  1.0000
  Fe  Fe3       1.0  0.87900  0.87900  0.87900  1.0000
  Na  Na1       1.0  0.24000  0.24000  0.24000  1.0000
  Na  Na2       1.0  0.75700  0.75700  0.75700  1.0000
  Os  Os1       1.0  0.50100  0.50100  0.50100  1.0000
  Os  Os2       1.0  0.99700  0.99700  0.99700  1.0000
