data_image0
_chemical_formula_structural       Fe2W3Zr2
_chemical_formula_sum              "Fe2 W3 Zr2"
_cell_length_a       7.14157
_cell_length_b       7.14157
_cell_length_c       7.14157
_cell_angle_alpha    36.1725
_cell_angle_beta     36.1725
_cell_angle_gamma    36.1725

_space_group_name_H-M_alt    "P 1"
_space_group_IT_number       1

loop_
  _space_group_symop_operation_xyz
  'x, y, z'

loop_
  _atom_site_type_symbol
  _atom_site_label
  _atom_site_symmetry_multiplicity
  _atom_site_fract_x
  _atom_site_fract_y
  _atom_site_fract_z
  _atom_site_occupancy
  Fe  Fe1       1.0  0.04090  0.04090  0.04090  1.0000
  Fe  Fe2       1.0  0.48900  0.48900  0.48900  1.0000
  W   W1        1.0  0.34500  0.34500  0.34500  1.0000
  W   W2        1.0  0.62400  0.62400  0.62400  1.0000
  W   W3        1.0  0.91700  0.91700  0.91700  1.0000
  Zr  Zr1       1.0  0.19200  0.19200  0.19200  1.0000
  Zr  Zr2       1.0  0.76700  0.76700  0.76700  1.0000
