data_image0
_chemical_formula_structural       Ba2Mo3Pd2
_chemical_formula_sum              "Ba2 Mo3 Pd2"
_cell_length_a       11.7321
_cell_length_b       11.7321
_cell_length_c       11.7321
_cell_angle_alpha    21.4742
_cell_angle_beta     21.4742
_cell_angle_gamma    21.4742

_space_group_name_H-M_alt    "P 1"
_space_group_IT_number       1

loop_
  _space_group_symop_operation_xyz
  'x, y, z'

loop_
  _atom_site_type_symbol
  _atom_site_label
  _atom_site_symmetry_multiplicity
  _atom_site_fract_x
  _atom_site_fract_y
  _atom_site_fract_z
  _atom_site_occupancy
  Ba  Ba1       1.0  0.18000  0.18000  0.18000  1.0000
  Ba  Ba2       1.0  0.73800  0.73800  0.73800  1.0000
  Mo  Mo1       1.0  0.31000  0.31000  0.31000  1.0000
  Mo  Mo2       1.0  0.63500  0.63500  0.63500  1.0000
  Mo  Mo3       1.0  0.93700  0.93700  0.93700  1.0000
  Pd  Pd1       1.0  0.01620  0.01620  0.01620  1.0000
  Pd  Pd2       1.0  0.56000  0.56000  0.56000  1.0000
