data_image0
_chemical_formula_structural       Cu4Tb2
_chemical_formula_sum              "Cu4 Tb2"
_cell_length_a       4.32118
_cell_length_b       5.43798
_cell_length_c       5.43798
_cell_angle_alpha    95.4136
_cell_angle_beta     113.41
_cell_angle_gamma    66.5895

_space_group_name_H-M_alt    "P 1"
_space_group_IT_number       1

loop_
  _space_group_symop_operation_xyz
  'x, y, z'

loop_
  _atom_site_type_symbol
  _atom_site_label
  _atom_site_symmetry_multiplicity
  _atom_site_fract_x
  _atom_site_fract_y
  _atom_site_fract_z
  _atom_site_occupancy
  Cu  Cu1       1.0  0.05250  0.11300  0.21800  1.0000
  Cu  Cu2       1.0  0.55300  0.28200  0.38700  1.0000
  Cu  Cu3       1.0  0.44700  0.71800  0.61300  1.0000
  Cu  Cu4       1.0  0.94700  0.88700  0.78200  1.0000
  Tb  Tb1       1.0  0.75000  0.70700  0.20700  1.0000
  Tb  Tb2       1.0  0.25000  0.29300  0.79300  1.0000
