data_image0
_chemical_formula_structural       F2O2Ru2
_chemical_formula_sum              "F2 O2 Ru2"
_cell_length_a       3.78138
_cell_length_b       3.23246
_cell_length_c       5.56879
_cell_angle_alpha    90
_cell_angle_beta     90
_cell_angle_gamma    90

_space_group_name_H-M_alt    "P 1"
_space_group_IT_number       1

loop_
  _space_group_symop_operation_xyz
  'x, y, z'

loop_
  _atom_site_type_symbol
  _atom_site_label
  _atom_site_symmetry_multiplicity
  _atom_site_fract_x
  _atom_site_fract_y
  _atom_site_fract_z
  _atom_site_occupancy
  F   F1        1.0  0.00000  0.00000  0.41200  1.0000
  F   F2        1.0  0.50000  0.50000  0.58800  1.0000
  O   O1        1.0  0.50000  0.50000  0.05030  1.0000
  O   O2        1.0  0.00000  0.00000  0.95000  1.0000
  Ru  Ru1       1.0  0.00000  0.50000  0.18100  1.0000
  Ru  Ru2       1.0  0.50000  0.00000  0.81900  1.0000
