data_image0
_chemical_formula_structural       K2Os5
_chemical_formula_sum              "K2 Os5"
_cell_length_a       7.60198
_cell_length_b       7.60198
_cell_length_c       7.60198
_cell_angle_alpha    34.757
_cell_angle_beta     34.757
_cell_angle_gamma    34.757

_space_group_name_H-M_alt    "P 1"
_space_group_IT_number       1

loop_
  _space_group_symop_operation_xyz
  'x, y, z'

loop_
  _atom_site_type_symbol
  _atom_site_label
  _atom_site_symmetry_multiplicity
  _atom_site_fract_x
  _atom_site_fract_y
  _atom_site_fract_z
  _atom_site_occupancy
  K   K1        1.0  0.23600  0.23600  0.23600  1.0000
  K   K2        1.0  0.75800  0.75800  0.75800  1.0000
  Os  Os1       1.0  0.37800  0.37800  0.37800  1.0000
  Os  Os2       1.0  0.49700  0.49700  0.49700  1.0000
  Os  Os3       1.0  0.62900  0.62900  0.62900  1.0000
  Os  Os4       1.0  0.88100  0.88100  0.88100  1.0000
  Os  Os5       1.0  0.99700  0.99700  0.99700  1.0000
