data_image0
_chemical_formula_structural       Fe2Na2Os3
_chemical_formula_sum              "Fe2 Na2 Os3"
_cell_length_a       8.26943
_cell_length_b       8.26943
_cell_length_c       8.26943
_cell_angle_alpha    29.888
_cell_angle_beta     29.888
_cell_angle_gamma    29.888

_space_group_name_H-M_alt    "P 1"
_space_group_IT_number       1

loop_
  _space_group_symop_operation_xyz
  'x, y, z'

loop_
  _atom_site_type_symbol
  _atom_site_label
  _atom_site_symmetry_multiplicity
  _atom_site_fract_x
  _atom_site_fract_y
  _atom_site_fract_z
  _atom_site_occupancy
  Fe  Fe1       1.0  0.02010  0.02010  0.02010  1.0000
  Fe  Fe2       1.0  0.54800  0.54800  0.54800  1.0000
  Na  Na1       1.0  0.16400  0.16400  0.16400  1.0000
  Na  Na2       1.0  0.76900  0.76900  0.76900  1.0000
  Os  Os1       1.0  0.31200  0.31200  0.31200  1.0000
  Os  Os2       1.0  0.64700  0.64700  0.64700  1.0000
  Os  Os3       1.0  0.91400  0.91400  0.91400  1.0000
