data_image0
_chemical_formula_structural       Cr3Rh2Sc2
_chemical_formula_sum              "Cr3 Rh2 Sc2"
_cell_length_a       7.20483
_cell_length_b       7.20483
_cell_length_c       7.20483
_cell_angle_alpha    34.4317
_cell_angle_beta     34.4317
_cell_angle_gamma    34.4317

_space_group_name_H-M_alt    "P 1"
_space_group_IT_number       1

loop_
  _space_group_symop_operation_xyz
  'x, y, z'

loop_
  _atom_site_type_symbol
  _atom_site_label
  _atom_site_symmetry_multiplicity
  _atom_site_fract_x
  _atom_site_fract_y
  _atom_site_fract_z
  _atom_site_occupancy
  Cr  Cr1       1.0  0.37000  0.37000  0.37000  1.0000
  Cr  Cr2       1.0  0.63200  0.63200  0.63200  1.0000
  Cr  Cr3       1.0  0.88300  0.88300  0.88300  1.0000
  Rh  Rh1       1.0  0.00032  0.00032  0.00032  1.0000
  Rh  Rh2       1.0  0.49300  0.49300  0.49300  1.0000
  Sc  Sc1       1.0  0.23800  0.23800  0.23800  1.0000
  Sc  Sc2       1.0  0.76000  0.76000  0.76000  1.0000
