data_image0
_chemical_formula_structural       Fe2Li2Ru3
_chemical_formula_sum              "Fe2 Li2 Ru3"
_cell_length_a       6.46291
_cell_length_b       6.46291
_cell_length_c       6.46291
_cell_angle_alpha    37.6284
_cell_angle_beta     37.6284
_cell_angle_gamma    37.6284

_space_group_name_H-M_alt    "P 1"
_space_group_IT_number       1

loop_
  _space_group_symop_operation_xyz
  'x, y, z'

loop_
  _atom_site_type_symbol
  _atom_site_label
  _atom_site_symmetry_multiplicity
  _atom_site_fract_x
  _atom_site_fract_y
  _atom_site_fract_z
  _atom_site_occupancy
  Fe  Fe1       1.0  0.04640  0.04640  0.04640  1.0000
  Fe  Fe2       1.0  0.48500  0.48500  0.48500  1.0000
  Li  Li1       1.0  0.19600  0.19600  0.19600  1.0000
  Li  Li2       1.0  0.76600  0.76600  0.76600  1.0000
  Ru  Ru1       1.0  0.35300  0.35300  0.35300  1.0000
  Ru  Ru2       1.0  0.62000  0.62000  0.62000  1.0000
  Ru  Ru3       1.0  0.90800  0.90800  0.90800  1.0000
