data_image0
_chemical_formula_structural       Li2Os5
_chemical_formula_sum              "Li2 Os5"
_cell_length_a       7.23387
_cell_length_b       7.23387
_cell_length_c       7.23387
_cell_angle_alpha    33.5761
_cell_angle_beta     33.5761
_cell_angle_gamma    33.5761

_space_group_name_H-M_alt    "P 1"
_space_group_IT_number       1

loop_
  _space_group_symop_operation_xyz
  'x, y, z'

loop_
  _atom_site_type_symbol
  _atom_site_label
  _atom_site_symmetry_multiplicity
  _atom_site_fract_x
  _atom_site_fract_y
  _atom_site_fract_z
  _atom_site_occupancy
  Li  Li1       1.0  0.24100  0.24100  0.24100  1.0000
  Li  Li2       1.0  0.75600  0.75600  0.75600  1.0000
  Os  Os1       1.0  0.00077  0.00078  0.00078  1.0000
  Os  Os2       1.0  0.37900  0.37900  0.37900  1.0000
  Os  Os3       1.0  0.49500  0.49500  0.49500  1.0000
  Os  Os4       1.0  0.62800  0.62800  0.62800  1.0000
  Os  Os5       1.0  0.87600  0.87600  0.87600  1.0000
