data_image0
_chemical_formula_structural       Fe2Na2Ru3
_chemical_formula_sum              "Fe2 Na2 Ru3"
_cell_length_a       8.42523
_cell_length_b       8.42523
_cell_length_c       8.42523
_cell_angle_alpha    29.0965
_cell_angle_beta     29.0965
_cell_angle_gamma    29.0965

_space_group_name_H-M_alt    "P 1"
_space_group_IT_number       1

loop_
  _space_group_symop_operation_xyz
  'x, y, z'

loop_
  _atom_site_type_symbol
  _atom_site_label
  _atom_site_symmetry_multiplicity
  _atom_site_fract_x
  _atom_site_fract_y
  _atom_site_fract_z
  _atom_site_occupancy
  Fe  Fe1       1.0  0.01680  0.01680  0.01680  1.0000
  Fe  Fe2       1.0  0.55300  0.55300  0.55300  1.0000
  Na  Na1       1.0  0.16600  0.16600  0.16600  1.0000
  Na  Na2       1.0  0.76700  0.76700  0.76700  1.0000
  Ru  Ru1       1.0  0.31100  0.31100  0.31100  1.0000
  Ru  Ru2       1.0  0.64900  0.64900  0.64900  1.0000
  Ru  Ru3       1.0  0.91200  0.91200  0.91200  1.0000
