data_image0
_chemical_formula_structural       K2Ru5
_chemical_formula_sum              "K2 Ru5"
_cell_length_a       12.2439
_cell_length_b       12.2439
_cell_length_c       12.2439
_cell_angle_alpha    20.5367
_cell_angle_beta     20.5367
_cell_angle_gamma    20.5367

_space_group_name_H-M_alt    "P 1"
_space_group_IT_number       1

loop_
  _space_group_symop_operation_xyz
  'x, y, z'

loop_
  _atom_site_type_symbol
  _atom_site_label
  _atom_site_symmetry_multiplicity
  _atom_site_fract_x
  _atom_site_fract_y
  _atom_site_fract_z
  _atom_site_occupancy
  K   K1        1.0  0.18600  0.18600  0.18600  1.0000
  K   K2        1.0  0.73900  0.73900  0.73900  1.0000
  Ru  Ru1       1.0  0.30000  0.30000  0.30000  1.0000
  Ru  Ru2       1.0  0.58800  0.58800  0.58800  1.0000
  Ru  Ru3       1.0  0.65300  0.65300  0.65300  1.0000
  Ru  Ru4       1.0  0.92200  0.92200  0.92200  1.0000
  Ru  Ru5       1.0  0.98700  0.98700  0.98700  1.0000
