data_image0
_chemical_formula_structural       Ba2Fe3Re2
_chemical_formula_sum              "Ba2 Fe3 Re2"
_cell_length_a       10.8298
_cell_length_b       10.8298
_cell_length_c       10.8298
_cell_angle_alpha    22.2158
_cell_angle_beta     22.2158
_cell_angle_gamma    22.2158

_space_group_name_H-M_alt    "P 1"
_space_group_IT_number       1

loop_
  _space_group_symop_operation_xyz
  'x, y, z'

loop_
  _atom_site_type_symbol
  _atom_site_label
  _atom_site_symmetry_multiplicity
  _atom_site_fract_x
  _atom_site_fract_y
  _atom_site_fract_z
  _atom_site_occupancy
  Ba  Ba1       1.0  0.17900  0.17900  0.17900  1.0000
  Ba  Ba2       1.0  0.74700  0.74700  0.74700  1.0000
  Fe  Fe1       1.0  0.29300  0.29300  0.29300  1.0000
  Fe  Fe2       1.0  0.66200  0.66200  0.66200  1.0000
  Fe  Fe3       1.0  0.91500  0.91500  0.91500  1.0000
  Re  Re1       1.0  0.59100  0.59100  0.59100  1.0000
  Re  Re2       1.0  0.98800  0.98800  0.98800  1.0000
