data_image0
_chemical_formula_structural       Fe3Mg2Re2
_chemical_formula_sum              "Fe3 Mg2 Re2"
_cell_length_a       7.00389
_cell_length_b       7.00389
_cell_length_c       7.00389
_cell_angle_alpha    34.1048
_cell_angle_beta     34.1048
_cell_angle_gamma    34.1048

_space_group_name_H-M_alt    "P 1"
_space_group_IT_number       1

loop_
  _space_group_symop_operation_xyz
  'x, y, z'

loop_
  _atom_site_type_symbol
  _atom_site_label
  _atom_site_symmetry_multiplicity
  _atom_site_fract_x
  _atom_site_fract_y
  _atom_site_fract_z
  _atom_site_occupancy
  Fe  Fe1       1.0  0.37500  0.37500  0.37500  1.0000
  Fe  Fe2       1.0  0.62700  0.62700  0.62700  1.0000
  Fe  Fe3       1.0  0.87800  0.87800  0.87800  1.0000
  Mg  Mg1       1.0  0.24100  0.24100  0.24100  1.0000
  Mg  Mg2       1.0  0.75500  0.75500  0.75500  1.0000
  Re  Re1       1.0  0.00170  0.00170  0.00170  1.0000
  Re  Re2       1.0  0.49700  0.49700  0.49700  1.0000
