data_image0
_chemical_formula_structural       Fe3Mg2Mn2
_chemical_formula_sum              "Fe3 Mg2 Mn2"
_cell_length_a       6.63452
_cell_length_b       6.63452
_cell_length_c       6.63452
_cell_angle_alpha    35.693
_cell_angle_beta     35.693
_cell_angle_gamma    35.693

_space_group_name_H-M_alt    "P 1"
_space_group_IT_number       1

loop_
  _space_group_symop_operation_xyz
  'x, y, z'

loop_
  _atom_site_type_symbol
  _atom_site_label
  _atom_site_symmetry_multiplicity
  _atom_site_fract_x
  _atom_site_fract_y
  _atom_site_fract_z
  _atom_site_occupancy
  Fe  Fe1       1.0  0.37500  0.37500  0.37500  1.0000
  Fe  Fe2       1.0  0.62700  0.62700  0.62700  1.0000
  Fe  Fe3       1.0  0.88600  0.88600  0.88600  1.0000
  Mg  Mg1       1.0  0.23200  0.23200  0.23200  1.0000
  Mg  Mg2       1.0  0.75900  0.75900  0.75900  1.0000
  Mn  Mn1       1.0  0.00068  0.00068  0.00068  1.0000
  Mn  Mn2       1.0  0.49500  0.49500  0.49500  1.0000
