data_image0
_chemical_formula_structural       Fe2Os3Rb2
_chemical_formula_sum              "Fe2 Os3 Rb2"
_cell_length_a       9.68398
_cell_length_b       9.68398
_cell_length_c       9.68398
_cell_angle_alpha    25.7772
_cell_angle_beta     25.7772
_cell_angle_gamma    25.7772

_space_group_name_H-M_alt    "P 1"
_space_group_IT_number       1

loop_
  _space_group_symop_operation_xyz
  'x, y, z'

loop_
  _atom_site_type_symbol
  _atom_site_label
  _atom_site_symmetry_multiplicity
  _atom_site_fract_x
  _atom_site_fract_y
  _atom_site_fract_z
  _atom_site_occupancy
  Fe  Fe1       1.0  0.57900  0.57900  0.57900  1.0000
  Fe  Fe2       1.0  0.99400  0.99400  0.99400  1.0000
  Os  Os1       1.0  0.30200  0.30200  0.30200  1.0000
  Os  Os2       1.0  0.65800  0.65800  0.65800  1.0000
  Os  Os3       1.0  0.91400  0.91400  0.91400  1.0000
  Rb  Rb1       1.0  0.16900  0.16900  0.16900  1.0000
  Rb  Rb2       1.0  0.76000  0.76000  0.76000  1.0000
