data_image0
_chemical_formula_structural       Re2Ru3Sr2
_chemical_formula_sum              "Re2 Ru3 Sr2"
_cell_length_a       7.56595
_cell_length_b       7.56595
_cell_length_c       7.56595
_cell_angle_alpha    36.5171
_cell_angle_beta     36.5171
_cell_angle_gamma    36.5171

_space_group_name_H-M_alt    "P 1"
_space_group_IT_number       1

loop_
  _space_group_symop_operation_xyz
  'x, y, z'

loop_
  _atom_site_type_symbol
  _atom_site_label
  _atom_site_symmetry_multiplicity
  _atom_site_fract_x
  _atom_site_fract_y
  _atom_site_fract_z
  _atom_site_occupancy
  Re  Re1       1.0  0.49900  0.49900  0.49900  1.0000
  Re  Re2       1.0  0.99600  0.99600  0.99600  1.0000
  Ru  Ru1       1.0  0.38000  0.38000  0.38000  1.0000
  Ru  Ru2       1.0  0.62500  0.62500  0.62500  1.0000
  Ru  Ru3       1.0  0.88400  0.88400  0.88400  1.0000
  Sr  Sr1       1.0  0.23600  0.23600  0.23600  1.0000
  Sr  Sr2       1.0  0.75600  0.75600  0.75600  1.0000
