data_image0
_chemical_formula_structural       Mg2Mn2Ru3
_chemical_formula_sum              "Mg2 Mn2 Ru3"
_cell_length_a       6.55205
_cell_length_b       6.55205
_cell_length_c       6.55205
_cell_angle_alpha    39.0318
_cell_angle_beta     39.0318
_cell_angle_gamma    39.0318

_space_group_name_H-M_alt    "P 1"
_space_group_IT_number       1

loop_
  _space_group_symop_operation_xyz
  'x, y, z'

loop_
  _atom_site_type_symbol
  _atom_site_label
  _atom_site_symmetry_multiplicity
  _atom_site_fract_x
  _atom_site_fract_y
  _atom_site_fract_z
  _atom_site_occupancy
  Mg  Mg1       1.0  0.20000  0.20000  0.20000  1.0000
  Mg  Mg2       1.0  0.76500  0.76500  0.76500  1.0000
  Mn  Mn1       1.0  0.04010  0.04010  0.04010  1.0000
  Mn  Mn2       1.0  0.48500  0.48500  0.48500  1.0000
  Ru  Ru1       1.0  0.35800  0.35800  0.35800  1.0000
  Ru  Ru2       1.0  0.61700  0.61700  0.61700  1.0000
  Ru  Ru3       1.0  0.91000  0.91000  0.91000  1.0000
