data_image0
_chemical_formula_structural       F8Mo4O4
_chemical_formula_sum              "F8 Mo4 O4"
_cell_length_a       5.03539
_cell_length_b       7.19864
_cell_length_c       5.12552
_cell_angle_alpha    90
_cell_angle_beta     90
_cell_angle_gamma    90

_space_group_name_H-M_alt    "P 1"
_space_group_IT_number       1

loop_
  _space_group_symop_operation_xyz
  'x, y, z'

loop_
  _atom_site_type_symbol
  _atom_site_label
  _atom_site_symmetry_multiplicity
  _atom_site_fract_x
  _atom_site_fract_y
  _atom_site_fract_z
  _atom_site_occupancy
  F   F1        1.0  0.15100  0.40300  0.35200  1.0000
  F   F2        1.0  0.65100  0.59700  0.35200  1.0000
  F   F3        1.0  0.66400  0.26000  0.43800  1.0000
  F   F4        1.0  0.16400  0.74000  0.43800  1.0000
  F   F5        1.0  0.34900  0.40300  0.85200  1.0000
  F   F6        1.0  0.84900  0.59700  0.85200  1.0000
  F   F7        1.0  0.83600  0.26000  0.93800  1.0000
  F   F8        1.0  0.33600  0.74000  0.93800  1.0000
  Mo  Mo1       1.0  0.01470  0.16800  0.27400  1.0000
  Mo  Mo2       1.0  0.51500  0.83200  0.27400  1.0000
  Mo  Mo3       1.0  0.48500  0.16800  0.77300  1.0000
  Mo  Mo4       1.0  0.98500  0.83200  0.77300  1.0000
  O   O1        1.0  0.34700  0.07340  0.11900  1.0000
  O   O2        1.0  0.84700  0.92700  0.11900  1.0000
  O   O3        1.0  0.15300  0.07340  0.61900  1.0000
  O   O4        1.0  0.65300  0.92700  0.61900  1.0000
