data_image0
_chemical_formula_structural       Al2Cr2Fe3
_chemical_formula_sum              "Al2 Cr2 Fe3"
_cell_length_a       6.69667
_cell_length_b       6.69667
_cell_length_c       6.69667
_cell_angle_alpha    34.305
_cell_angle_beta     34.305
_cell_angle_gamma    34.305

_space_group_name_H-M_alt    "P 1"
_space_group_IT_number       1

loop_
  _space_group_symop_operation_xyz
  'x, y, z'

loop_
  _atom_site_type_symbol
  _atom_site_label
  _atom_site_symmetry_multiplicity
  _atom_site_fract_x
  _atom_site_fract_y
  _atom_site_fract_z
  _atom_site_occupancy
  Al  Al1       1.0  0.24100  0.24100  0.24100  1.0000
  Al  Al2       1.0  0.75500  0.75500  0.75500  1.0000
  Cr  Cr1       1.0  0.00284  0.00284  0.00284  1.0000
  Cr  Cr2       1.0  0.49500  0.49500  0.49500  1.0000
  Fe  Fe1       1.0  0.37500  0.37500  0.37500  1.0000
  Fe  Fe2       1.0  0.62700  0.62700  0.62700  1.0000
  Fe  Fe3       1.0  0.87900  0.87900  0.87900  1.0000
