data_image0
_chemical_formula_structural       Ru2Si2W3
_chemical_formula_sum              "Ru2 Si2 W3"
_cell_length_a       6.67409
_cell_length_b       6.67409
_cell_length_c       6.67409
_cell_angle_alpha    37.854
_cell_angle_beta     37.854
_cell_angle_gamma    37.854

_space_group_name_H-M_alt    "P 1"
_space_group_IT_number       1

loop_
  _space_group_symop_operation_xyz
  'x, y, z'

loop_
  _atom_site_type_symbol
  _atom_site_label
  _atom_site_symmetry_multiplicity
  _atom_site_fract_x
  _atom_site_fract_y
  _atom_site_fract_z
  _atom_site_occupancy
  Ru  Ru1       1.0  0.05850  0.05850  0.05850  1.0000
  Ru  Ru2       1.0  0.48100  0.48100  0.48100  1.0000
  Si  Si1       1.0  0.19500  0.19500  0.19500  1.0000
  Si  Si2       1.0  0.76800  0.76800  0.76800  1.0000
  W   W1        1.0  0.33900  0.33900  0.33900  1.0000
  W   W2        1.0  0.62600  0.62600  0.62600  1.0000
  W   W3        1.0  0.90800  0.90800  0.90800  1.0000
