data_image0
_chemical_formula_structural       Ba2Mn2Ru3
_chemical_formula_sum              "Ba2 Mn2 Ru3"
_cell_length_a       10.4237
_cell_length_b       10.4237
_cell_length_c       10.4237
_cell_angle_alpha    24.0142
_cell_angle_beta     24.0142
_cell_angle_gamma    24.0142

_space_group_name_H-M_alt    "P 1"
_space_group_IT_number       1

loop_
  _space_group_symop_operation_xyz
  'x, y, z'

loop_
  _atom_site_type_symbol
  _atom_site_label
  _atom_site_symmetry_multiplicity
  _atom_site_fract_x
  _atom_site_fract_y
  _atom_site_fract_z
  _atom_site_occupancy
  Ba  Ba1       1.0  0.17700  0.17700  0.17700  1.0000
  Ba  Ba2       1.0  0.74400  0.74400  0.74400  1.0000
  Mn  Mn1       1.0  0.00669  0.00669  0.00669  1.0000
  Mn  Mn2       1.0  0.56900  0.56900  0.56900  1.0000
  Ru  Ru1       1.0  0.30800  0.30800  0.30800  1.0000
  Ru  Ru2       1.0  0.64500  0.64500  0.64500  1.0000
  Ru  Ru3       1.0  0.92500  0.92500  0.92500  1.0000
