data_image0
_chemical_formula_structural       B2Fe3Mo2
_chemical_formula_sum              "B2 Fe3 Mo2"
_cell_length_a       6.55
_cell_length_b       6.55
_cell_length_c       6.55
_cell_angle_alpha    34.0985
_cell_angle_beta     34.0985
_cell_angle_gamma    34.0985

_space_group_name_H-M_alt    "P 1"
_space_group_IT_number       1

loop_
  _space_group_symop_operation_xyz
  'x, y, z'

loop_
  _atom_site_type_symbol
  _atom_site_label
  _atom_site_symmetry_multiplicity
  _atom_site_fract_x
  _atom_site_fract_y
  _atom_site_fract_z
  _atom_site_occupancy
  B   B1        1.0  0.24300  0.24300  0.24300  1.0000
  B   B2        1.0  0.75500  0.75500  0.75500  1.0000
  Fe  Fe1       1.0  0.37000  0.37000  0.37000  1.0000
  Fe  Fe2       1.0  0.62300  0.62300  0.62300  1.0000
  Fe  Fe3       1.0  0.87800  0.87800  0.87800  1.0000
  Mo  Mo1       1.0  0.01290  0.01290  0.01290  1.0000
  Mo  Mo2       1.0  0.49400  0.49400  0.49400  1.0000
