data_image0
_chemical_formula_structural       B2Cr2Fe3
_chemical_formula_sum              "B2 Cr2 Fe3"
_cell_length_a       6.24332
_cell_length_b       6.24332
_cell_length_c       6.24332
_cell_angle_alpha    34.185
_cell_angle_beta     34.185
_cell_angle_gamma    34.185

_space_group_name_H-M_alt    "P 1"
_space_group_IT_number       1

loop_
  _space_group_symop_operation_xyz
  'x, y, z'

loop_
  _atom_site_type_symbol
  _atom_site_label
  _atom_site_symmetry_multiplicity
  _atom_site_fract_x
  _atom_site_fract_y
  _atom_site_fract_z
  _atom_site_occupancy
  B   B1        1.0  0.01100  0.01100  0.01100  1.0000
  B   B2        1.0  0.49600  0.49600  0.49600  1.0000
  Cr  Cr1       1.0  0.23300  0.23300  0.23300  1.0000
  Cr  Cr2       1.0  0.75700  0.75700  0.75700  1.0000
  Fe  Fe1       1.0  0.37300  0.37300  0.37300  1.0000
  Fe  Fe2       1.0  0.62700  0.62700  0.62700  1.0000
  Fe  Fe3       1.0  0.87900  0.87900  0.87900  1.0000
