data_image0
_chemical_formula_structural       F8O4Pd4
_chemical_formula_sum              "F8 O4 Pd4"
_cell_length_a       4.90061
_cell_length_b       7.20008
_cell_length_c       4.92547
_cell_angle_alpha    90
_cell_angle_beta     90
_cell_angle_gamma    90

_space_group_name_H-M_alt    "P 1"
_space_group_IT_number       1

loop_
  _space_group_symop_operation_xyz
  'x, y, z'

loop_
  _atom_site_type_symbol
  _atom_site_label
  _atom_site_symmetry_multiplicity
  _atom_site_fract_x
  _atom_site_fract_y
  _atom_site_fract_z
  _atom_site_occupancy
  F   F1        1.0  0.16200  0.39500  0.39200  1.0000
  F   F2        1.0  0.66200  0.60500  0.39200  1.0000
  F   F3        1.0  0.65600  0.27700  0.42900  1.0000
  F   F4        1.0  0.15600  0.72300  0.42900  1.0000
  F   F5        1.0  0.33800  0.39500  0.89200  1.0000
  F   F6        1.0  0.83800  0.60500  0.89200  1.0000
  F   F7        1.0  0.84400  0.27700  0.92900  1.0000
  F   F8        1.0  0.34400  0.72300  0.92900  1.0000
  O   O1        1.0  0.31800  0.05200  0.08890  1.0000
  O   O2        1.0  0.81800  0.94800  0.08890  1.0000
  O   O3        1.0  0.18200  0.05200  0.58900  1.0000
  O   O4        1.0  0.68200  0.94800  0.58900  1.0000
  Pd  Pd1       1.0  0.00490  0.16900  0.27200  1.0000
  Pd  Pd2       1.0  0.50500  0.83100  0.27200  1.0000
  Pd  Pd3       1.0  0.49500  0.16900  0.77200  1.0000
  Pd  Pd4       1.0  0.99500  0.83100  0.77200  1.0000
