data_image0
_chemical_formula_structural       Al2Mo2Ru3
_chemical_formula_sum              "Al2 Mo2 Ru3"
_cell_length_a       7.34969
_cell_length_b       7.34969
_cell_length_c       7.34969
_cell_angle_alpha    33.7797
_cell_angle_beta     33.7797
_cell_angle_gamma    33.7797

_space_group_name_H-M_alt    "P 1"
_space_group_IT_number       1

loop_
  _space_group_symop_operation_xyz
  'x, y, z'

loop_
  _atom_site_type_symbol
  _atom_site_label
  _atom_site_symmetry_multiplicity
  _atom_site_fract_x
  _atom_site_fract_y
  _atom_site_fract_z
  _atom_site_occupancy
  Al  Al1       1.0  0.24200  0.24200  0.24200  1.0000
  Al  Al2       1.0  0.75500  0.75500  0.75500  1.0000
  Mo  Mo1       1.0  0.00462  0.00462  0.00462  1.0000
  Mo  Mo2       1.0  0.49500  0.49500  0.49500  1.0000
  Ru  Ru1       1.0  0.37500  0.37500  0.37500  1.0000
  Ru  Ru2       1.0  0.62600  0.62600  0.62600  1.0000
  Ru  Ru3       1.0  0.87600  0.87600  0.87600  1.0000
