data_image0
_chemical_formula_structural       Fe3Os2Rb2
_chemical_formula_sum              "Fe3 Os2 Rb2"
_cell_length_a       12.0448
_cell_length_b       12.0448
_cell_length_c       12.0448
_cell_angle_alpha    19.778
_cell_angle_beta     19.778
_cell_angle_gamma    19.778

_space_group_name_H-M_alt    "P 1"
_space_group_IT_number       1

loop_
  _space_group_symop_operation_xyz
  'x, y, z'

loop_
  _atom_site_type_symbol
  _atom_site_label
  _atom_site_symmetry_multiplicity
  _atom_site_fract_x
  _atom_site_fract_y
  _atom_site_fract_z
  _atom_site_occupancy
  Fe  Fe1       1.0  0.29000  0.29000  0.29000  1.0000
  Fe  Fe2       1.0  0.65800  0.65800  0.65800  1.0000
  Fe  Fe3       1.0  0.92200  0.92200  0.92200  1.0000
  Os  Os1       1.0  0.59200  0.59200  0.59200  1.0000
  Os  Os2       1.0  0.98800  0.98800  0.98800  1.0000
  Rb  Rb1       1.0  0.18100  0.18100  0.18100  1.0000
  Rb  Rb2       1.0  0.74300  0.74300  0.74300  1.0000
