data_image0
_chemical_formula_structural       B2Mo2Ru3
_chemical_formula_sum              "B2 Mo2 Ru3"
_cell_length_a       7.15646
_cell_length_b       7.15646
_cell_length_c       7.15646
_cell_angle_alpha    32.6765
_cell_angle_beta     32.6765
_cell_angle_gamma    32.6765

_space_group_name_H-M_alt    "P 1"
_space_group_IT_number       1

loop_
  _space_group_symop_operation_xyz
  'x, y, z'

loop_
  _atom_site_type_symbol
  _atom_site_label
  _atom_site_symmetry_multiplicity
  _atom_site_fract_x
  _atom_site_fract_y
  _atom_site_fract_z
  _atom_site_occupancy
  B   B1        1.0  0.22600  0.22600  0.22600  1.0000
  B   B2        1.0  0.76100  0.76100  0.76100  1.0000
  Mo  Mo1       1.0  0.01350  0.01350  0.01350  1.0000
  Mo  Mo2       1.0  0.49600  0.49600  0.49600  1.0000
  Ru  Ru1       1.0  0.37700  0.37700  0.37700  1.0000
  Ru  Ru2       1.0  0.62400  0.62400  0.62400  1.0000
  Ru  Ru3       1.0  0.87700  0.87700  0.87700  1.0000
