data_image0
_chemical_formula_structural       Fe3La2W2
_chemical_formula_sum              "Fe3 La2 W2"
_cell_length_a       7.94551
_cell_length_b       7.94551
_cell_length_c       7.94551
_cell_angle_alpha    33.3422
_cell_angle_beta     33.3422
_cell_angle_gamma    33.3422

_space_group_name_H-M_alt    "P 1"
_space_group_IT_number       1

loop_
  _space_group_symop_operation_xyz
  'x, y, z'

loop_
  _atom_site_type_symbol
  _atom_site_label
  _atom_site_symmetry_multiplicity
  _atom_site_fract_x
  _atom_site_fract_y
  _atom_site_fract_z
  _atom_site_occupancy
  Fe  Fe1       1.0  0.34600  0.34600  0.34600  1.0000
  Fe  Fe2       1.0  0.63800  0.63800  0.63800  1.0000
  Fe  Fe3       1.0  0.89100  0.89100  0.89100  1.0000
  La  La1       1.0  0.21700  0.21700  0.21700  1.0000
  La  La2       1.0  0.76200  0.76200  0.76200  1.0000
  W   W1        1.0  0.53000  0.53000  0.53000  1.0000
  W   W2        1.0  0.99100  0.99100  0.99100  1.0000
