data_image0
_chemical_formula_structural       Fe3W2Y2
_chemical_formula_sum              "Fe3 W2 Y2"
_cell_length_a       7.4703
_cell_length_b       7.4703
_cell_length_c       7.4703
_cell_angle_alpha    34.4257
_cell_angle_beta     34.4257
_cell_angle_gamma    34.4257

_space_group_name_H-M_alt    "P 1"
_space_group_IT_number       1

loop_
  _space_group_symop_operation_xyz
  'x, y, z'

loop_
  _atom_site_type_symbol
  _atom_site_label
  _atom_site_symmetry_multiplicity
  _atom_site_fract_x
  _atom_site_fract_y
  _atom_site_fract_z
  _atom_site_occupancy
  Fe  Fe1       1.0  0.37300  0.37300  0.37300  1.0000
  Fe  Fe2       1.0  0.62600  0.62600  0.62600  1.0000
  Fe  Fe3       1.0  0.88100  0.88100  0.88100  1.0000
  W   W1        1.0  0.50000  0.50000  0.50000  1.0000
  W   W2        1.0  0.99900  0.99900  0.99900  1.0000
  Y   Y1        1.0  0.24200  0.24200  0.24200  1.0000
  Y   Y2        1.0  0.75500  0.75500  0.75500  1.0000
