data_image0
_chemical_formula_structural       La2Mo2Ru3
_chemical_formula_sum              "La2 Mo2 Ru3"
_cell_length_a       7.69458
_cell_length_b       7.69458
_cell_length_c       7.69458
_cell_angle_alpha    35.8121
_cell_angle_beta     35.8121
_cell_angle_gamma    35.8121

_space_group_name_H-M_alt    "P 1"
_space_group_IT_number       1

loop_
  _space_group_symop_operation_xyz
  'x, y, z'

loop_
  _atom_site_type_symbol
  _atom_site_label
  _atom_site_symmetry_multiplicity
  _atom_site_fract_x
  _atom_site_fract_y
  _atom_site_fract_z
  _atom_site_occupancy
  La  La1       1.0  0.23500  0.23500  0.23500  1.0000
  La  La2       1.0  0.75600  0.75600  0.75600  1.0000
  Mo  Mo1       1.0  0.00055  0.00056  0.00056  1.0000
  Mo  Mo2       1.0  0.49600  0.49600  0.49600  1.0000
  Ru  Ru1       1.0  0.37500  0.37500  0.37500  1.0000
  Ru  Ru2       1.0  0.62700  0.62700  0.62700  1.0000
  Ru  Ru3       1.0  0.88500  0.88500  0.88500  1.0000
