data_image0
_chemical_formula_structural       Mg2Mn2Os3
_chemical_formula_sum              "Mg2 Mn2 Os3"
_cell_length_a       6.64794
_cell_length_b       6.64794
_cell_length_c       6.64794
_cell_angle_alpha    38.0532
_cell_angle_beta     38.0532
_cell_angle_gamma    38.0532

_space_group_name_H-M_alt    "P 1"
_space_group_IT_number       1

loop_
  _space_group_symop_operation_xyz
  'x, y, z'

loop_
  _atom_site_type_symbol
  _atom_site_label
  _atom_site_symmetry_multiplicity
  _atom_site_fract_x
  _atom_site_fract_y
  _atom_site_fract_z
  _atom_site_occupancy
  Mg  Mg1       1.0  0.19400  0.19400  0.19400  1.0000
  Mg  Mg2       1.0  0.76700  0.76700  0.76700  1.0000
  Mn  Mn1       1.0  0.03990  0.03990  0.03990  1.0000
  Mn  Mn2       1.0  0.48500  0.48500  0.48500  1.0000
  Os  Os1       1.0  0.35900  0.35900  0.35900  1.0000
  Os  Os2       1.0  0.62000  0.62000  0.62000  1.0000
  Os  Os3       1.0  0.91000  0.91000  0.91000  1.0000
