data_image0
_chemical_formula_structural       Mg2Os3Re2
_chemical_formula_sum              "Mg2 Os3 Re2"
_cell_length_a       7.40299
_cell_length_b       7.40299
_cell_length_c       7.40299
_cell_angle_alpha    33.8795
_cell_angle_beta     33.8795
_cell_angle_gamma    33.8795

_space_group_name_H-M_alt    "P 1"
_space_group_IT_number       1

loop_
  _space_group_symop_operation_xyz
  'x, y, z'

loop_
  _atom_site_type_symbol
  _atom_site_label
  _atom_site_symmetry_multiplicity
  _atom_site_fract_x
  _atom_site_fract_y
  _atom_site_fract_z
  _atom_site_occupancy
  Mg  Mg1       1.0  0.23900  0.23900  0.23900  1.0000
  Mg  Mg2       1.0  0.75600  0.75600  0.75600  1.0000
  Os  Os1       1.0  0.37700  0.37700  0.37700  1.0000
  Os  Os2       1.0  0.62800  0.62800  0.62800  1.0000
  Os  Os3       1.0  0.87700  0.87700  0.87700  1.0000
  Re  Re1       1.0  0.00055  0.00055  0.00055  1.0000
  Re  Re2       1.0  0.49600  0.49600  0.49600  1.0000
