data_image0
_chemical_formula_structural       Fe5Rb2
_chemical_formula_sum              "Fe5 Rb2"
_cell_length_a       11.9234
_cell_length_b       11.9234
_cell_length_c       11.9234
_cell_angle_alpha    19.5565
_cell_angle_beta     19.5565
_cell_angle_gamma    19.5565

_space_group_name_H-M_alt    "P 1"
_space_group_IT_number       1

loop_
  _space_group_symop_operation_xyz
  'x, y, z'

loop_
  _atom_site_type_symbol
  _atom_site_label
  _atom_site_symmetry_multiplicity
  _atom_site_fract_x
  _atom_site_fract_y
  _atom_site_fract_z
  _atom_site_occupancy
  Fe  Fe1       1.0  0.29100  0.29100  0.29100  1.0000
  Fe  Fe2       1.0  0.58200  0.58200  0.58200  1.0000
  Fe  Fe3       1.0  0.64600  0.64600  0.64600  1.0000
  Fe  Fe4       1.0  0.93500  0.93500  0.93500  1.0000
  Fe  Fe5       1.0  0.00000  0.00000  0.00000  1.0000
  Rb  Rb1       1.0  0.18000  0.18000  0.18000  1.0000
  Rb  Rb2       1.0  0.74100  0.74100  0.74100  1.0000
