data_image0
_chemical_formula_structural       Fe3Ga2W2
_chemical_formula_sum              "Fe3 Ga2 W2"
_cell_length_a       6.9929
_cell_length_b       6.9929
_cell_length_c       6.9929
_cell_angle_alpha    33.908
_cell_angle_beta     33.908
_cell_angle_gamma    33.908

_space_group_name_H-M_alt    "P 1"
_space_group_IT_number       1

loop_
  _space_group_symop_operation_xyz
  'x, y, z'

loop_
  _atom_site_type_symbol
  _atom_site_label
  _atom_site_symmetry_multiplicity
  _atom_site_fract_x
  _atom_site_fract_y
  _atom_site_fract_z
  _atom_site_occupancy
  Fe  Fe1       1.0  0.37300  0.37300  0.37300  1.0000
  Fe  Fe2       1.0  0.62500  0.62500  0.62500  1.0000
  Fe  Fe3       1.0  0.87800  0.87800  0.87800  1.0000
  Ga  Ga1       1.0  0.24400  0.24400  0.24400  1.0000
  Ga  Ga2       1.0  0.75400  0.75400  0.75400  1.0000
  W   W1        1.0  0.00482  0.00482  0.00482  1.0000
  W   W2        1.0  0.49600  0.49600  0.49600  1.0000
