data_image0
_chemical_formula_structural       As2Mo3Re2
_chemical_formula_sum              "As2 Mo3 Re2"
_cell_length_a       7.40637
_cell_length_b       7.40637
_cell_length_c       7.40637
_cell_angle_alpha    34.1558
_cell_angle_beta     34.1558
_cell_angle_gamma    34.1558

_space_group_name_H-M_alt    "P 1"
_space_group_IT_number       1

loop_
  _space_group_symop_operation_xyz
  'x, y, z'

loop_
  _atom_site_type_symbol
  _atom_site_label
  _atom_site_symmetry_multiplicity
  _atom_site_fract_x
  _atom_site_fract_y
  _atom_site_fract_z
  _atom_site_occupancy
  As  As1       1.0  0.01560  0.01560  0.01560  1.0000
  As  As2       1.0  0.49200  0.49200  0.49200  1.0000
  Mo  Mo1       1.0  0.37100  0.37100  0.37100  1.0000
  Mo  Mo2       1.0  0.62400  0.62400  0.62400  1.0000
  Mo  Mo3       1.0  0.87900  0.87900  0.87900  1.0000
  Re  Re1       1.0  0.23600  0.23600  0.23600  1.0000
  Re  Re2       1.0  0.75700  0.75700  0.75700  1.0000
