data_image0
_chemical_formula_structural       F8O4W4
_chemical_formula_sum              "F8 O4 W4"
_cell_length_a       4.50156
_cell_length_b       6.66568
_cell_length_c       6.05218
_cell_angle_alpha    90
_cell_angle_beta     90
_cell_angle_gamma    90

_space_group_name_H-M_alt    "P 1"
_space_group_IT_number       1

loop_
  _space_group_symop_operation_xyz
  'x, y, z'

loop_
  _atom_site_type_symbol
  _atom_site_label
  _atom_site_symmetry_multiplicity
  _atom_site_fract_x
  _atom_site_fract_y
  _atom_site_fract_z
  _atom_site_occupancy
  F   F1        1.0  0.12300  0.39700  0.30400  1.0000
  F   F2        1.0  0.62300  0.60300  0.30400  1.0000
  F   F3        1.0  0.65400  0.25300  0.48400  1.0000
  F   F4        1.0  0.15400  0.74700  0.48400  1.0000
  F   F5        1.0  0.37700  0.39700  0.80400  1.0000
  F   F6        1.0  0.87700  0.60300  0.80400  1.0000
  F   F7        1.0  0.84600  0.25300  0.98400  1.0000
  F   F8        1.0  0.34600  0.74700  0.98400  1.0000
  O   O1        1.0  0.37200  0.09590  0.10500  1.0000
  O   O2        1.0  0.87200  0.90400  0.10500  1.0000
  O   O3        1.0  0.12800  0.09590  0.60500  1.0000
  O   O4        1.0  0.62800  0.90400  0.60500  1.0000
  W   W1        1.0  0.00146  0.13100  0.28900  1.0000
  W   W2        1.0  0.50100  0.86900  0.28900  1.0000
  W   W3        1.0  0.49900  0.13100  0.78900  1.0000
  W   W4        1.0  0.99900  0.86900  0.78900  1.0000
