data_image0
_chemical_formula_structural       Os5Rb2
_chemical_formula_sum              "Os5 Rb2"
_cell_length_a       11.0403
_cell_length_b       11.0403
_cell_length_c       11.0403
_cell_angle_alpha    23.0059
_cell_angle_beta     23.0059
_cell_angle_gamma    23.0059

_space_group_name_H-M_alt    "P 1"
_space_group_IT_number       1

loop_
  _space_group_symop_operation_xyz
  'x, y, z'

loop_
  _atom_site_type_symbol
  _atom_site_label
  _atom_site_symmetry_multiplicity
  _atom_site_fract_x
  _atom_site_fract_y
  _atom_site_fract_z
  _atom_site_occupancy
  Os  Os1       1.0  0.33900  0.33900  0.33900  1.0000
  Os  Os2       1.0  0.57500  0.57500  0.57500  1.0000
  Os  Os3       1.0  0.64700  0.64700  0.64700  1.0000
  Os  Os4       1.0  0.91300  0.91300  0.91300  1.0000
  Os  Os5       1.0  0.98600  0.98600  0.98600  1.0000
  Rb  Rb1       1.0  0.16800  0.16800  0.16800  1.0000
  Rb  Rb2       1.0  0.74700  0.74700  0.74700  1.0000
