data_image0
_chemical_formula_structural       Fe2K2Ru3
_chemical_formula_sum              "Fe2 K2 Ru3"
_cell_length_a       11.9377
_cell_length_b       11.9377
_cell_length_c       11.9377
_cell_angle_alpha    20.2745
_cell_angle_beta     20.2745
_cell_angle_gamma    20.2745

_space_group_name_H-M_alt    "P 1"
_space_group_IT_number       1

loop_
  _space_group_symop_operation_xyz
  'x, y, z'

loop_
  _atom_site_type_symbol
  _atom_site_label
  _atom_site_symmetry_multiplicity
  _atom_site_fract_x
  _atom_site_fract_y
  _atom_site_fract_z
  _atom_site_occupancy
  Fe  Fe1       1.0  0.58900  0.58900  0.58900  1.0000
  Fe  Fe2       1.0  0.98600  0.98600  0.98600  1.0000
  K   K1        1.0  0.18400  0.18400  0.18400  1.0000
  K   K2        1.0  0.74100  0.74100  0.74100  1.0000
  Ru  Ru1       1.0  0.30000  0.30000  0.30000  1.0000
  Ru  Ru2       1.0  0.65300  0.65300  0.65300  1.0000
  Ru  Ru3       1.0  0.92200  0.92200  0.92200  1.0000
