data_image0
_chemical_formula_structural       Fe3Mo2Y2
_chemical_formula_sum              "Fe3 Mo2 Y2"
_cell_length_a       7.34282
_cell_length_b       7.34282
_cell_length_c       7.34282
_cell_angle_alpha    35.3682
_cell_angle_beta     35.3682
_cell_angle_gamma    35.3682

_space_group_name_H-M_alt    "P 1"
_space_group_IT_number       1

loop_
  _space_group_symop_operation_xyz
  'x, y, z'

loop_
  _atom_site_type_symbol
  _atom_site_label
  _atom_site_symmetry_multiplicity
  _atom_site_fract_x
  _atom_site_fract_y
  _atom_site_fract_z
  _atom_site_occupancy
  Fe  Fe1       1.0  0.37400  0.37400  0.37400  1.0000
  Fe  Fe2       1.0  0.62500  0.62500  0.62500  1.0000
  Fe  Fe3       1.0  0.88300  0.88300  0.88300  1.0000
  Mo  Mo1       1.0  0.49800  0.49800  0.49800  1.0000
  Mo  Mo2       1.0  0.99900  0.99900  0.99900  1.0000
  Y   Y1        1.0  0.24000  0.24000  0.24000  1.0000
  Y   Y2        1.0  0.75600  0.75600  0.75600  1.0000
