data_image0
_chemical_formula_structural       F8O4Sn4
_chemical_formula_sum              "F8 O4 Sn4"
_cell_length_a       5.15118
_cell_length_b       7.33205
_cell_length_c       5.14937
_cell_angle_alpha    90
_cell_angle_beta     90
_cell_angle_gamma    90

_space_group_name_H-M_alt    "P 1"
_space_group_IT_number       1

loop_
  _space_group_symop_operation_xyz
  'x, y, z'

loop_
  _atom_site_type_symbol
  _atom_site_label
  _atom_site_symmetry_multiplicity
  _atom_site_fract_x
  _atom_site_fract_y
  _atom_site_fract_z
  _atom_site_occupancy
  F   F1        1.0  0.17800  0.40200  0.33100  1.0000
  F   F2        1.0  0.67800  0.59800  0.33100  1.0000
  F   F3        1.0  0.67900  0.26800  0.45000  1.0000
  F   F4        1.0  0.17900  0.73200  0.45000  1.0000
  F   F5        1.0  0.32200  0.40200  0.83100  1.0000
  F   F6        1.0  0.82200  0.59800  0.83100  1.0000
  F   F7        1.0  0.82100  0.26800  0.95000  1.0000
  F   F8        1.0  0.32100  0.73200  0.95000  1.0000
  O   O1        1.0  0.35600  0.06520  0.12500  1.0000
  O   O2        1.0  0.85600  0.93500  0.12500  1.0000
  O   O3        1.0  0.14400  0.06520  0.62500  1.0000
  O   O4        1.0  0.64400  0.93500  0.62500  1.0000
  Sn  Sn1       1.0  0.01260  0.17300  0.27600  1.0000
  Sn  Sn2       1.0  0.51300  0.82700  0.27600  1.0000
  Sn  Sn3       1.0  0.48700  0.17300  0.77600  1.0000
  Sn  Sn4       1.0  0.98700  0.82700  0.77600  1.0000
