data_image0
_chemical_formula_structural       F8O4Pb4
_chemical_formula_sum              "F8 O4 Pb4"
_cell_length_a       5.38436
_cell_length_b       7.49635
_cell_length_c       5.45044
_cell_angle_alpha    90
_cell_angle_beta     90
_cell_angle_gamma    90

_space_group_name_H-M_alt    "P 1"
_space_group_IT_number       1

loop_
  _space_group_symop_operation_xyz
  'x, y, z'

loop_
  _atom_site_type_symbol
  _atom_site_label
  _atom_site_symmetry_multiplicity
  _atom_site_fract_x
  _atom_site_fract_y
  _atom_site_fract_z
  _atom_site_occupancy
  F   F1        1.0  0.18700  0.39800  0.36700  1.0000
  F   F2        1.0  0.68700  0.60200  0.36700  1.0000
  F   F3        1.0  0.67400  0.27400  0.43400  1.0000
  F   F4        1.0  0.17400  0.72600  0.43400  1.0000
  F   F5        1.0  0.31300  0.39800  0.86700  1.0000
  F   F6        1.0  0.81300  0.60200  0.86700  1.0000
  F   F7        1.0  0.82600  0.27400  0.93400  1.0000
  F   F8        1.0  0.32600  0.72600  0.93400  1.0000
  O   O1        1.0  0.35600  0.06340  0.11700  1.0000
  O   O2        1.0  0.85600  0.93700  0.11700  1.0000
  O   O3        1.0  0.14400  0.06340  0.61700  1.0000
  O   O4        1.0  0.64400  0.93700  0.61700  1.0000
  Pb  Pb1       1.0  0.01130  0.17600  0.26400  1.0000
  Pb  Pb2       1.0  0.51100  0.82400  0.26400  1.0000
  Pb  Pb3       1.0  0.48900  0.17600  0.76400  1.0000
  Pb  Pb4       1.0  0.98900  0.82400  0.76400  1.0000
