data_image0
_chemical_formula_structural       Mg4Pt2
_chemical_formula_sum              "Mg4 Pt2"
_cell_length_a       5.30939
_cell_length_b       5.30939
_cell_length_c       5.30939
_cell_angle_alpha    115.472
_cell_angle_beta     106.557
_cell_angle_gamma    106.557

_space_group_name_H-M_alt    "P 1"
_space_group_IT_number       1

loop_
  _space_group_symop_operation_xyz
  'x, y, z'

loop_
  _atom_site_type_symbol
  _atom_site_label
  _atom_site_symmetry_multiplicity
  _atom_site_fract_x
  _atom_site_fract_y
  _atom_site_fract_z
  _atom_site_occupancy
  Mg  Mg1       1.0  0.50000  0.31500  0.18500  1.0000
  Mg  Mg2       1.0  0.13100  0.81500  0.31500  1.0000
  Mg  Mg3       1.0  0.86900  0.18500  0.68500  1.0000
  Mg  Mg4       1.0  0.50000  0.68500  0.81500  1.0000
  Pt  Pt1       1.0  0.00000  0.25000  0.25000  1.0000
  Pt  Pt2       1.0  0.00000  0.75000  0.75000  1.0000
