data_image0
_chemical_formula_structural       F2OTh
_chemical_formula_sum              "F2 O1 Th1"
_cell_length_a       3.84115
_cell_length_b       4.2938
_cell_length_c       5.09737
_cell_angle_alpha    114.909
_cell_angle_beta     112.134
_cell_angle_gamma    90

_space_group_name_H-M_alt    "P 1"
_space_group_IT_number       1

loop_
  _space_group_symop_operation_xyz
  'x, y, z'

loop_
  _atom_site_type_symbol
  _atom_site_label
  _atom_site_symmetry_multiplicity
  _atom_site_fract_x
  _atom_site_fract_y
  _atom_site_fract_z
  _atom_site_occupancy
  F   F1        1.0  0.66600  0.16600  0.33200  1.0000
  F   F2        1.0  0.33400  0.83400  0.66800  1.0000
  O   O1        1.0  0.00000  0.50000  0.00000  1.0000
  Th  Th1       1.0  0.00000  0.00000  0.00000  1.0000
