data_image0
_chemical_formula_structural       Os3Re2Sr2
_chemical_formula_sum              "Os3 Re2 Sr2"
_cell_length_a       7.70825
_cell_length_b       7.70825
_cell_length_c       7.70825
_cell_angle_alpha    35.2182
_cell_angle_beta     35.2182
_cell_angle_gamma    35.2182

_space_group_name_H-M_alt    "P 1"
_space_group_IT_number       1

loop_
  _space_group_symop_operation_xyz
  'x, y, z'

loop_
  _atom_site_type_symbol
  _atom_site_label
  _atom_site_symmetry_multiplicity
  _atom_site_fract_x
  _atom_site_fract_y
  _atom_site_fract_z
  _atom_site_occupancy
  Os  Os1       1.0  0.37900  0.37900  0.37900  1.0000
  Os  Os2       1.0  0.62700  0.62700  0.62700  1.0000
  Os  Os3       1.0  0.88200  0.88200  0.88200  1.0000
  Re  Re1       1.0  0.49600  0.49600  0.49600  1.0000
  Re  Re2       1.0  0.99600  0.99600  0.99600  1.0000
  Sr  Sr1       1.0  0.23700  0.23700  0.23700  1.0000
  Sr  Sr2       1.0  0.75700  0.75700  0.75700  1.0000
