data_image0
_chemical_formula_structural       P4V2
_chemical_formula_sum              "P4 V2"
_cell_length_a       3.10063
_cell_length_b       4.49986
_cell_length_c       6.47712
_cell_angle_alpha    91.3235
_cell_angle_beta     103.848
_cell_angle_gamma    110.153

_space_group_name_H-M_alt    "P 1"
_space_group_IT_number       1

loop_
  _space_group_symop_operation_xyz
  'x, y, z'

loop_
  _atom_site_type_symbol
  _atom_site_label
  _atom_site_symmetry_multiplicity
  _atom_site_fract_x
  _atom_site_fract_y
  _atom_site_fract_z
  _atom_site_occupancy
  P   P1        1.0  0.88700  0.74400  0.02990  1.0000
  P   P2        1.0  0.80000  0.20100  0.40000  1.0000
  P   P3        1.0  0.20000  0.79900  0.60000  1.0000
  P   P4        1.0  0.11300  0.25600  0.97000  1.0000
  V   V1        1.0  0.45900  0.61500  0.30200  1.0000
  V   V2        1.0  0.54100  0.38500  0.69800  1.0000
