data_image0
_chemical_formula_structural       Cr2Fe3La2
_chemical_formula_sum              "Cr2 Fe3 La2"
_cell_length_a       8.02629
_cell_length_b       8.02629
_cell_length_c       8.02629
_cell_angle_alpha    31.3673
_cell_angle_beta     31.3673
_cell_angle_gamma    31.3673

_space_group_name_H-M_alt    "P 1"
_space_group_IT_number       1

loop_
  _space_group_symop_operation_xyz
  'x, y, z'

loop_
  _atom_site_type_symbol
  _atom_site_label
  _atom_site_symmetry_multiplicity
  _atom_site_fract_x
  _atom_site_fract_y
  _atom_site_fract_z
  _atom_site_occupancy
  Cr  Cr1       1.0  0.50500  0.50500  0.50500  1.0000
  Cr  Cr2       1.0  0.99500  0.99500  0.99500  1.0000
  Fe  Fe1       1.0  0.35600  0.35600  0.35600  1.0000
  Fe  Fe2       1.0  0.63300  0.63300  0.63300  1.0000
  Fe  Fe3       1.0  0.89600  0.89600  0.89600  1.0000
  La  La1       1.0  0.23600  0.23600  0.23600  1.0000
  La  La2       1.0  0.75500  0.75500  0.75500  1.0000
