data_image0
_chemical_formula_structural       Cr2La2Os3
_chemical_formula_sum              "Cr2 La2 Os3"
_cell_length_a       7.493
_cell_length_b       7.493
_cell_length_c       7.493
_cell_angle_alpha    36.3396
_cell_angle_beta     36.3396
_cell_angle_gamma    36.3396

_space_group_name_H-M_alt    "P 1"
_space_group_IT_number       1

loop_
  _space_group_symop_operation_xyz
  'x, y, z'

loop_
  _atom_site_type_symbol
  _atom_site_label
  _atom_site_symmetry_multiplicity
  _atom_site_fract_x
  _atom_site_fract_y
  _atom_site_fract_z
  _atom_site_occupancy
  Cr  Cr1       1.0  0.00074  0.00074  0.00074  1.0000
  Cr  Cr2       1.0  0.49500  0.49500  0.49500  1.0000
  La  La1       1.0  0.23100  0.23100  0.23100  1.0000
  La  La2       1.0  0.75800  0.75800  0.75800  1.0000
  Os  Os1       1.0  0.37600  0.37600  0.37600  1.0000
  Os  Os2       1.0  0.62700  0.62700  0.62700  1.0000
  Os  Os3       1.0  0.88800  0.88800  0.88800  1.0000
