data_image0
_chemical_formula_structural       F8O4Pt4
_chemical_formula_sum              "F8 O4 Pt4"
_cell_length_a       4.90457
_cell_length_b       7.23058
_cell_length_c       4.99127
_cell_angle_alpha    90
_cell_angle_beta     90
_cell_angle_gamma    90

_space_group_name_H-M_alt    "P 1"
_space_group_IT_number       1

loop_
  _space_group_symop_operation_xyz
  'x, y, z'

loop_
  _atom_site_type_symbol
  _atom_site_label
  _atom_site_symmetry_multiplicity
  _atom_site_fract_x
  _atom_site_fract_y
  _atom_site_fract_z
  _atom_site_occupancy
  F   F1        1.0  0.15900  0.39600  0.38000  1.0000
  F   F2        1.0  0.65900  0.60400  0.38000  1.0000
  F   F3        1.0  0.66400  0.27400  0.42700  1.0000
  F   F4        1.0  0.16400  0.72600  0.42700  1.0000
  F   F5        1.0  0.34100  0.39600  0.88000  1.0000
  F   F6        1.0  0.84100  0.60400  0.88000  1.0000
  F   F7        1.0  0.83600  0.27400  0.92700  1.0000
  F   F8        1.0  0.33600  0.72600  0.92700  1.0000
  O   O1        1.0  0.36400  0.07970  0.11700  1.0000
  O   O2        1.0  0.86400  0.92000  0.11700  1.0000
  O   O3        1.0  0.13600  0.07970  0.61700  1.0000
  O   O4        1.0  0.63600  0.92000  0.61700  1.0000
  Pt  Pt1       1.0  0.00767  0.16700  0.25800  1.0000
  Pt  Pt2       1.0  0.50800  0.83300  0.25800  1.0000
  Pt  Pt3       1.0  0.49200  0.16700  0.75800  1.0000
  Pt  Pt4       1.0  0.99200  0.83300  0.75800  1.0000
