data_image0
_chemical_formula_structural       La2Os3W2
_chemical_formula_sum              "La2 Os3 W2"
_cell_length_a       7.79215
_cell_length_b       7.79215
_cell_length_c       7.79215
_cell_angle_alpha    35.4968
_cell_angle_beta     35.4968
_cell_angle_gamma    35.4968

_space_group_name_H-M_alt    "P 1"
_space_group_IT_number       1

loop_
  _space_group_symop_operation_xyz
  'x, y, z'

loop_
  _atom_site_type_symbol
  _atom_site_label
  _atom_site_symmetry_multiplicity
  _atom_site_fract_x
  _atom_site_fract_y
  _atom_site_fract_z
  _atom_site_occupancy
  La  La1       1.0  0.23600  0.23600  0.23600  1.0000
  La  La2       1.0  0.75600  0.75600  0.75600  1.0000
  Os  Os1       1.0  0.37800  0.37800  0.37800  1.0000
  Os  Os2       1.0  0.62700  0.62700  0.62700  1.0000
  Os  Os3       1.0  0.88200  0.88200  0.88200  1.0000
  W   W1        1.0  0.49800  0.49800  0.49800  1.0000
  W   W2        1.0  0.99700  0.99700  0.99700  1.0000
