data_image0
_chemical_formula_structural       F8O4Ru4
_chemical_formula_sum              "F8 O4 Ru4"
_cell_length_a       4.90294
_cell_length_b       7.12762
_cell_length_c       4.90557
_cell_angle_alpha    90
_cell_angle_beta     90
_cell_angle_gamma    90

_space_group_name_H-M_alt    "P 1"
_space_group_IT_number       1

loop_
  _space_group_symop_operation_xyz
  'x, y, z'

loop_
  _atom_site_type_symbol
  _atom_site_label
  _atom_site_symmetry_multiplicity
  _atom_site_fract_x
  _atom_site_fract_y
  _atom_site_fract_z
  _atom_site_occupancy
  F   F1        1.0  0.14300  0.39800  0.37000  1.0000
  F   F2        1.0  0.64300  0.60200  0.37000  1.0000
  F   F3        1.0  0.65300  0.26100  0.42100  1.0000
  F   F4        1.0  0.15300  0.73900  0.42100  1.0000
  F   F5        1.0  0.35700  0.39800  0.87000  1.0000
  F   F6        1.0  0.85700  0.60200  0.87000  1.0000
  F   F7        1.0  0.84700  0.26100  0.92100  1.0000
  F   F8        1.0  0.34700  0.73900  0.92100  1.0000
  O   O1        1.0  0.34900  0.07100  0.12100  1.0000
  O   O2        1.0  0.84900  0.92900  0.12100  1.0000
  O   O3        1.0  0.15100  0.07100  0.62100  1.0000
  O   O4        1.0  0.65100  0.92900  0.62100  1.0000
  Ru  Ru1       1.0  0.01140  0.16300  0.26900  1.0000
  Ru  Ru2       1.0  0.51100  0.83700  0.26900  1.0000
  Ru  Ru3       1.0  0.48900  0.16300  0.76900  1.0000
  Ru  Ru4       1.0  0.98900  0.83700  0.76900  1.0000
