data_image0
_chemical_formula_structural       La2Mo2Os3
_chemical_formula_sum              "La2 Mo2 Os3"
_cell_length_a       7.76523
_cell_length_b       7.76523
_cell_length_c       7.76523
_cell_angle_alpha    35.502
_cell_angle_beta     35.502
_cell_angle_gamma    35.502

_space_group_name_H-M_alt    "P 1"
_space_group_IT_number       1

loop_
  _space_group_symop_operation_xyz
  'x, y, z'

loop_
  _atom_site_type_symbol
  _atom_site_label
  _atom_site_symmetry_multiplicity
  _atom_site_fract_x
  _atom_site_fract_y
  _atom_site_fract_z
  _atom_site_occupancy
  La  La1       1.0  0.23700  0.23700  0.23700  1.0000
  La  La2       1.0  0.75700  0.75700  0.75700  1.0000
  Mo  Mo1       1.0  0.49600  0.49600  0.49600  1.0000
  Mo  Mo2       1.0  0.99900  0.99900  0.99900  1.0000
  Os  Os1       1.0  0.37600  0.37600  0.37600  1.0000
  Os  Os2       1.0  0.62800  0.62800  0.62800  1.0000
  Os  Os3       1.0  0.88300  0.88300  0.88300  1.0000
