data_image0
_chemical_formula_structural       F8O4Tc4
_chemical_formula_sum              "F8 O4 Tc4"
_cell_length_a       4.98144
_cell_length_b       7.20776
_cell_length_c       5.0869
_cell_angle_alpha    90
_cell_angle_beta     90
_cell_angle_gamma    90

_space_group_name_H-M_alt    "P 1"
_space_group_IT_number       1

loop_
  _space_group_symop_operation_xyz
  'x, y, z'

loop_
  _atom_site_type_symbol
  _atom_site_label
  _atom_site_symmetry_multiplicity
  _atom_site_fract_x
  _atom_site_fract_y
  _atom_site_fract_z
  _atom_site_occupancy
  F   F1        1.0  0.16200  0.40100  0.35000  1.0000
  F   F2        1.0  0.66200  0.59900  0.35000  1.0000
  F   F3        1.0  0.66800  0.26700  0.44400  1.0000
  F   F4        1.0  0.16800  0.73300  0.44400  1.0000
  F   F5        1.0  0.33800  0.40100  0.85000  1.0000
  F   F6        1.0  0.83800  0.59900  0.85000  1.0000
  F   F7        1.0  0.83200  0.26700  0.94400  1.0000
  F   F8        1.0  0.33200  0.73300  0.94400  1.0000
  O   O1        1.0  0.34800  0.07330  0.11400  1.0000
  O   O2        1.0  0.84800  0.92700  0.11400  1.0000
  O   O3        1.0  0.15200  0.07330  0.61400  1.0000
  O   O4        1.0  0.65200  0.92700  0.61400  1.0000
  Tc  Tc1       1.0  0.01250  0.17000  0.27300  1.0000
  Tc  Tc2       1.0  0.51200  0.83000  0.27300  1.0000
  Tc  Tc3       1.0  0.48800  0.17000  0.77300  1.0000
  Tc  Tc4       1.0  0.98800  0.83000  0.77300  1.0000
