data_image0
_chemical_formula_structural       Ge4Pt2
_chemical_formula_sum              "Ge4 Pt2"
_cell_length_a       6.27299
_cell_length_b       5.81341
_cell_length_c       2.98295
_cell_angle_alpha    90
_cell_angle_beta     90
_cell_angle_gamma    90

_space_group_name_H-M_alt    "P 1"
_space_group_IT_number       1

loop_
  _space_group_symop_operation_xyz
  'x, y, z'

loop_
  _atom_site_type_symbol
  _atom_site_label
  _atom_site_symmetry_multiplicity
  _atom_site_fract_x
  _atom_site_fract_y
  _atom_site_fract_z
  _atom_site_occupancy
  Ge  Ge1       1.0  0.62800  0.16800  0.00000  1.0000
  Ge  Ge2       1.0  0.37200  0.83200  0.00000  1.0000
  Ge  Ge3       1.0  0.12800  0.33200  0.50000  1.0000
  Ge  Ge4       1.0  0.87200  0.66800  0.50000  1.0000
  Pt  Pt1       1.0  0.00000  0.00000  0.00000  1.0000
  Pt  Pt2       1.0  0.50000  0.50000  0.50000  1.0000
