data_image0
_chemical_formula_structural       Ca2Mn2Os3
_chemical_formula_sum              "Ca2 Mn2 Os3"
_cell_length_a       8.4191
_cell_length_b       8.4191
_cell_length_c       8.4191
_cell_angle_alpha    30.5407
_cell_angle_beta     30.5407
_cell_angle_gamma    30.5407

_space_group_name_H-M_alt    "P 1"
_space_group_IT_number       1

loop_
  _space_group_symop_operation_xyz
  'x, y, z'

loop_
  _atom_site_type_symbol
  _atom_site_label
  _atom_site_symmetry_multiplicity
  _atom_site_fract_x
  _atom_site_fract_y
  _atom_site_fract_z
  _atom_site_occupancy
  Ca  Ca1       1.0  0.23100  0.23100  0.23100  1.0000
  Ca  Ca2       1.0  0.76200  0.76200  0.76200  1.0000
  Mn  Mn1       1.0  0.52000  0.52000  0.52000  1.0000
  Mn  Mn2       1.0  0.99300  0.99300  0.99300  1.0000
  Os  Os1       1.0  0.34300  0.34300  0.34300  1.0000
  Os  Os2       1.0  0.64000  0.64000  0.64000  1.0000
  Os  Os3       1.0  0.88600  0.88600  0.88600  1.0000
