data_image0
_chemical_formula_structural       Li4Na2O5
_chemical_formula_sum              "Li4 Na2 O5"
_cell_length_a       4.31623
_cell_length_b       6.76468
_cell_length_c       4.26913
_cell_angle_alpha    71.6063
_cell_angle_beta     90
_cell_angle_gamma    90

_space_group_name_H-M_alt    "P 1"
_space_group_IT_number       1

loop_
  _space_group_symop_operation_xyz
  'x, y, z'

loop_
  _atom_site_type_symbol
  _atom_site_label
  _atom_site_symmetry_multiplicity
  _atom_site_fract_x
  _atom_site_fract_y
  _atom_site_fract_z
  _atom_site_occupancy
  Li  Li1       1.0  0.00000  0.00000  0.00000  1.0000
  Li  Li2       1.0  0.00000  0.36100  0.32000  1.0000
  Li  Li3       1.0  0.50000  0.00000  0.50000  1.0000
  Li  Li4       1.0  0.00000  0.63900  0.68000  1.0000
  Na  Na1       1.0  0.50000  0.65000  0.17500  1.0000
  Na  Na2       1.0  0.50000  0.35000  0.82500  1.0000
  O   O1        1.0  0.50000  0.00000  0.00000  1.0000
  O   O2        1.0  0.00000  0.68500  0.15700  1.0000
  O   O3        1.0  0.50000  0.28500  0.35800  1.0000
  O   O4        1.0  0.50000  0.71500  0.64200  1.0000
  O   O5        1.0  0.00000  0.31500  0.84300  1.0000
