data_image0
_chemical_formula_structural       Cs2Os2Ru3
_chemical_formula_sum              "Cs2 Os2 Ru3"
_cell_length_a       12.5475
_cell_length_b       12.5475
_cell_length_c       12.5475
_cell_angle_alpha    20.0835
_cell_angle_beta     20.0835
_cell_angle_gamma    20.0835

_space_group_name_H-M_alt    "P 1"
_space_group_IT_number       1

loop_
  _space_group_symop_operation_xyz
  'x, y, z'

loop_
  _atom_site_type_symbol
  _atom_site_label
  _atom_site_symmetry_multiplicity
  _atom_site_fract_x
  _atom_site_fract_y
  _atom_site_fract_z
  _atom_site_occupancy
  Cs  Cs1       1.0  0.17700  0.17700  0.17700  1.0000
  Cs  Cs2       1.0  0.73700  0.73700  0.73700  1.0000
  Os  Os1       1.0  0.58300  0.58300  0.58300  1.0000
  Os  Os2       1.0  0.98100  0.98100  0.98100  1.0000
  Ru  Ru1       1.0  0.33400  0.33400  0.33400  1.0000
  Ru  Ru2       1.0  0.64500  0.64500  0.64500  1.0000
  Ru  Ru3       1.0  0.91800  0.91800  0.91800  1.0000
