data_image0
_chemical_formula_structural       Li4Nb2O5
_chemical_formula_sum              "Li4 Nb2 O5"
_cell_length_a       4.16968
_cell_length_b       6.62047
_cell_length_c       4.21071
_cell_angle_alpha    71.4576
_cell_angle_beta     90
_cell_angle_gamma    90

_space_group_name_H-M_alt    "P 1"
_space_group_IT_number       1

loop_
  _space_group_symop_operation_xyz
  'x, y, z'

loop_
  _atom_site_type_symbol
  _atom_site_label
  _atom_site_symmetry_multiplicity
  _atom_site_fract_x
  _atom_site_fract_y
  _atom_site_fract_z
  _atom_site_occupancy
  Li  Li1       1.0  0.00000  0.00000  0.00000  1.0000
  Li  Li2       1.0  0.00000  0.34900  0.32600  1.0000
  Li  Li3       1.0  0.50000  0.00000  0.50000  1.0000
  Li  Li4       1.0  0.00000  0.65100  0.67400  1.0000
  Nb  Nb1       1.0  0.50000  0.65700  0.17100  1.0000
  Nb  Nb2       1.0  0.50000  0.34300  0.82900  1.0000
  O   O1        1.0  0.50000  0.00000  0.00000  1.0000
  O   O2        1.0  0.00000  0.67200  0.16400  1.0000
  O   O3        1.0  0.50000  0.30300  0.34900  1.0000
  O   O4        1.0  0.50000  0.69700  0.65100  1.0000
  O   O5        1.0  0.00000  0.32800  0.83600  1.0000
