data_image0
_chemical_formula_structural       Ce4F8O4
_chemical_formula_sum              "Ce4 F8 O4"
_cell_length_a       5.62168
_cell_length_b       6.79039
_cell_length_c       5.27435
_cell_angle_alpha    90
_cell_angle_beta     90
_cell_angle_gamma    90

_space_group_name_H-M_alt    "P 1"
_space_group_IT_number       1

loop_
  _space_group_symop_operation_xyz
  'x, y, z'

loop_
  _atom_site_type_symbol
  _atom_site_label
  _atom_site_symmetry_multiplicity
  _atom_site_fract_x
  _atom_site_fract_y
  _atom_site_fract_z
  _atom_site_occupancy
  Ce  Ce1       1.0  0.99400  0.25700  0.40000  1.0000
  Ce  Ce2       1.0  0.49400  0.74300  0.40000  1.0000
  Ce  Ce3       1.0  0.50600  0.25700  0.90000  1.0000
  Ce  Ce4       1.0  0.00614  0.74300  0.90000  1.0000
  F   F1        1.0  0.24800  0.47300  0.15600  1.0000
  F   F2        1.0  0.74800  0.52700  0.15600  1.0000
  F   F3        1.0  0.56500  0.24600  0.41500  1.0000
  F   F4        1.0  0.06510  0.75400  0.41500  1.0000
  F   F5        1.0  0.25200  0.47300  0.65600  1.0000
  F   F6        1.0  0.75200  0.52700  0.65600  1.0000
  F   F7        1.0  0.93500  0.24600  0.91500  1.0000
  F   F8        1.0  0.43500  0.75400  0.91500  1.0000
  O   O1        1.0  0.31100  0.05190  0.21200  1.0000
  O   O2        1.0  0.81100  0.94800  0.21200  1.0000
  O   O3        1.0  0.18900  0.05190  0.71200  1.0000
  O   O4        1.0  0.68900  0.94800  0.71200  1.0000
