data_image0
_chemical_formula_structural       Li4Ni2O5
_chemical_formula_sum              "Li4 Ni2 O5"
_cell_length_a       3.98873
_cell_length_b       6.40417
_cell_length_c       3.93574
_cell_angle_alpha    72.1046
_cell_angle_beta     90
_cell_angle_gamma    90

_space_group_name_H-M_alt    "P 1"
_space_group_IT_number       1

loop_
  _space_group_symop_operation_xyz
  'x, y, z'

loop_
  _atom_site_type_symbol
  _atom_site_label
  _atom_site_symmetry_multiplicity
  _atom_site_fract_x
  _atom_site_fract_y
  _atom_site_fract_z
  _atom_site_occupancy
  Li  Li1       1.0  0.00000  0.00000  0.00000  1.0000
  Li  Li2       1.0  0.00000  0.37100  0.31400  1.0000
  Li  Li3       1.0  0.50000  0.00000  0.50000  1.0000
  Li  Li4       1.0  0.00000  0.62900  0.68600  1.0000
  Ni  Ni1       1.0  0.50000  0.67700  0.16200  1.0000
  Ni  Ni2       1.0  0.50000  0.32300  0.83800  1.0000
  O   O1        1.0  0.50000  0.00000  0.00000  1.0000
  O   O2        1.0  0.00000  0.69300  0.15400  1.0000
  O   O3        1.0  0.50000  0.34400  0.32800  1.0000
  O   O4        1.0  0.50000  0.65600  0.67200  1.0000
  O   O5        1.0  0.00000  0.30700  0.84600  1.0000
