data_image0
_chemical_formula_structural       As2Hf2Ru3
_chemical_formula_sum              "As2 Hf2 Ru3"
_cell_length_a       7.54317
_cell_length_b       7.54317
_cell_length_c       7.54317
_cell_angle_alpha    33.6219
_cell_angle_beta     33.6219
_cell_angle_gamma    33.6219

_space_group_name_H-M_alt    "P 1"
_space_group_IT_number       1

loop_
  _space_group_symop_operation_xyz
  'x, y, z'

loop_
  _atom_site_type_symbol
  _atom_site_label
  _atom_site_symmetry_multiplicity
  _atom_site_fract_x
  _atom_site_fract_y
  _atom_site_fract_z
  _atom_site_occupancy
  As  As1       1.0  0.00556  0.00556  0.00556  1.0000
  As  As2       1.0  0.49500  0.49500  0.49500  1.0000
  Hf  Hf1       1.0  0.24400  0.24400  0.24400  1.0000
  Hf  Hf2       1.0  0.75400  0.75400  0.75400  1.0000
  Ru  Ru1       1.0  0.37200  0.37200  0.37200  1.0000
  Ru  Ru2       1.0  0.62700  0.62700  0.62700  1.0000
  Ru  Ru3       1.0  0.87800  0.87800  0.87800  1.0000
