data_image0
_chemical_formula_structural       Hf2Nb2Ru3
_chemical_formula_sum              "Hf2 Nb2 Ru3"
_cell_length_a       7.73397
_cell_length_b       7.73397
_cell_length_c       7.73397
_cell_angle_alpha    33.6771
_cell_angle_beta     33.6771
_cell_angle_gamma    33.6771

_space_group_name_H-M_alt    "P 1"
_space_group_IT_number       1

loop_
  _space_group_symop_operation_xyz
  'x, y, z'

loop_
  _atom_site_type_symbol
  _atom_site_label
  _atom_site_symmetry_multiplicity
  _atom_site_fract_x
  _atom_site_fract_y
  _atom_site_fract_z
  _atom_site_occupancy
  Hf  Hf1       1.0  0.24500  0.24500  0.24500  1.0000
  Hf  Hf2       1.0  0.75400  0.75400  0.75400  1.0000
  Nb  Nb1       1.0  0.00263  0.00263  0.00263  1.0000
  Nb  Nb2       1.0  0.49700  0.49700  0.49700  1.0000
  Ru  Ru1       1.0  0.37400  0.37400  0.37400  1.0000
  Ru  Ru2       1.0  0.62600  0.62600  0.62600  1.0000
  Ru  Ru3       1.0  0.87700  0.87700  0.87700  1.0000
