data_image0
_chemical_formula_structural       As2Ru3Sn2
_chemical_formula_sum              "As2 Ru3 Sn2"
_cell_length_a       7.86846
_cell_length_b       7.86846
_cell_length_c       7.86846
_cell_angle_alpha    32.2933
_cell_angle_beta     32.2933
_cell_angle_gamma    32.2933

_space_group_name_H-M_alt    "P 1"
_space_group_IT_number       1

loop_
  _space_group_symop_operation_xyz
  'x, y, z'

loop_
  _atom_site_type_symbol
  _atom_site_label
  _atom_site_symmetry_multiplicity
  _atom_site_fract_x
  _atom_site_fract_y
  _atom_site_fract_z
  _atom_site_occupancy
  As  As1       1.0  0.00250  0.00250  0.00250  1.0000
  As  As2       1.0  0.49800  0.49800  0.49800  1.0000
  Ru  Ru1       1.0  0.36900  0.36900  0.36900  1.0000
  Ru  Ru2       1.0  0.62700  0.62700  0.62700  1.0000
  Ru  Ru3       1.0  0.87900  0.87900  0.87900  1.0000
  Sn  Sn1       1.0  0.24400  0.24400  0.24400  1.0000
  Sn  Sn2       1.0  0.75600  0.75600  0.75600  1.0000
