data_image0
_chemical_formula_structural       Ru3Si2Ta2
_chemical_formula_sum              "Ru3 Si2 Ta2"
_cell_length_a       7.36389
_cell_length_b       7.36389
_cell_length_c       7.36389
_cell_angle_alpha    33.6566
_cell_angle_beta     33.6566
_cell_angle_gamma    33.6566

_space_group_name_H-M_alt    "P 1"
_space_group_IT_number       1

loop_
  _space_group_symop_operation_xyz
  'x, y, z'

loop_
  _atom_site_type_symbol
  _atom_site_label
  _atom_site_symmetry_multiplicity
  _atom_site_fract_x
  _atom_site_fract_y
  _atom_site_fract_z
  _atom_site_occupancy
  Ru  Ru1       1.0  0.37300  0.37300  0.37300  1.0000
  Ru  Ru2       1.0  0.62600  0.62600  0.62600  1.0000
  Ru  Ru3       1.0  0.87600  0.87600  0.87600  1.0000
  Si  Si1       1.0  0.00592  0.00592  0.00592  1.0000
  Si  Si2       1.0  0.49500  0.49500  0.49500  1.0000
  Ta  Ta1       1.0  0.24400  0.24400  0.24400  1.0000
  Ta  Ta2       1.0  0.75400  0.75400  0.75400  1.0000
