data_image0
_chemical_formula_structural       Ru3Ta2Ti2
_chemical_formula_sum              "Ru3 Ta2 Ti2"
_cell_length_a       7.52682
_cell_length_b       7.52682
_cell_length_c       7.52682
_cell_angle_alpha    33.7005
_cell_angle_beta     33.7005
_cell_angle_gamma    33.7005

_space_group_name_H-M_alt    "P 1"
_space_group_IT_number       1

loop_
  _space_group_symop_operation_xyz
  'x, y, z'

loop_
  _atom_site_type_symbol
  _atom_site_label
  _atom_site_symmetry_multiplicity
  _atom_site_fract_x
  _atom_site_fract_y
  _atom_site_fract_z
  _atom_site_occupancy
  Ru  Ru1       1.0  0.37400  0.37400  0.37400  1.0000
  Ru  Ru2       1.0  0.62500  0.62500  0.62500  1.0000
  Ru  Ru3       1.0  0.87600  0.87600  0.87600  1.0000
  Ta  Ta1       1.0  0.24600  0.24600  0.24600  1.0000
  Ta  Ta2       1.0  0.75400  0.75400  0.75400  1.0000
  Ti  Ti1       1.0  0.00415  0.00415  0.00415  1.0000
  Ti  Ti2       1.0  0.49600  0.49600  0.49600  1.0000
