data_image0
_chemical_formula_structural       Ga2Li4O5
_chemical_formula_sum              "Ga2 Li4 O5"
_cell_length_a       4.01479
_cell_length_b       6.496
_cell_length_c       4.00288
_cell_angle_alpha    72.055
_cell_angle_beta     90
_cell_angle_gamma    90

_space_group_name_H-M_alt    "P 1"
_space_group_IT_number       1

loop_
  _space_group_symop_operation_xyz
  'x, y, z'

loop_
  _atom_site_type_symbol
  _atom_site_label
  _atom_site_symmetry_multiplicity
  _atom_site_fract_x
  _atom_site_fract_y
  _atom_site_fract_z
  _atom_site_occupancy
  Ga  Ga1       1.0  0.50000  0.68200  0.15900  1.0000
  Ga  Ga2       1.0  0.50000  0.31800  0.84100  1.0000
  Li  Li1       1.0  0.00000  0.00000  0.00000  1.0000
  Li  Li2       1.0  0.00000  0.37200  0.31400  1.0000
  Li  Li3       1.0  0.50000  0.00000  0.50000  1.0000
  Li  Li4       1.0  0.00000  0.62800  0.68600  1.0000
  O   O1        1.0  0.50000  0.00000  0.00000  1.0000
  O   O2        1.0  0.00000  0.69000  0.15500  1.0000
  O   O3        1.0  0.50000  0.34500  0.32700  1.0000
  O   O4        1.0  0.50000  0.65500  0.67300  1.0000
  O   O5        1.0  0.00000  0.31000  0.84500  1.0000
