data_image0
_chemical_formula_structural       Cr2Ga2Os3
_chemical_formula_sum              "Cr2 Ga2 Os3"
_cell_length_a       7.12644
_cell_length_b       7.12644
_cell_length_c       7.12644
_cell_angle_alpha    34.3832
_cell_angle_beta     34.3832
_cell_angle_gamma    34.3832

_space_group_name_H-M_alt    "P 1"
_space_group_IT_number       1

loop_
  _space_group_symop_operation_xyz
  'x, y, z'

loop_
  _atom_site_type_symbol
  _atom_site_label
  _atom_site_symmetry_multiplicity
  _atom_site_fract_x
  _atom_site_fract_y
  _atom_site_fract_z
  _atom_site_occupancy
  Cr  Cr1       1.0  0.24100  0.24100  0.24100  1.0000
  Cr  Cr2       1.0  0.75600  0.75600  0.75600  1.0000
  Ga  Ga1       1.0  0.01620  0.01620  0.01620  1.0000
  Ga  Ga2       1.0  0.49300  0.49300  0.49300  1.0000
  Os  Os1       1.0  0.37000  0.37000  0.37000  1.0000
  Os  Os2       1.0  0.62300  0.62300  0.62300  1.0000
  Os  Os3       1.0  0.87500  0.87500  0.87500  1.0000
