data_image0
_chemical_formula_structural       Cr2Li4O5
_chemical_formula_sum              "Cr2 Li4 O5"
_cell_length_a       4.04837
_cell_length_b       6.49962
_cell_length_c       4.02391
_cell_angle_alpha    71.9679
_cell_angle_beta     90
_cell_angle_gamma    90

_space_group_name_H-M_alt    "P 1"
_space_group_IT_number       1

loop_
  _space_group_symop_operation_xyz
  'x, y, z'

loop_
  _atom_site_type_symbol
  _atom_site_label
  _atom_site_symmetry_multiplicity
  _atom_site_fract_x
  _atom_site_fract_y
  _atom_site_fract_z
  _atom_site_occupancy
  Cr  Cr1       1.0  0.50000  0.67900  0.16000  1.0000
  Cr  Cr2       1.0  0.50000  0.32100  0.84000  1.0000
  Li  Li1       1.0  0.00000  0.00000  0.00000  1.0000
  Li  Li2       1.0  0.00000  0.37000  0.31500  1.0000
  Li  Li3       1.0  0.50000  0.00000  0.50000  1.0000
  Li  Li4       1.0  0.00000  0.63000  0.68500  1.0000
  O   O1        1.0  0.50000  0.00000  0.00000  1.0000
  O   O2        1.0  0.00000  0.69000  0.15500  1.0000
  O   O3        1.0  0.50000  0.34400  0.32800  1.0000
  O   O4        1.0  0.50000  0.65600  0.67200  1.0000
  O   O5        1.0  0.00000  0.31000  0.84500  1.0000
