data_image0
_chemical_formula_structural       F8Ir4O4
_chemical_formula_sum              "F8 Ir4 O4"
_cell_length_a       4.92044
_cell_length_b       7.1693
_cell_length_c       4.96023
_cell_angle_alpha    90
_cell_angle_beta     90
_cell_angle_gamma    90

_space_group_name_H-M_alt    "P 1"
_space_group_IT_number       1

loop_
  _space_group_symop_operation_xyz
  'x, y, z'

loop_
  _atom_site_type_symbol
  _atom_site_label
  _atom_site_symmetry_multiplicity
  _atom_site_fract_x
  _atom_site_fract_y
  _atom_site_fract_z
  _atom_site_occupancy
  F   F1        1.0  0.14500  0.39900  0.37700  1.0000
  F   F2        1.0  0.64500  0.60100  0.37700  1.0000
  F   F3        1.0  0.65600  0.26500  0.42300  1.0000
  F   F4        1.0  0.15600  0.73500  0.42300  1.0000
  F   F5        1.0  0.35500  0.39900  0.87700  1.0000
  F   F6        1.0  0.85500  0.60100  0.87700  1.0000
  F   F7        1.0  0.84400  0.26500  0.92300  1.0000
  F   F8        1.0  0.34400  0.73500  0.92300  1.0000
  Ir  Ir1       1.0  0.00987  0.16400  0.26600  1.0000
  Ir  Ir2       1.0  0.51000  0.83600  0.26600  1.0000
  Ir  Ir3       1.0  0.49000  0.16400  0.76600  1.0000
  Ir  Ir4       1.0  0.99000  0.83600  0.76600  1.0000
  O   O1        1.0  0.35100  0.07170  0.11600  1.0000
  O   O2        1.0  0.85100  0.92800  0.11600  1.0000
  O   O3        1.0  0.14900  0.07170  0.61600  1.0000
  O   O4        1.0  0.64900  0.92800  0.61600  1.0000
