data_image0
_chemical_formula_structural       Hf2Li4O5
_chemical_formula_sum              "Hf2 Li4 O5"
_cell_length_a       4.17992
_cell_length_b       6.76334
_cell_length_c       4.2732
_cell_angle_alpha    71.5843
_cell_angle_beta     90
_cell_angle_gamma    90

_space_group_name_H-M_alt    "P 1"
_space_group_IT_number       1

loop_
  _space_group_symop_operation_xyz
  'x, y, z'

loop_
  _atom_site_type_symbol
  _atom_site_label
  _atom_site_symmetry_multiplicity
  _atom_site_fract_x
  _atom_site_fract_y
  _atom_site_fract_z
  _atom_site_occupancy
  Hf  Hf1       1.0  0.50000  0.67400  0.16300  1.0000
  Hf  Hf2       1.0  0.50000  0.32600  0.83700  1.0000
  Li  Li1       1.0  0.00000  0.00000  0.00000  1.0000
  Li  Li2       1.0  0.00000  0.33300  0.33300  1.0000
  Li  Li3       1.0  0.50000  0.00000  0.50000  1.0000
  Li  Li4       1.0  0.00000  0.66700  0.66700  1.0000
  O   O1        1.0  0.50000  0.00000  0.00000  1.0000
  O   O2        1.0  0.00000  0.66700  0.16600  1.0000
  O   O3        1.0  0.50000  0.32600  0.33700  1.0000
  O   O4        1.0  0.50000  0.67400  0.66300  1.0000
  O   O5        1.0  0.00000  0.33300  0.83400  1.0000
