data_image0
_chemical_formula_structural       Li4Mg2O5
_chemical_formula_sum              "Li4 Mg2 O5"
_cell_length_a       4.09128
_cell_length_b       6.55989
_cell_length_c       4.05942
_cell_angle_alpha    71.9762
_cell_angle_beta     90
_cell_angle_gamma    90

_space_group_name_H-M_alt    "P 1"
_space_group_IT_number       1

loop_
  _space_group_symop_operation_xyz
  'x, y, z'

loop_
  _atom_site_type_symbol
  _atom_site_label
  _atom_site_symmetry_multiplicity
  _atom_site_fract_x
  _atom_site_fract_y
  _atom_site_fract_z
  _atom_site_occupancy
  Li  Li1       1.0  0.00000  0.00000  0.00000  1.0000
  Li  Li2       1.0  0.00000  0.37100  0.31500  1.0000
  Li  Li3       1.0  0.50000  0.00000  0.50000  1.0000
  Li  Li4       1.0  0.00000  0.62900  0.68500  1.0000
  Mg  Mg1       1.0  0.50000  0.67900  0.16000  1.0000
  Mg  Mg2       1.0  0.50000  0.32100  0.84000  1.0000
  O   O1        1.0  0.50000  0.00000  0.00000  1.0000
  O   O2        1.0  0.00000  0.68600  0.15700  1.0000
  O   O3        1.0  0.50000  0.33300  0.33400  1.0000
  O   O4        1.0  0.50000  0.66700  0.66600  1.0000
  O   O5        1.0  0.00000  0.31400  0.84300  1.0000
