data_image0
_chemical_formula_structural       Li4O5Pd2
_chemical_formula_sum              "Li4 O5 Pd2"
_cell_length_a       4.20057
_cell_length_b       6.61686
_cell_length_c       4.19734
_cell_angle_alpha    71.5081
_cell_angle_beta     90
_cell_angle_gamma    90

_space_group_name_H-M_alt    "P 1"
_space_group_IT_number       1

loop_
  _space_group_symop_operation_xyz
  'x, y, z'

loop_
  _atom_site_type_symbol
  _atom_site_label
  _atom_site_symmetry_multiplicity
  _atom_site_fract_x
  _atom_site_fract_y
  _atom_site_fract_z
  _atom_site_occupancy
  Li  Li1       1.0  0.00000  0.00000  0.00000  1.0000
  Li  Li2       1.0  0.00000  0.37200  0.31400  1.0000
  Li  Li3       1.0  0.50000  0.00000  0.50000  1.0000
  Li  Li4       1.0  0.00000  0.62800  0.68600  1.0000
  O   O1        1.0  0.50000  0.00000  0.00000  1.0000
  O   O2        1.0  0.00000  0.69200  0.15400  1.0000
  O   O3        1.0  0.50000  0.33300  0.33300  1.0000
  O   O4        1.0  0.50000  0.66700  0.66700  1.0000
  O   O5        1.0  0.00000  0.30800  0.84600  1.0000
  Pd  Pd1       1.0  0.50000  0.67300  0.16300  1.0000
  Pd  Pd2       1.0  0.50000  0.32700  0.83700  1.0000
