data_image0
_chemical_formula_structural       F8O4Re4
_chemical_formula_sum              "F8 O4 Re4"
_cell_length_a       4.42145
_cell_length_b       6.77198
_cell_length_c       5.91837
_cell_angle_alpha    90
_cell_angle_beta     90
_cell_angle_gamma    90

_space_group_name_H-M_alt    "P 1"
_space_group_IT_number       1

loop_
  _space_group_symop_operation_xyz
  'x, y, z'

loop_
  _atom_site_type_symbol
  _atom_site_label
  _atom_site_symmetry_multiplicity
  _atom_site_fract_x
  _atom_site_fract_y
  _atom_site_fract_z
  _atom_site_occupancy
  F   F1        1.0  0.15300  0.39300  0.32200  1.0000
  F   F2        1.0  0.65300  0.60700  0.32200  1.0000
  F   F3        1.0  0.66300  0.25900  0.48400  1.0000
  F   F4        1.0  0.16300  0.74100  0.48400  1.0000
  F   F5        1.0  0.34700  0.39300  0.82200  1.0000
  F   F6        1.0  0.84700  0.60700  0.82200  1.0000
  F   F7        1.0  0.83700  0.25900  0.98400  1.0000
  F   F8        1.0  0.33700  0.74100  0.98400  1.0000
  O   O1        1.0  0.36700  0.09200  0.09620  1.0000
  O   O2        1.0  0.86700  0.90800  0.09620  1.0000
  O   O3        1.0  0.13300  0.09200  0.59600  1.0000
  O   O4        1.0  0.63300  0.90800  0.59600  1.0000
  Re  Re1       1.0  0.00356  0.13700  0.28000  1.0000
  Re  Re2       1.0  0.50400  0.86300  0.28000  1.0000
  Re  Re3       1.0  0.49600  0.13700  0.78000  1.0000
  Re  Re4       1.0  0.99600  0.86300  0.78000  1.0000
