data_image0
_chemical_formula_structural       Os3Rb2Ru2
_chemical_formula_sum              "Os3 Rb2 Ru2"
_cell_length_a       12.1215
_cell_length_b       12.1215
_cell_length_c       12.1215
_cell_angle_alpha    19.9657
_cell_angle_beta     19.9657
_cell_angle_gamma    19.9657

_space_group_name_H-M_alt    "P 1"
_space_group_IT_number       1

loop_
  _space_group_symop_operation_xyz
  'x, y, z'

loop_
  _atom_site_type_symbol
  _atom_site_label
  _atom_site_symmetry_multiplicity
  _atom_site_fract_x
  _atom_site_fract_y
  _atom_site_fract_z
  _atom_site_occupancy
  Os  Os1       1.0  0.30700  0.30700  0.30700  1.0000
  Os  Os2       1.0  0.64200  0.64200  0.64200  1.0000
  Os  Os3       1.0  0.92900  0.92900  0.92900  1.0000
  Rb  Rb1       1.0  0.17600  0.17600  0.17600  1.0000
  Rb  Rb2       1.0  0.74200  0.74200  0.74200  1.0000
  Ru  Ru1       1.0  0.00789  0.00789  0.00789  1.0000
  Ru  Ru2       1.0  0.57200  0.57200  0.57200  1.0000
