data_image0
_chemical_formula_structural       Fe2K2Os3
_chemical_formula_sum              "Fe2 K2 Os3"
_cell_length_a       11.7169
_cell_length_b       11.7169
_cell_length_c       11.7169
_cell_angle_alpha    20.7557
_cell_angle_beta     20.7557
_cell_angle_gamma    20.7557

_space_group_name_H-M_alt    "P 1"
_space_group_IT_number       1

loop_
  _space_group_symop_operation_xyz
  'x, y, z'

loop_
  _atom_site_type_symbol
  _atom_site_label
  _atom_site_symmetry_multiplicity
  _atom_site_fract_x
  _atom_site_fract_y
  _atom_site_fract_z
  _atom_site_occupancy
  Fe  Fe1       1.0  0.58700  0.58700  0.58700  1.0000
  Fe  Fe2       1.0  0.98700  0.98700  0.98700  1.0000
  K   K1        1.0  0.18300  0.18300  0.18300  1.0000
  K   K2        1.0  0.74400  0.74400  0.74400  1.0000
  Os  Os1       1.0  0.29900  0.29900  0.29900  1.0000
  Os  Os2       1.0  0.65400  0.65400  0.65400  1.0000
  Os  Os3       1.0  0.92100  0.92100  0.92100  1.0000
