data_image0
_chemical_formula_structural       Bi2Ru3Sn2
_chemical_formula_sum              "Bi2 Ru3 Sn2"
_cell_length_a       8.23336
_cell_length_b       8.23336
_cell_length_c       8.23336
_cell_angle_alpha    32.5151
_cell_angle_beta     32.5151
_cell_angle_gamma    32.5151

_space_group_name_H-M_alt    "P 1"
_space_group_IT_number       1

loop_
  _space_group_symop_operation_xyz
  'x, y, z'

loop_
  _atom_site_type_symbol
  _atom_site_label
  _atom_site_symmetry_multiplicity
  _atom_site_fract_x
  _atom_site_fract_y
  _atom_site_fract_z
  _atom_site_occupancy
  Bi  Bi1       1.0  0.00346  0.00346  0.00346  1.0000
  Bi  Bi2       1.0  0.49700  0.49700  0.49700  1.0000
  Ru  Ru1       1.0  0.36900  0.36900  0.36900  1.0000
  Ru  Ru2       1.0  0.62500  0.62500  0.62500  1.0000
  Ru  Ru3       1.0  0.88100  0.88100  0.88100  1.0000
  Sn  Sn1       1.0  0.24800  0.24800  0.24800  1.0000
  Sn  Sn2       1.0  0.75200  0.75200  0.75200  1.0000
