data_image0
_chemical_formula_structural       Al2Mo2Os3
_chemical_formula_sum              "Al2 Mo2 Os3"
_cell_length_a       7.39637
_cell_length_b       7.39637
_cell_length_c       7.39637
_cell_angle_alpha    33.7313
_cell_angle_beta     33.7313
_cell_angle_gamma    33.7313

_space_group_name_H-M_alt    "P 1"
_space_group_IT_number       1

loop_
  _space_group_symop_operation_xyz
  'x, y, z'

loop_
  _atom_site_type_symbol
  _atom_site_label
  _atom_site_symmetry_multiplicity
  _atom_site_fract_x
  _atom_site_fract_y
  _atom_site_fract_z
  _atom_site_occupancy
  Al  Al1       1.0  0.24200  0.24200  0.24200  1.0000
  Al  Al2       1.0  0.75500  0.75500  0.75500  1.0000
  Mo  Mo1       1.0  0.00445  0.00445  0.00445  1.0000
  Mo  Mo2       1.0  0.49500  0.49500  0.49500  1.0000
  Os  Os1       1.0  0.37500  0.37500  0.37500  1.0000
  Os  Os2       1.0  0.62600  0.62600  0.62600  1.0000
  Os  Os3       1.0  0.87700  0.87700  0.87700  1.0000
