data_image0
_chemical_formula_structural       As2Fe3Pb2
_chemical_formula_sum              "As2 Fe3 Pb2"
_cell_length_a       9.29709
_cell_length_b       9.29709
_cell_length_c       9.29709
_cell_angle_alpha    25.9042
_cell_angle_beta     25.9042
_cell_angle_gamma    25.9042

_space_group_name_H-M_alt    "P 1"
_space_group_IT_number       1

loop_
  _space_group_symop_operation_xyz
  'x, y, z'

loop_
  _atom_site_type_symbol
  _atom_site_label
  _atom_site_symmetry_multiplicity
  _atom_site_fract_x
  _atom_site_fract_y
  _atom_site_fract_z
  _atom_site_occupancy
  As  As1       1.0  0.24300  0.24300  0.24300  1.0000
  As  As2       1.0  0.74400  0.74400  0.74400  1.0000
  Fe  Fe1       1.0  0.39700  0.39700  0.39700  1.0000
  Fe  Fe2       1.0  0.59300  0.59300  0.59300  1.0000
  Fe  Fe3       1.0  0.90100  0.90100  0.90100  1.0000
  Pb  Pb1       1.0  0.00354  0.00354  0.00354  1.0000
  Pb  Pb2       1.0  0.49300  0.49300  0.49300  1.0000
