data_image0
_chemical_formula_structural       Hf2Os3Ta2
_chemical_formula_sum              "Hf2 Os3 Ta2"
_cell_length_a       7.74008
_cell_length_b       7.74008
_cell_length_c       7.74008
_cell_angle_alpha    33.8114
_cell_angle_beta     33.8114
_cell_angle_gamma    33.8114

_space_group_name_H-M_alt    "P 1"
_space_group_IT_number       1

loop_
  _space_group_symop_operation_xyz
  'x, y, z'

loop_
  _atom_site_type_symbol
  _atom_site_label
  _atom_site_symmetry_multiplicity
  _atom_site_fract_x
  _atom_site_fract_y
  _atom_site_fract_z
  _atom_site_occupancy
  Hf  Hf1       1.0  0.24500  0.24500  0.24500  1.0000
  Hf  Hf2       1.0  0.75400  0.75400  0.75400  1.0000
  Os  Os1       1.0  0.37500  0.37500  0.37500  1.0000
  Os  Os2       1.0  0.62600  0.62600  0.62600  1.0000
  Os  Os3       1.0  0.87600  0.87600  0.87600  1.0000
  Ta  Ta1       1.0  0.00236  0.00236  0.00236  1.0000
  Ta  Ta2       1.0  0.49700  0.49700  0.49700  1.0000
