data_image0
_chemical_formula_structural       Bi2Fe3Pb2
_chemical_formula_sum              "Bi2 Fe3 Pb2"
_cell_length_a       8.1799
_cell_length_b       8.1799
_cell_length_c       8.1799
_cell_angle_alpha    34.2978
_cell_angle_beta     34.2978
_cell_angle_gamma    34.2978

_space_group_name_H-M_alt    "P 1"
_space_group_IT_number       1

loop_
  _space_group_symop_operation_xyz
  'x, y, z'

loop_
  _atom_site_type_symbol
  _atom_site_label
  _atom_site_symmetry_multiplicity
  _atom_site_fract_x
  _atom_site_fract_y
  _atom_site_fract_z
  _atom_site_occupancy
  Bi  Bi1       1.0  0.24700  0.24700  0.24700  1.0000
  Bi  Bi2       1.0  0.75200  0.75200  0.75200  1.0000
  Fe  Fe1       1.0  0.36900  0.36900  0.36900  1.0000
  Fe  Fe2       1.0  0.62500  0.62500  0.62500  1.0000
  Fe  Fe3       1.0  0.88200  0.88200  0.88200  1.0000
  Pb  Pb1       1.0  0.00419  0.00419  0.00419  1.0000
  Pb  Pb2       1.0  0.49600  0.49600  0.49600  1.0000
