data_image0
_chemical_formula_structural       Fe3Pb2Sb2
_chemical_formula_sum              "Fe3 Pb2 Sb2"
_cell_length_a       8.66916
_cell_length_b       8.66916
_cell_length_c       8.66916
_cell_angle_alpha    30.5442
_cell_angle_beta     30.5442
_cell_angle_gamma    30.5442

_space_group_name_H-M_alt    "P 1"
_space_group_IT_number       1

loop_
  _space_group_symop_operation_xyz
  'x, y, z'

loop_
  _atom_site_type_symbol
  _atom_site_label
  _atom_site_symmetry_multiplicity
  _atom_site_fract_x
  _atom_site_fract_y
  _atom_site_fract_z
  _atom_site_occupancy
  Fe  Fe1       1.0  0.38000  0.38000  0.38000  1.0000
  Fe  Fe2       1.0  0.59000  0.59000  0.59000  1.0000
  Fe  Fe3       1.0  0.89300  0.89300  0.89300  1.0000
  Pb  Pb1       1.0  0.00802  0.00802  0.00802  1.0000
  Pb  Pb2       1.0  0.48800  0.48800  0.48800  1.0000
  Sb  Sb1       1.0  0.26300  0.26300  0.26300  1.0000
  Sb  Sb2       1.0  0.75200  0.75200  0.75200  1.0000
