data_image0
_chemical_formula_structural       Ir2Li4O5
_chemical_formula_sum              "Ir2 Li4 O5"
_cell_length_a       4.13085
_cell_length_b       6.45548
_cell_length_c       4.26188
_cell_angle_alpha    70.7253
_cell_angle_beta     90
_cell_angle_gamma    90

_space_group_name_H-M_alt    "P 1"
_space_group_IT_number       1

loop_
  _space_group_symop_operation_xyz
  'x, y, z'

loop_
  _atom_site_type_symbol
  _atom_site_label
  _atom_site_symmetry_multiplicity
  _atom_site_fract_x
  _atom_site_fract_y
  _atom_site_fract_z
  _atom_site_occupancy
  Ir  Ir1       1.0  0.50000  0.64500  0.17700  1.0000
  Ir  Ir2       1.0  0.50000  0.35500  0.82300  1.0000
  Li  Li1       1.0  0.00000  0.00000  0.00000  1.0000
  Li  Li2       1.0  0.00000  0.35400  0.32300  1.0000
  Li  Li3       1.0  0.50000  0.00000  0.50000  1.0000
  Li  Li4       1.0  0.00000  0.64600  0.67700  1.0000
  O   O1        1.0  0.50000  0.00000  0.00000  1.0000
  O   O2        1.0  0.00000  0.69300  0.15300  1.0000
  O   O3        1.0  0.50000  0.30200  0.34900  1.0000
  O   O4        1.0  0.50000  0.69800  0.65100  1.0000
  O   O5        1.0  0.00000  0.30700  0.84700  1.0000
