data_image0
_chemical_formula_structural       Ga2Mo2Os3
_chemical_formula_sum              "Ga2 Mo2 Os3"
_cell_length_a       7.3929
_cell_length_b       7.3929
_cell_length_c       7.3929
_cell_angle_alpha    33.8399
_cell_angle_beta     33.8399
_cell_angle_gamma    33.8399

_space_group_name_H-M_alt    "P 1"
_space_group_IT_number       1

loop_
  _space_group_symop_operation_xyz
  'x, y, z'

loop_
  _atom_site_type_symbol
  _atom_site_label
  _atom_site_symmetry_multiplicity
  _atom_site_fract_x
  _atom_site_fract_y
  _atom_site_fract_z
  _atom_site_occupancy
  Ga  Ga1       1.0  0.23800  0.23800  0.23800  1.0000
  Ga  Ga2       1.0  0.75700  0.75700  0.75700  1.0000
  Mo  Mo1       1.0  0.00604  0.00604  0.00604  1.0000
  Mo  Mo2       1.0  0.49500  0.49500  0.49500  1.0000
  Os  Os1       1.0  0.37500  0.37500  0.37500  1.0000
  Os  Os2       1.0  0.62600  0.62600  0.62600  1.0000
  Os  Os3       1.0  0.87800  0.87800  0.87800  1.0000
