data_image0
_chemical_formula_structural       Cr2In2Os3
_chemical_formula_sum              "Cr2 In2 Os3"
_cell_length_a       7.01185
_cell_length_b       7.01185
_cell_length_c       7.01185
_cell_angle_alpha    36.8798
_cell_angle_beta     36.8798
_cell_angle_gamma    36.8798

_space_group_name_H-M_alt    "P 1"
_space_group_IT_number       1

loop_
  _space_group_symop_operation_xyz
  'x, y, z'

loop_
  _atom_site_type_symbol
  _atom_site_label
  _atom_site_symmetry_multiplicity
  _atom_site_fract_x
  _atom_site_fract_y
  _atom_site_fract_z
  _atom_site_occupancy
  Cr  Cr1       1.0  0.22600  0.22600  0.22600  1.0000
  Cr  Cr2       1.0  0.76100  0.76100  0.76100  1.0000
  In  In1       1.0  0.04760  0.04760  0.04760  1.0000
  In  In2       1.0  0.48600  0.48600  0.48600  1.0000
  Os  Os1       1.0  0.34600  0.34600  0.34600  1.0000
  Os  Os2       1.0  0.62600  0.62600  0.62600  1.0000
  Os  Os3       1.0  0.88200  0.88200  0.88200  1.0000
