data_image0
_chemical_formula_structural       F8O4Ti4
_chemical_formula_sum              "F8 O4 Ti4"
_cell_length_a       4.87026
_cell_length_b       7.05508
_cell_length_c       5.01844
_cell_angle_alpha    90
_cell_angle_beta     90
_cell_angle_gamma    90

_space_group_name_H-M_alt    "P 1"
_space_group_IT_number       1

loop_
  _space_group_symop_operation_xyz
  'x, y, z'

loop_
  _atom_site_type_symbol
  _atom_site_label
  _atom_site_symmetry_multiplicity
  _atom_site_fract_x
  _atom_site_fract_y
  _atom_site_fract_z
  _atom_site_occupancy
  F   F1        1.0  0.16200  0.40600  0.30000  1.0000
  F   F2        1.0  0.66200  0.59400  0.30000  1.0000
  F   F3        1.0  0.68600  0.25600  0.46900  1.0000
  F   F4        1.0  0.18600  0.74400  0.46900  1.0000
  F   F5        1.0  0.33800  0.40600  0.80000  1.0000
  F   F6        1.0  0.83800  0.59400  0.80000  1.0000
  F   F7        1.0  0.81400  0.25600  0.96900  1.0000
  F   F8        1.0  0.31400  0.74400  0.96900  1.0000
  O   O1        1.0  0.35300  0.07610  0.12100  1.0000
  O   O2        1.0  0.85300  0.92400  0.12100  1.0000
  O   O3        1.0  0.14700  0.07610  0.62100  1.0000
  O   O4        1.0  0.64700  0.92400  0.62100  1.0000
  Ti  Ti1       1.0  0.02310  0.17500  0.29200  1.0000
  Ti  Ti2       1.0  0.52300  0.82500  0.29200  1.0000
  Ti  Ti3       1.0  0.47700  0.17500  0.79200  1.0000
  Ti  Ti4       1.0  0.97700  0.82500  0.79200  1.0000
