data_image0
_chemical_formula_structural       Li4O5Pt2
_chemical_formula_sum              "Li4 O5 Pt2"
_cell_length_a       4.24529
_cell_length_b       6.6525
_cell_length_c       4.28748
_cell_angle_alpha    71.2012
_cell_angle_beta     90
_cell_angle_gamma    90

_space_group_name_H-M_alt    "P 1"
_space_group_IT_number       1

loop_
  _space_group_symop_operation_xyz
  'x, y, z'

loop_
  _atom_site_type_symbol
  _atom_site_label
  _atom_site_symmetry_multiplicity
  _atom_site_fract_x
  _atom_site_fract_y
  _atom_site_fract_z
  _atom_site_occupancy
  Li  Li1       1.0  0.00000  0.00000  0.00000  1.0000
  Li  Li2       1.0  0.00000  0.37500  0.31200  1.0000
  Li  Li3       1.0  0.50000  0.00000  0.50000  1.0000
  Li  Li4       1.0  0.00000  0.62500  0.68800  1.0000
  O   O1        1.0  0.50000  0.00000  0.00000  1.0000
  O   O2        1.0  0.00000  0.69400  0.15300  1.0000
  O   O3        1.0  0.50000  0.33800  0.33100  1.0000
  O   O4        1.0  0.50000  0.66200  0.66900  1.0000
  O   O5        1.0  0.00000  0.30600  0.84700  1.0000
  Pt  Pt1       1.0  0.50000  0.67400  0.16300  1.0000
  Pt  Pt2       1.0  0.50000  0.32600  0.83700  1.0000
