data_image0
_chemical_formula_structural       Ac2Li4O5
_chemical_formula_sum              "Ac2 Li4 O5"
_cell_length_a       4.84117
_cell_length_b       7.58067
_cell_length_c       4.87944
_cell_angle_alpha    71.2261
_cell_angle_beta     90
_cell_angle_gamma    90

_space_group_name_H-M_alt    "P 1"
_space_group_IT_number       1

loop_
  _space_group_symop_operation_xyz
  'x, y, z'

loop_
  _atom_site_type_symbol
  _atom_site_label
  _atom_site_symmetry_multiplicity
  _atom_site_fract_x
  _atom_site_fract_y
  _atom_site_fract_z
  _atom_site_occupancy
  Ac  Ac1       1.0  0.50000  0.67900  0.16000  1.0000
  Ac  Ac2       1.0  0.50000  0.32100  0.84000  1.0000
  Li  Li1       1.0  0.00000  0.00000  0.00000  1.0000
  Li  Li2       1.0  0.00000  0.37200  0.31400  1.0000
  Li  Li3       1.0  0.50000  0.00000  0.50000  1.0000
  Li  Li4       1.0  0.00000  0.62800  0.68600  1.0000
  O   O1        1.0  0.50000  0.00000  0.00000  1.0000
  O   O2        1.0  0.00000  0.66300  0.16900  1.0000
  O   O3        1.0  0.50000  0.28200  0.35900  1.0000
  O   O4        1.0  0.50000  0.71800  0.64100  1.0000
  O   O5        1.0  0.00000  0.33700  0.83100  1.0000
