data_image0
_chemical_formula_structural       As2Na2Ni3
_chemical_formula_sum              "As2 Na2 Ni3"
_cell_length_a       7.87021
_cell_length_b       7.87021
_cell_length_c       7.87021
_cell_angle_alpha    30.8374
_cell_angle_beta     30.8374
_cell_angle_gamma    30.8374

_space_group_name_H-M_alt    "P 1"
_space_group_IT_number       1

loop_
  _space_group_symop_operation_xyz
  'x, y, z'

loop_
  _atom_site_type_symbol
  _atom_site_label
  _atom_site_symmetry_multiplicity
  _atom_site_fract_x
  _atom_site_fract_y
  _atom_site_fract_z
  _atom_site_occupancy
  As  As1       1.0  0.51700  0.51700  0.51700  1.0000
  As  As2       1.0  0.99400  0.99400  0.99400  1.0000
  Na  Na1       1.0  0.23700  0.23700  0.23700  1.0000
  Na  Na2       1.0  0.76200  0.76200  0.76200  1.0000
  Ni  Ni1       1.0  0.34900  0.34900  0.34900  1.0000
  Ni  Ni2       1.0  0.63100  0.63100  0.63100  1.0000
  Ni  Ni3       1.0  0.88500  0.88500  0.88500  1.0000
