data_image0
_chemical_formula_structural       As2Os3Zr2
_chemical_formula_sum              "As2 Os3 Zr2"
_cell_length_a       7.63908
_cell_length_b       7.63908
_cell_length_c       7.63908
_cell_angle_alpha    33.6416
_cell_angle_beta     33.6416
_cell_angle_gamma    33.6416

_space_group_name_H-M_alt    "P 1"
_space_group_IT_number       1

loop_
  _space_group_symop_operation_xyz
  'x, y, z'

loop_
  _atom_site_type_symbol
  _atom_site_label
  _atom_site_symmetry_multiplicity
  _atom_site_fract_x
  _atom_site_fract_y
  _atom_site_fract_z
  _atom_site_occupancy
  As  As1       1.0  0.00621  0.00621  0.00621  1.0000
  As  As2       1.0  0.49400  0.49400  0.49400  1.0000
  Os  Os1       1.0  0.37100  0.37100  0.37100  1.0000
  Os  Os2       1.0  0.62800  0.62800  0.62800  1.0000
  Os  Os3       1.0  0.87900  0.87900  0.87900  1.0000
  Zr  Zr1       1.0  0.24200  0.24200  0.24200  1.0000
  Zr  Zr2       1.0  0.75500  0.75500  0.75500  1.0000
