data_image0
_chemical_formula_structural       Na2Nb2Pt3
_chemical_formula_sum              "Na2 Nb2 Pt3"
_cell_length_a       7.78288
_cell_length_b       7.78288
_cell_length_c       7.78288
_cell_angle_alpha    33.5995
_cell_angle_beta     33.5995
_cell_angle_gamma    33.5995

_space_group_name_H-M_alt    "P 1"
_space_group_IT_number       1

loop_
  _space_group_symop_operation_xyz
  'x, y, z'

loop_
  _atom_site_type_symbol
  _atom_site_label
  _atom_site_symmetry_multiplicity
  _atom_site_fract_x
  _atom_site_fract_y
  _atom_site_fract_z
  _atom_site_occupancy
  Na  Na1       1.0  0.24300  0.24300  0.24300  1.0000
  Na  Na2       1.0  0.75400  0.75400  0.75400  1.0000
  Nb  Nb1       1.0  0.00096  0.00096  0.00096  1.0000
  Nb  Nb2       1.0  0.49900  0.49900  0.49900  1.0000
  Pt  Pt1       1.0  0.37500  0.37500  0.37500  1.0000
  Pt  Pt2       1.0  0.62600  0.62600  0.62600  1.0000
  Pt  Pt3       1.0  0.87600  0.87600  0.87600  1.0000
