data_image0
_chemical_formula_structural       Li2Ni3Ta2
_chemical_formula_sum              "Li2 Ni3 Ta2"
_cell_length_a       6.98771
_cell_length_b       6.98771
_cell_length_c       6.98771
_cell_angle_alpha    34.1355
_cell_angle_beta     34.1355
_cell_angle_gamma    34.1355

_space_group_name_H-M_alt    "P 1"
_space_group_IT_number       1

loop_
  _space_group_symop_operation_xyz
  'x, y, z'

loop_
  _atom_site_type_symbol
  _atom_site_label
  _atom_site_symmetry_multiplicity
  _atom_site_fract_x
  _atom_site_fract_y
  _atom_site_fract_z
  _atom_site_occupancy
  Li  Li1       1.0  0.24500  0.24500  0.24500  1.0000
  Li  Li2       1.0  0.75300  0.75300  0.75300  1.0000
  Ni  Ni1       1.0  0.37100  0.37100  0.37100  1.0000
  Ni  Ni2       1.0  0.62400  0.62400  0.62400  1.0000
  Ni  Ni3       1.0  0.87900  0.87900  0.87900  1.0000
  Ta  Ta1       1.0  0.00725  0.00725  0.00725  1.0000
  Ta  Ta2       1.0  0.49600  0.49600  0.49600  1.0000
