data_image0
_chemical_formula_structural       Bi2Na2Ni3
_chemical_formula_sum              "Bi2 Na2 Ni3"
_cell_length_a       7.93181
_cell_length_b       7.93181
_cell_length_c       7.93181
_cell_angle_alpha    33.1485
_cell_angle_beta     33.1485
_cell_angle_gamma    33.1485

_space_group_name_H-M_alt    "P 1"
_space_group_IT_number       1

loop_
  _space_group_symop_operation_xyz
  'x, y, z'

loop_
  _atom_site_type_symbol
  _atom_site_label
  _atom_site_symmetry_multiplicity
  _atom_site_fract_x
  _atom_site_fract_y
  _atom_site_fract_z
  _atom_site_occupancy
  Bi  Bi1       1.0  0.00070  0.00070  0.00070  1.0000
  Bi  Bi2       1.0  0.50400  0.50400  0.50400  1.0000
  Na  Na1       1.0  0.24100  0.24100  0.24100  1.0000
  Na  Na2       1.0  0.75700  0.75700  0.75700  1.0000
  Ni  Ni1       1.0  0.36200  0.36200  0.36200  1.0000
  Ni  Ni2       1.0  0.62800  0.62800  0.62800  1.0000
  Ni  Ni3       1.0  0.88200  0.88200  0.88200  1.0000
