data_image0
_chemical_formula_structural       As2Na2Pt3
_chemical_formula_sum              "As2 Na2 Pt3"
_cell_length_a       8.01607
_cell_length_b       8.01607
_cell_length_c       8.01607
_cell_angle_alpha    32.8731
_cell_angle_beta     32.8731
_cell_angle_gamma    32.8731

_space_group_name_H-M_alt    "P 1"
_space_group_IT_number       1

loop_
  _space_group_symop_operation_xyz
  'x, y, z'

loop_
  _atom_site_type_symbol
  _atom_site_label
  _atom_site_symmetry_multiplicity
  _atom_site_fract_x
  _atom_site_fract_y
  _atom_site_fract_z
  _atom_site_occupancy
  As  As1       1.0  0.00141  0.00141  0.00141  1.0000
  As  As2       1.0  0.51800  0.51800  0.51800  1.0000
  Na  Na1       1.0  0.22500  0.22500  0.22500  1.0000
  Na  Na2       1.0  0.76200  0.76200  0.76200  1.0000
  Pt  Pt1       1.0  0.35000  0.35000  0.35000  1.0000
  Pt  Pt2       1.0  0.62800  0.62800  0.62800  1.0000
  Pt  Pt3       1.0  0.89100  0.89100  0.89100  1.0000
