data_image0
_chemical_formula_structural       Os3Si2Ta2
_chemical_formula_sum              "Os3 Si2 Ta2"
_cell_length_a       7.42793
_cell_length_b       7.42793
_cell_length_c       7.42793
_cell_angle_alpha    33.5488
_cell_angle_beta     33.5488
_cell_angle_gamma    33.5488

_space_group_name_H-M_alt    "P 1"
_space_group_IT_number       1

loop_
  _space_group_symop_operation_xyz
  'x, y, z'

loop_
  _atom_site_type_symbol
  _atom_site_label
  _atom_site_symmetry_multiplicity
  _atom_site_fract_x
  _atom_site_fract_y
  _atom_site_fract_z
  _atom_site_occupancy
  Os  Os1       1.0  0.37300  0.37300  0.37300  1.0000
  Os  Os2       1.0  0.62600  0.62600  0.62600  1.0000
  Os  Os3       1.0  0.87600  0.87600  0.87600  1.0000
  Si  Si1       1.0  0.00724  0.00724  0.00724  1.0000
  Si  Si2       1.0  0.49400  0.49400  0.49400  1.0000
  Ta  Ta1       1.0  0.24300  0.24300  0.24300  1.0000
  Ta  Ta2       1.0  0.75500  0.75500  0.75500  1.0000
