data_image0
_chemical_formula_structural       Os3Pb2Ta2
_chemical_formula_sum              "Os3 Pb2 Ta2"
_cell_length_a       7.79403
_cell_length_b       7.79403
_cell_length_c       7.79403
_cell_angle_alpha    33.914
_cell_angle_beta     33.914
_cell_angle_gamma    33.914

_space_group_name_H-M_alt    "P 1"
_space_group_IT_number       1

loop_
  _space_group_symop_operation_xyz
  'x, y, z'

loop_
  _atom_site_type_symbol
  _atom_site_label
  _atom_site_symmetry_multiplicity
  _atom_site_fract_x
  _atom_site_fract_y
  _atom_site_fract_z
  _atom_site_occupancy
  Os  Os1       1.0  0.37100  0.37100  0.37100  1.0000
  Os  Os2       1.0  0.62400  0.62400  0.62400  1.0000
  Os  Os3       1.0  0.87700  0.87700  0.87700  1.0000
  Pb  Pb1       1.0  0.00977  0.00977  0.00977  1.0000
  Pb  Pb2       1.0  0.49400  0.49400  0.49400  1.0000
  Ta  Ta1       1.0  0.24700  0.24700  0.24700  1.0000
  Ta  Ta2       1.0  0.75200  0.75200  0.75200  1.0000
