data_image0
_chemical_formula_structural       Li2Pd3Ta2
_chemical_formula_sum              "Li2 Pd3 Ta2"
_cell_length_a       7.45856
_cell_length_b       7.45856
_cell_length_c       7.45856
_cell_angle_alpha    33.8487
_cell_angle_beta     33.8487
_cell_angle_gamma    33.8487

_space_group_name_H-M_alt    "P 1"
_space_group_IT_number       1

loop_
  _space_group_symop_operation_xyz
  'x, y, z'

loop_
  _atom_site_type_symbol
  _atom_site_label
  _atom_site_symmetry_multiplicity
  _atom_site_fract_x
  _atom_site_fract_y
  _atom_site_fract_z
  _atom_site_occupancy
  Li  Li1       1.0  0.24500  0.24500  0.24500  1.0000
  Li  Li2       1.0  0.75300  0.75300  0.75300  1.0000
  Pd  Pd1       1.0  0.37300  0.37300  0.37300  1.0000
  Pd  Pd2       1.0  0.62400  0.62400  0.62400  1.0000
  Pd  Pd3       1.0  0.87700  0.87700  0.87700  1.0000
  Ta  Ta1       1.0  0.00606  0.00606  0.00606  1.0000
  Ta  Ta2       1.0  0.49600  0.49600  0.49600  1.0000
