data_image0
_chemical_formula_structural       Nb2Os3Si2
_chemical_formula_sum              "Nb2 Os3 Si2"
_cell_length_a       7.42782
_cell_length_b       7.42782
_cell_length_c       7.42782
_cell_angle_alpha    33.5881
_cell_angle_beta     33.5881
_cell_angle_gamma    33.5881

_space_group_name_H-M_alt    "P 1"
_space_group_IT_number       1

loop_
  _space_group_symop_operation_xyz
  'x, y, z'

loop_
  _atom_site_type_symbol
  _atom_site_label
  _atom_site_symmetry_multiplicity
  _atom_site_fract_x
  _atom_site_fract_y
  _atom_site_fract_z
  _atom_site_occupancy
  Nb  Nb1       1.0  0.24300  0.24300  0.24300  1.0000
  Nb  Nb2       1.0  0.75500  0.75500  0.75500  1.0000
  Os  Os1       1.0  0.37300  0.37300  0.37300  1.0000
  Os  Os2       1.0  0.62600  0.62600  0.62600  1.0000
  Os  Os3       1.0  0.87600  0.87600  0.87600  1.0000
  Si  Si1       1.0  0.00664  0.00664  0.00664  1.0000
  Si  Si2       1.0  0.49500  0.49500  0.49500  1.0000
