data_image0
_chemical_formula_structural       Na2Ni3Sb2
_chemical_formula_sum              "Na2 Ni3 Sb2"
_cell_length_a       7.84401
_cell_length_b       7.84401
_cell_length_c       7.84401
_cell_angle_alpha    32.5256
_cell_angle_beta     32.5256
_cell_angle_gamma    32.5256

_space_group_name_H-M_alt    "P 1"
_space_group_IT_number       1

loop_
  _space_group_symop_operation_xyz
  'x, y, z'

loop_
  _atom_site_type_symbol
  _atom_site_label
  _atom_site_symmetry_multiplicity
  _atom_site_fract_x
  _atom_site_fract_y
  _atom_site_fract_z
  _atom_site_occupancy
  Na  Na1       1.0  0.24100  0.24100  0.24100  1.0000
  Na  Na2       1.0  0.75800  0.75800  0.75800  1.0000
  Ni  Ni1       1.0  0.36000  0.36000  0.36000  1.0000
  Ni  Ni2       1.0  0.63000  0.63000  0.63000  1.0000
  Ni  Ni3       1.0  0.88200  0.88200  0.88200  1.0000
  Sb  Sb1       1.0  0.50700  0.50700  0.50700  1.0000
  Sb  Sb2       1.0  0.99800  0.99800  0.99800  1.0000
