data_image0
_chemical_formula_structural       Hf2Os3V2
_chemical_formula_sum              "Hf2 Os3 V2"
_cell_length_a       7.49632
_cell_length_b       7.49632
_cell_length_c       7.49632
_cell_angle_alpha    34.1186
_cell_angle_beta     34.1186
_cell_angle_gamma    34.1186

_space_group_name_H-M_alt    "P 1"
_space_group_IT_number       1

loop_
  _space_group_symop_operation_xyz
  'x, y, z'

loop_
  _atom_site_type_symbol
  _atom_site_label
  _atom_site_symmetry_multiplicity
  _atom_site_fract_x
  _atom_site_fract_y
  _atom_site_fract_z
  _atom_site_occupancy
  Hf  Hf1       1.0  0.24200  0.24200  0.24200  1.0000
  Hf  Hf2       1.0  0.75500  0.75500  0.75500  1.0000
  Os  Os1       1.0  0.37500  0.37500  0.37500  1.0000
  Os  Os2       1.0  0.62700  0.62700  0.62700  1.0000
  Os  Os3       1.0  0.87900  0.87900  0.87900  1.0000
  V   V1        1.0  0.00122  0.00122  0.00122  1.0000
  V   V2        1.0  0.49600  0.49600  0.49600  1.0000
