data_image0
_chemical_formula_structural       Li4O5Sm2
_chemical_formula_sum              "Li4 O5 Sm2"
_cell_length_a       4.59136
_cell_length_b       7.27312
_cell_length_c       4.62406
_cell_angle_alpha    71.4648
_cell_angle_beta     90
_cell_angle_gamma    90

_space_group_name_H-M_alt    "P 1"
_space_group_IT_number       1

loop_
  _space_group_symop_operation_xyz
  'x, y, z'

loop_
  _atom_site_type_symbol
  _atom_site_label
  _atom_site_symmetry_multiplicity
  _atom_site_fract_x
  _atom_site_fract_y
  _atom_site_fract_z
  _atom_site_occupancy
  Li  Li1       1.0  0.00000  0.00000  0.00000  1.0000
  Li  Li2       1.0  0.00000  0.37600  0.31200  1.0000
  Li  Li3       1.0  0.50000  0.00000  0.50000  1.0000
  Li  Li4       1.0  0.00000  0.62400  0.68800  1.0000
  O   O1        1.0  0.50000  0.00000  0.00000  1.0000
  O   O2        1.0  0.00000  0.68100  0.16000  1.0000
  O   O3        1.0  0.50000  0.32300  0.33900  1.0000
  O   O4        1.0  0.50000  0.67700  0.66100  1.0000
  O   O5        1.0  0.00000  0.31900  0.84000  1.0000
  Sm  Sm1       1.0  0.50000  0.68200  0.15900  1.0000
  Sm  Sm2       1.0  0.50000  0.31800  0.84100  1.0000
