data_image0
_chemical_formula_structural       Cs2Nb2Pt3
_chemical_formula_sum              "Cs2 Nb2 Pt3"
_cell_length_a       11.8043
_cell_length_b       11.8043
_cell_length_c       11.8043
_cell_angle_alpha    22.8011
_cell_angle_beta     22.8011
_cell_angle_gamma    22.8011

_space_group_name_H-M_alt    "P 1"
_space_group_IT_number       1

loop_
  _space_group_symop_operation_xyz
  'x, y, z'

loop_
  _atom_site_type_symbol
  _atom_site_label
  _atom_site_symmetry_multiplicity
  _atom_site_fract_x
  _atom_site_fract_y
  _atom_site_fract_z
  _atom_site_occupancy
  Cs  Cs1       1.0  0.17200  0.17200  0.17200  1.0000
  Cs  Cs2       1.0  0.74600  0.74600  0.74600  1.0000
  Nb  Nb1       1.0  0.58800  0.58800  0.58800  1.0000
  Nb  Nb2       1.0  0.98100  0.98100  0.98100  1.0000
  Pt  Pt1       1.0  0.32100  0.32100  0.32100  1.0000
  Pt  Pt2       1.0  0.65900  0.65900  0.65900  1.0000
  Pt  Pt3       1.0  0.90800  0.90800  0.90800  1.0000
