data_image0
_chemical_formula_structural       Mg2Ni3Si2
_chemical_formula_sum              "Mg2 Ni3 Si2"
_cell_length_a       6.97049
_cell_length_b       6.97049
_cell_length_c       6.97049
_cell_angle_alpha    33.937
_cell_angle_beta     33.937
_cell_angle_gamma    33.937

_space_group_name_H-M_alt    "P 1"
_space_group_IT_number       1

loop_
  _space_group_symop_operation_xyz
  'x, y, z'

loop_
  _atom_site_type_symbol
  _atom_site_label
  _atom_site_symmetry_multiplicity
  _atom_site_fract_x
  _atom_site_fract_y
  _atom_site_fract_z
  _atom_site_occupancy
  Mg  Mg1       1.0  0.23900  0.23900  0.23900  1.0000
  Mg  Mg2       1.0  0.75700  0.75700  0.75700  1.0000
  Ni  Ni1       1.0  0.37000  0.37000  0.37000  1.0000
  Ni  Ni2       1.0  0.62700  0.62700  0.62700  1.0000
  Ni  Ni3       1.0  0.88100  0.88100  0.88100  1.0000
  Si  Si1       1.0  0.00079  0.00079  0.00079  1.0000
  Si  Si2       1.0  0.50000  0.50000  0.50000  1.0000
