data_image0
_chemical_formula_structural       As2Os3Pb2
_chemical_formula_sum              "As2 Os3 Pb2"
_cell_length_a       7.97519
_cell_length_b       7.97519
_cell_length_c       7.97519
_cell_angle_alpha    33.2057
_cell_angle_beta     33.2057
_cell_angle_gamma    33.2057

_space_group_name_H-M_alt    "P 1"
_space_group_IT_number       1

loop_
  _space_group_symop_operation_xyz
  'x, y, z'

loop_
  _atom_site_type_symbol
  _atom_site_label
  _atom_site_symmetry_multiplicity
  _atom_site_fract_x
  _atom_site_fract_y
  _atom_site_fract_z
  _atom_site_occupancy
  As  As1       1.0  0.24800  0.24800  0.24800  1.0000
  As  As2       1.0  0.74000  0.74000  0.74000  1.0000
  Os  Os1       1.0  0.36500  0.36500  0.36500  1.0000
  Os  Os2       1.0  0.62600  0.62600  0.62600  1.0000
  Os  Os3       1.0  0.89100  0.89100  0.89100  1.0000
  Pb  Pb1       1.0  0.01240  0.01240  0.01240  1.0000
  Pb  Pb2       1.0  0.49300  0.49300  0.49300  1.0000
