data_image0
_chemical_formula_structural       As2Pt3Rb2
_chemical_formula_sum              "As2 Pt3 Rb2"
_cell_length_a       11.1308
_cell_length_b       11.1308
_cell_length_c       11.1308
_cell_angle_alpha    22.7661
_cell_angle_beta     22.7661
_cell_angle_gamma    22.7661

_space_group_name_H-M_alt    "P 1"
_space_group_IT_number       1

loop_
  _space_group_symop_operation_xyz
  'x, y, z'

loop_
  _atom_site_type_symbol
  _atom_site_label
  _atom_site_symmetry_multiplicity
  _atom_site_fract_x
  _atom_site_fract_y
  _atom_site_fract_z
  _atom_site_occupancy
  As  As1       1.0  0.56500  0.56500  0.56500  1.0000
  As  As2       1.0  0.99700  0.99700  0.99700  1.0000
  Pt  Pt1       1.0  0.34100  0.34100  0.34100  1.0000
  Pt  Pt2       1.0  0.63800  0.63800  0.63800  1.0000
  Pt  Pt3       1.0  0.92000  0.92000  0.92000  1.0000
  Rb  Rb1       1.0  0.17100  0.17100  0.17100  1.0000
  Rb  Rb2       1.0  0.74400  0.74400  0.74400  1.0000
