data_image0
_chemical_formula_structural       Li4O5Sb2
_chemical_formula_sum              "Li4 O5 Sb2"
_cell_length_a       4.30555
_cell_length_b       7.68478
_cell_length_c       4.26056
_cell_angle_alpha    73.9064
_cell_angle_beta     90
_cell_angle_gamma    90

_space_group_name_H-M_alt    "P 1"
_space_group_IT_number       1

loop_
  _space_group_symop_operation_xyz
  'x, y, z'

loop_
  _atom_site_type_symbol
  _atom_site_label
  _atom_site_symmetry_multiplicity
  _atom_site_fract_x
  _atom_site_fract_y
  _atom_site_fract_z
  _atom_site_occupancy
  Li  Li1       1.0  0.00000  0.00000  0.00000  1.0000
  Li  Li2       1.0  0.00000  0.30200  0.34900  1.0000
  Li  Li3       1.0  0.50000  0.00000  0.50000  1.0000
  Li  Li4       1.0  0.00000  0.69800  0.65100  1.0000
  O   O1        1.0  0.50000  0.00000  0.00000  1.0000
  O   O2        1.0  0.00000  0.74100  0.12900  1.0000
  O   O3        1.0  0.50000  0.24700  0.37700  1.0000
  O   O4        1.0  0.50000  0.75300  0.62300  1.0000
  O   O5        1.0  0.00000  0.25900  0.87100  1.0000
  Sb  Sb1       1.0  0.50000  0.70600  0.14700  1.0000
  Sb  Sb2       1.0  0.50000  0.29400  0.85300  1.0000
