data_image0
_chemical_formula_structural       Ca2Ni3Pb2
_chemical_formula_sum              "Ca2 Ni3 Pb2"
_cell_length_a       8.04948
_cell_length_b       8.04948
_cell_length_c       8.04948
_cell_angle_alpha    33.7665
_cell_angle_beta     33.7665
_cell_angle_gamma    33.7665

_space_group_name_H-M_alt    "P 1"
_space_group_IT_number       1

loop_
  _space_group_symop_operation_xyz
  'x, y, z'

loop_
  _atom_site_type_symbol
  _atom_site_label
  _atom_site_symmetry_multiplicity
  _atom_site_fract_x
  _atom_site_fract_y
  _atom_site_fract_z
  _atom_site_occupancy
  Ca  Ca1       1.0  0.24400  0.24400  0.24400  1.0000
  Ca  Ca2       1.0  0.75400  0.75400  0.75400  1.0000
  Ni  Ni1       1.0  0.36900  0.36900  0.36900  1.0000
  Ni  Ni2       1.0  0.62500  0.62500  0.62500  1.0000
  Ni  Ni3       1.0  0.88000  0.88000  0.88000  1.0000
  Pb  Pb1       1.0  0.00114  0.00114  0.00114  1.0000
  Pb  Pb2       1.0  0.50100  0.50100  0.50100  1.0000
