data_image0
_chemical_formula_structural       Pd3Rb2V2
_chemical_formula_sum              "Pd3 Rb2 V2"
_cell_length_a       11.2938
_cell_length_b       11.2938
_cell_length_c       11.2938
_cell_angle_alpha    22.4204
_cell_angle_beta     22.4204
_cell_angle_gamma    22.4204

_space_group_name_H-M_alt    "P 1"
_space_group_IT_number       1

loop_
  _space_group_symop_operation_xyz
  'x, y, z'

loop_
  _atom_site_type_symbol
  _atom_site_label
  _atom_site_symmetry_multiplicity
  _atom_site_fract_x
  _atom_site_fract_y
  _atom_site_fract_z
  _atom_site_occupancy
  Pd  Pd1       1.0  0.29800  0.29800  0.29800  1.0000
  Pd  Pd2       1.0  0.66600  0.66600  0.66600  1.0000
  Pd  Pd3       1.0  0.90800  0.90800  0.90800  1.0000
  Rb  Rb1       1.0  0.17800  0.17800  0.17800  1.0000
  Rb  Rb2       1.0  0.75200  0.75200  0.75200  1.0000
  V   V1        1.0  0.59200  0.59200  0.59200  1.0000
  V   V2        1.0  0.98100  0.98100  0.98100  1.0000
