data_image0
_chemical_formula_structural       Mg2Ni3Pb2
_chemical_formula_sum              "Mg2 Ni3 Pb2"
_cell_length_a       7.57598
_cell_length_b       7.57598
_cell_length_c       7.57598
_cell_angle_alpha    33.9101
_cell_angle_beta     33.9101
_cell_angle_gamma    33.9101

_space_group_name_H-M_alt    "P 1"
_space_group_IT_number       1

loop_
  _space_group_symop_operation_xyz
  'x, y, z'

loop_
  _atom_site_type_symbol
  _atom_site_label
  _atom_site_symmetry_multiplicity
  _atom_site_fract_x
  _atom_site_fract_y
  _atom_site_fract_z
  _atom_site_occupancy
  Mg  Mg1       1.0  0.24600  0.24600  0.24600  1.0000
  Mg  Mg2       1.0  0.75400  0.75400  0.75400  1.0000
  Ni  Ni1       1.0  0.37000  0.37000  0.37000  1.0000
  Ni  Ni2       1.0  0.62500  0.62500  0.62500  1.0000
  Ni  Ni3       1.0  0.87900  0.87900  0.87900  1.0000
  Pb  Pb1       1.0  0.00398  0.00398  0.00398  1.0000
  Pb  Pb2       1.0  0.49700  0.49700  0.49700  1.0000
