data_image0
_chemical_formula_structural       Bi2Os3Sn2
_chemical_formula_sum              "Bi2 Os3 Sn2"
_cell_length_a       8.27502
_cell_length_b       8.27502
_cell_length_c       8.27502
_cell_angle_alpha    32.3929
_cell_angle_beta     32.3929
_cell_angle_gamma    32.3929

_space_group_name_H-M_alt    "P 1"
_space_group_IT_number       1

loop_
  _space_group_symop_operation_xyz
  'x, y, z'

loop_
  _atom_site_type_symbol
  _atom_site_label
  _atom_site_symmetry_multiplicity
  _atom_site_fract_x
  _atom_site_fract_y
  _atom_site_fract_z
  _atom_site_occupancy
  Bi  Bi1       1.0  0.00410  0.00410  0.00410  1.0000
  Bi  Bi2       1.0  0.49700  0.49700  0.49700  1.0000
  Os  Os1       1.0  0.37000  0.37000  0.37000  1.0000
  Os  Os2       1.0  0.62400  0.62400  0.62400  1.0000
  Os  Os3       1.0  0.88000  0.88000  0.88000  1.0000
  Sn  Sn1       1.0  0.24700  0.24700  0.24700  1.0000
  Sn  Sn2       1.0  0.75200  0.75200  0.75200  1.0000
