data_image0
_chemical_formula_structural       Li4O5Re2
_chemical_formula_sum              "Li4 O5 Re2"
_cell_length_a       4.12016
_cell_length_b       6.46704
_cell_length_c       4.06876
_cell_angle_alpha    71.6647
_cell_angle_beta     90
_cell_angle_gamma    90

_space_group_name_H-M_alt    "P 1"
_space_group_IT_number       1

loop_
  _space_group_symop_operation_xyz
  'x, y, z'

loop_
  _atom_site_type_symbol
  _atom_site_label
  _atom_site_symmetry_multiplicity
  _atom_site_fract_x
  _atom_site_fract_y
  _atom_site_fract_z
  _atom_site_occupancy
  Li  Li1       1.0  0.00000  0.00000  0.00000  1.0000
  Li  Li2       1.0  0.00000  0.35400  0.32300  1.0000
  Li  Li3       1.0  0.50000  0.00000  0.50000  1.0000
  Li  Li4       1.0  0.00000  0.64600  0.67700  1.0000
  O   O1        1.0  0.50000  0.00000  0.00000  1.0000
  O   O2        1.0  0.00000  0.68400  0.15800  1.0000
  O   O3        1.0  0.50000  0.29100  0.35500  1.0000
  O   O4        1.0  0.50000  0.70900  0.64500  1.0000
  O   O5        1.0  0.00000  0.31600  0.84200  1.0000
  Re  Re1       1.0  0.50000  0.64600  0.17700  1.0000
  Re  Re2       1.0  0.50000  0.35400  0.82300  1.0000
