data_image0
_chemical_formula_structural       As2Li2Pt3
_chemical_formula_sum              "As2 Li2 Pt3"
_cell_length_a       7.28736
_cell_length_b       7.28736
_cell_length_c       7.28736
_cell_angle_alpha    34.419
_cell_angle_beta     34.419
_cell_angle_gamma    34.419

_space_group_name_H-M_alt    "P 1"
_space_group_IT_number       1

loop_
  _space_group_symop_operation_xyz
  'x, y, z'

loop_
  _atom_site_type_symbol
  _atom_site_label
  _atom_site_symmetry_multiplicity
  _atom_site_fract_x
  _atom_site_fract_y
  _atom_site_fract_z
  _atom_site_occupancy
  As  As1       1.0  0.00708  0.00708  0.00708  1.0000
  As  As2       1.0  0.49700  0.49700  0.49700  1.0000
  Li  Li1       1.0  0.23400  0.23400  0.23400  1.0000
  Li  Li2       1.0  0.75800  0.75800  0.75800  1.0000
  Pt  Pt1       1.0  0.37100  0.37100  0.37100  1.0000
  Pt  Pt2       1.0  0.62700  0.62700  0.62700  1.0000
  Pt  Pt3       1.0  0.88100  0.88100  0.88100  1.0000
