data_image0
_chemical_formula_structural       Hf2Ni3Sr2
_chemical_formula_sum              "Hf2 Ni3 Sr2"
_cell_length_a       9.02548
_cell_length_b       9.02548
_cell_length_c       9.02548
_cell_angle_alpha    29.2758
_cell_angle_beta     29.2758
_cell_angle_gamma    29.2758

_space_group_name_H-M_alt    "P 1"
_space_group_IT_number       1

loop_
  _space_group_symop_operation_xyz
  'x, y, z'

loop_
  _atom_site_type_symbol
  _atom_site_label
  _atom_site_symmetry_multiplicity
  _atom_site_fract_x
  _atom_site_fract_y
  _atom_site_fract_z
  _atom_site_occupancy
  Hf  Hf1       1.0  0.51700  0.51700  0.51700  1.0000
  Hf  Hf2       1.0  0.99300  0.99300  0.99300  1.0000
  Ni  Ni1       1.0  0.35500  0.35500  0.35500  1.0000
  Ni  Ni2       1.0  0.63600  0.63600  0.63600  1.0000
  Ni  Ni3       1.0  0.87000  0.87000  0.87000  1.0000
  Sr  Sr1       1.0  0.24800  0.24800  0.24800  1.0000
  Sr  Sr2       1.0  0.75500  0.75500  0.75500  1.0000
