data_image0
_chemical_formula_structural       Nb2Ru3Zr2
_chemical_formula_sum              "Nb2 Ru3 Zr2"
_cell_length_a       7.7612
_cell_length_b       7.7612
_cell_length_c       7.7612
_cell_angle_alpha    33.7904
_cell_angle_beta     33.7904
_cell_angle_gamma    33.7904

_space_group_name_H-M_alt    "P 1"
_space_group_IT_number       1

loop_
  _space_group_symop_operation_xyz
  'x, y, z'

loop_
  _atom_site_type_symbol
  _atom_site_label
  _atom_site_symmetry_multiplicity
  _atom_site_fract_x
  _atom_site_fract_y
  _atom_site_fract_z
  _atom_site_occupancy
  Nb  Nb1       1.0  0.00264  0.00264  0.00264  1.0000
  Nb  Nb2       1.0  0.49600  0.49600  0.49600  1.0000
  Ru  Ru1       1.0  0.37300  0.37300  0.37300  1.0000
  Ru  Ru2       1.0  0.62600  0.62600  0.62600  1.0000
  Ru  Ru3       1.0  0.87800  0.87800  0.87800  1.0000
  Zr  Zr1       1.0  0.24400  0.24400  0.24400  1.0000
  Zr  Zr2       1.0  0.75500  0.75500  0.75500  1.0000
