data_image0
_chemical_formula_structural       Ge2Mg2Ni3
_chemical_formula_sum              "Ge2 Mg2 Ni3"
_cell_length_a       7.12735
_cell_length_b       7.12735
_cell_length_c       7.12735
_cell_angle_alpha    33.8987
_cell_angle_beta     33.8987
_cell_angle_gamma    33.8987

_space_group_name_H-M_alt    "P 1"
_space_group_IT_number       1

loop_
  _space_group_symop_operation_xyz
  'x, y, z'

loop_
  _atom_site_type_symbol
  _atom_site_label
  _atom_site_symmetry_multiplicity
  _atom_site_fract_x
  _atom_site_fract_y
  _atom_site_fract_z
  _atom_site_occupancy
  Ge  Ge1       1.0  0.00193  0.00193  0.00193  1.0000
  Ge  Ge2       1.0  0.49900  0.49900  0.49900  1.0000
  Mg  Mg1       1.0  0.24000  0.24000  0.24000  1.0000
  Mg  Mg2       1.0  0.75700  0.75700  0.75700  1.0000
  Ni  Ni1       1.0  0.37000  0.37000  0.37000  1.0000
  Ni  Ni2       1.0  0.62700  0.62700  0.62700  1.0000
  Ni  Ni3       1.0  0.88100  0.88100  0.88100  1.0000
