data_image0
_chemical_formula_structural       Li2Ni3V2
_chemical_formula_sum              "Li2 Ni3 V2"
_cell_length_a       6.69821
_cell_length_b       6.69821
_cell_length_c       6.69821
_cell_angle_alpha    34.3738
_cell_angle_beta     34.3738
_cell_angle_gamma    34.3738

_space_group_name_H-M_alt    "P 1"
_space_group_IT_number       1

loop_
  _space_group_symop_operation_xyz
  'x, y, z'

loop_
  _atom_site_type_symbol
  _atom_site_label
  _atom_site_symmetry_multiplicity
  _atom_site_fract_x
  _atom_site_fract_y
  _atom_site_fract_z
  _atom_site_occupancy
  Li  Li1       1.0  0.24200  0.24200  0.24200  1.0000
  Li  Li2       1.0  0.75500  0.75500  0.75500  1.0000
  Ni  Ni1       1.0  0.37000  0.37000  0.37000  1.0000
  Ni  Ni2       1.0  0.62500  0.62500  0.62500  1.0000
  Ni  Ni3       1.0  0.88000  0.88000  0.88000  1.0000
  V   V1        1.0  0.00719  0.00719  0.00719  1.0000
  V   V2        1.0  0.49600  0.49600  0.49600  1.0000
