data_image0
_chemical_formula_structural       K2Pt3V2
_chemical_formula_sum              "K2 Pt3 V2"
_cell_length_a       11.336
_cell_length_b       11.336
_cell_length_c       11.336
_cell_angle_alpha    21.8589
_cell_angle_beta     21.8589
_cell_angle_gamma    21.8589

_space_group_name_H-M_alt    "P 1"
_space_group_IT_number       1

loop_
  _space_group_symop_operation_xyz
  'x, y, z'

loop_
  _atom_site_type_symbol
  _atom_site_label
  _atom_site_symmetry_multiplicity
  _atom_site_fract_x
  _atom_site_fract_y
  _atom_site_fract_z
  _atom_site_occupancy
  K   K1        1.0  0.17100  0.17100  0.17100  1.0000
  K   K2        1.0  0.74500  0.74500  0.74500  1.0000
  Pt  Pt1       1.0  0.34800  0.34800  0.34800  1.0000
  Pt  Pt2       1.0  0.65000  0.65000  0.65000  1.0000
  Pt  Pt3       1.0  0.90300  0.90300  0.90300  1.0000
  V   V1        1.0  0.58000  0.58000  0.58000  1.0000
  V   V2        1.0  0.97800  0.97800  0.97800  1.0000
