data_image0
_chemical_formula_structural       Nb2Os3Pb2
_chemical_formula_sum              "Nb2 Os3 Pb2"
_cell_length_a       7.7919
_cell_length_b       7.7919
_cell_length_c       7.7919
_cell_angle_alpha    33.9888
_cell_angle_beta     33.9888
_cell_angle_gamma    33.9888

_space_group_name_H-M_alt    "P 1"
_space_group_IT_number       1

loop_
  _space_group_symop_operation_xyz
  'x, y, z'

loop_
  _atom_site_type_symbol
  _atom_site_label
  _atom_site_symmetry_multiplicity
  _atom_site_fract_x
  _atom_site_fract_y
  _atom_site_fract_z
  _atom_site_occupancy
  Nb  Nb1       1.0  0.24600  0.24600  0.24600  1.0000
  Nb  Nb2       1.0  0.75300  0.75300  0.75300  1.0000
  Os  Os1       1.0  0.37100  0.37100  0.37100  1.0000
  Os  Os2       1.0  0.62400  0.62400  0.62400  1.0000
  Os  Os3       1.0  0.87700  0.87700  0.87700  1.0000
  Pb  Pb1       1.0  0.00998  0.00998  0.00998  1.0000
  Pb  Pb2       1.0  0.49400  0.49400  0.49400  1.0000
