data_image0
_chemical_formula_structural       Os3Sb2Sn2
_chemical_formula_sum              "Os3 Sb2 Sn2"
_cell_length_a       8.06471
_cell_length_b       8.06471
_cell_length_c       8.06471
_cell_angle_alpha    32.6473
_cell_angle_beta     32.6473
_cell_angle_gamma    32.6473

_space_group_name_H-M_alt    "P 1"
_space_group_IT_number       1

loop_
  _space_group_symop_operation_xyz
  'x, y, z'

loop_
  _atom_site_type_symbol
  _atom_site_label
  _atom_site_symmetry_multiplicity
  _atom_site_fract_x
  _atom_site_fract_y
  _atom_site_fract_z
  _atom_site_occupancy
  Os  Os1       1.0  0.37200  0.37200  0.37200  1.0000
  Os  Os2       1.0  0.62500  0.62500  0.62500  1.0000
  Os  Os3       1.0  0.87800  0.87800  0.87800  1.0000
  Sb  Sb1       1.0  0.00394  0.00394  0.00394  1.0000
  Sb  Sb2       1.0  0.49700  0.49700  0.49700  1.0000
  Sn  Sn1       1.0  0.24600  0.24600  0.24600  1.0000
  Sn  Sn2       1.0  0.75400  0.75400  0.75400  1.0000
