data_image0
_chemical_formula_structural       Pd3Rb2Sb2
_chemical_formula_sum              "Pd3 Rb2 Sb2"
_cell_length_a       11.77
_cell_length_b       11.77
_cell_length_c       11.77
_cell_angle_alpha    22.3866
_cell_angle_beta     22.3866
_cell_angle_gamma    22.3866

_space_group_name_H-M_alt    "P 1"
_space_group_IT_number       1

loop_
  _space_group_symop_operation_xyz
  'x, y, z'

loop_
  _atom_site_type_symbol
  _atom_site_label
  _atom_site_symmetry_multiplicity
  _atom_site_fract_x
  _atom_site_fract_y
  _atom_site_fract_z
  _atom_site_occupancy
  Pd  Pd1       1.0  0.35000  0.35000  0.35000  1.0000
  Pd  Pd2       1.0  0.65900  0.65900  0.65900  1.0000
  Pd  Pd3       1.0  0.84900  0.84900  0.84900  1.0000
  Rb  Rb1       1.0  0.25100  0.25100  0.25100  1.0000
  Rb  Rb2       1.0  0.75600  0.75600  0.75600  1.0000
  Sb  Sb1       1.0  0.00416  0.00416  0.00416  1.0000
  Sb  Sb2       1.0  0.50600  0.50600  0.50600  1.0000
