data_image0
_chemical_formula_structural       Bi2Na2Pd3
_chemical_formula_sum              "Bi2 Na2 Pd3"
_cell_length_a       8.16506
_cell_length_b       8.16506
_cell_length_c       8.16506
_cell_angle_alpha    33.7882
_cell_angle_beta     33.7882
_cell_angle_gamma    33.7882

_space_group_name_H-M_alt    "P 1"
_space_group_IT_number       1

loop_
  _space_group_symop_operation_xyz
  'x, y, z'

loop_
  _atom_site_type_symbol
  _atom_site_label
  _atom_site_symmetry_multiplicity
  _atom_site_fract_x
  _atom_site_fract_y
  _atom_site_fract_z
  _atom_site_occupancy
  Bi  Bi1       1.0  0.00104  0.00104  0.00104  1.0000
  Bi  Bi2       1.0  0.50100  0.50100  0.50100  1.0000
  Na  Na1       1.0  0.24300  0.24300  0.24300  1.0000
  Na  Na2       1.0  0.75500  0.75500  0.75500  1.0000
  Pd  Pd1       1.0  0.37000  0.37000  0.37000  1.0000
  Pd  Pd2       1.0  0.62600  0.62600  0.62600  1.0000
  Pd  Pd3       1.0  0.88000  0.88000  0.88000  1.0000
