data_image0
_chemical_formula_structural       Ba2Ni3Zr2
_chemical_formula_sum              "Ba2 Ni3 Zr2"
_cell_length_a       8.95989
_cell_length_b       8.95989
_cell_length_c       8.95989
_cell_angle_alpha    32.216
_cell_angle_beta     32.216
_cell_angle_gamma    32.216

_space_group_name_H-M_alt    "P 1"
_space_group_IT_number       1

loop_
  _space_group_symop_operation_xyz
  'x, y, z'

loop_
  _atom_site_type_symbol
  _atom_site_label
  _atom_site_symmetry_multiplicity
  _atom_site_fract_x
  _atom_site_fract_y
  _atom_site_fract_z
  _atom_site_occupancy
  Ba  Ba1       1.0  0.21800  0.21800  0.21800  1.0000
  Ba  Ba2       1.0  0.75900  0.75900  0.75900  1.0000
  Ni  Ni1       1.0  0.33400  0.33400  0.33400  1.0000
  Ni  Ni2       1.0  0.65000  0.65000  0.65000  1.0000
  Ni  Ni3       1.0  0.87800  0.87800  0.87800  1.0000
  Zr  Zr1       1.0  0.56000  0.56000  0.56000  1.0000
  Zr  Zr2       1.0  0.97500  0.97500  0.97500  1.0000
