data_image0
_chemical_formula_structural       Be2Pd3Sn2
_chemical_formula_sum              "Be2 Pd3 Sn2"
_cell_length_a       7.41197
_cell_length_b       7.41197
_cell_length_c       7.41197
_cell_angle_alpha    33.9128
_cell_angle_beta     33.9128
_cell_angle_gamma    33.9128

_space_group_name_H-M_alt    "P 1"
_space_group_IT_number       1

loop_
  _space_group_symop_operation_xyz
  'x, y, z'

loop_
  _atom_site_type_symbol
  _atom_site_label
  _atom_site_symmetry_multiplicity
  _atom_site_fract_x
  _atom_site_fract_y
  _atom_site_fract_z
  _atom_site_occupancy
  Be  Be1       1.0  0.24800  0.24800  0.24800  1.0000
  Be  Be2       1.0  0.75300  0.75300  0.75300  1.0000
  Pd  Pd1       1.0  0.37200  0.37200  0.37200  1.0000
  Pd  Pd2       1.0  0.62200  0.62200  0.62200  1.0000
  Pd  Pd3       1.0  0.87600  0.87600  0.87600  1.0000
  Sn  Sn1       1.0  0.00897  0.00897  0.00897  1.0000
  Sn  Sn2       1.0  0.49400  0.49400  0.49400  1.0000
