data_image0
_chemical_formula_structural       Pt3Rb2V2
_chemical_formula_sum              "Pt3 Rb2 V2"
_cell_length_a       11.1449
_cell_length_b       11.1449
_cell_length_c       11.1449
_cell_angle_alpha    22.4197
_cell_angle_beta     22.4197
_cell_angle_gamma    22.4197

_space_group_name_H-M_alt    "P 1"
_space_group_IT_number       1

loop_
  _space_group_symop_operation_xyz
  'x, y, z'

loop_
  _atom_site_type_symbol
  _atom_site_label
  _atom_site_symmetry_multiplicity
  _atom_site_fract_x
  _atom_site_fract_y
  _atom_site_fract_z
  _atom_site_occupancy
  Pt  Pt1       1.0  0.34800  0.34800  0.34800  1.0000
  Pt  Pt2       1.0  0.65000  0.65000  0.65000  1.0000
  Pt  Pt3       1.0  0.90400  0.90400  0.90400  1.0000
  Rb  Rb1       1.0  0.16700  0.16700  0.16700  1.0000
  Rb  Rb2       1.0  0.74700  0.74700  0.74700  1.0000
  V   V1        1.0  0.58000  0.58000  0.58000  1.0000
  V   V2        1.0  0.97900  0.97900  0.97900  1.0000
