data_image0
_chemical_formula_structural       Fe3Ge2V2
_chemical_formula_sum              "Fe3 Ge2 V2"
_cell_length_a       6.81132
_cell_length_b       6.81132
_cell_length_c       6.81132
_cell_angle_alpha    33.9674
_cell_angle_beta     33.9674
_cell_angle_gamma    33.9674

_space_group_name_H-M_alt    "P 1"
_space_group_IT_number       1

loop_
  _space_group_symop_operation_xyz
  'x, y, z'

loop_
  _atom_site_type_symbol
  _atom_site_label
  _atom_site_symmetry_multiplicity
  _atom_site_fract_x
  _atom_site_fract_y
  _atom_site_fract_z
  _atom_site_occupancy
  Fe  Fe1       1.0  0.37200  0.37200  0.37200  1.0000
  Fe  Fe2       1.0  0.62500  0.62500  0.62500  1.0000
  Fe  Fe3       1.0  0.87700  0.87700  0.87700  1.0000
  Ge  Ge1       1.0  0.00725  0.00725  0.00725  1.0000
  Ge  Ge2       1.0  0.49500  0.49500  0.49500  1.0000
  V   V1        1.0  0.24400  0.24400  0.24400  1.0000
  V   V2        1.0  0.75500  0.75500  0.75500  1.0000
