data_image0
_chemical_formula_structural       Nb2Pb2Ru3
_chemical_formula_sum              "Nb2 Pb2 Ru3"
_cell_length_a       7.76212
_cell_length_b       7.76212
_cell_length_c       7.76212
_cell_angle_alpha    33.9303
_cell_angle_beta     33.9303
_cell_angle_gamma    33.9303

_space_group_name_H-M_alt    "P 1"
_space_group_IT_number       1

loop_
  _space_group_symop_operation_xyz
  'x, y, z'

loop_
  _atom_site_type_symbol
  _atom_site_label
  _atom_site_symmetry_multiplicity
  _atom_site_fract_x
  _atom_site_fract_y
  _atom_site_fract_z
  _atom_site_occupancy
  Nb  Nb1       1.0  0.24600  0.24600  0.24600  1.0000
  Nb  Nb2       1.0  0.75300  0.75300  0.75300  1.0000
  Pb  Pb1       1.0  0.00770  0.00770  0.00770  1.0000
  Pb  Pb2       1.0  0.49500  0.49500  0.49500  1.0000
  Ru  Ru1       1.0  0.37200  0.37200  0.37200  1.0000
  Ru  Ru2       1.0  0.62500  0.62500  0.62500  1.0000
  Ru  Ru3       1.0  0.87700  0.87700  0.87700  1.0000
