data_image0
_chemical_formula_structural       Ge2Os3V2
_chemical_formula_sum              "Ge2 Os3 V2"
_cell_length_a       7.28577
_cell_length_b       7.28577
_cell_length_c       7.28577
_cell_angle_alpha    33.67
_cell_angle_beta     33.67
_cell_angle_gamma    33.67

_space_group_name_H-M_alt    "P 1"
_space_group_IT_number       1

loop_
  _space_group_symop_operation_xyz
  'x, y, z'

loop_
  _atom_site_type_symbol
  _atom_site_label
  _atom_site_symmetry_multiplicity
  _atom_site_fract_x
  _atom_site_fract_y
  _atom_site_fract_z
  _atom_site_occupancy
  Ge  Ge1       1.0  0.01150  0.01150  0.01150  1.0000
  Ge  Ge2       1.0  0.49400  0.49400  0.49400  1.0000
  Os  Os1       1.0  0.37100  0.37100  0.37100  1.0000
  Os  Os2       1.0  0.62200  0.62200  0.62200  1.0000
  Os  Os3       1.0  0.87600  0.87600  0.87600  1.0000
  V   V1        1.0  0.24400  0.24400  0.24400  1.0000
  V   V2        1.0  0.75500  0.75500  0.75500  1.0000
