data_image0
_chemical_formula_structural       Ag4O2S2
_chemical_formula_sum              "Ag4 O2 S2"
_cell_length_a       3.499
_cell_length_b       3.49906
_cell_length_c       12.5571
_cell_angle_alpha    90
_cell_angle_beta     90
_cell_angle_gamma    119.999

_space_group_name_H-M_alt    "P 1"
_space_group_IT_number       1

loop_
  _space_group_symop_operation_xyz
  'x, y, z'

loop_
  _atom_site_type_symbol
  _atom_site_label
  _atom_site_symmetry_multiplicity
  _atom_site_fract_x
  _atom_site_fract_y
  _atom_site_fract_z
  _atom_site_occupancy
  Ag  Ag1       1.0  0.33300  0.66700  0.24700  1.0000
  Ag  Ag2       1.0  0.00000  0.00000  0.49300  1.0000
  Ag  Ag3       1.0  0.66700  0.33300  0.74700  1.0000
  Ag  Ag4       1.0  0.00000  0.00000  0.99300  1.0000
  O   O1        1.0  0.00000  0.00000  0.32400  1.0000
  O   O2        1.0  0.00000  0.00000  0.82400  1.0000
  S   S1        1.0  0.66700  0.33300  0.12400  1.0000
  S   S2        1.0  0.33300  0.66700  0.62400  1.0000
