data_image0
_chemical_formula_structural       Ni3Sr2Zr2
_chemical_formula_sum              "Ni3 Sr2 Zr2"
_cell_length_a       8.84212
_cell_length_b       8.84212
_cell_length_c       8.84212
_cell_angle_alpha    30.5581
_cell_angle_beta     30.5581
_cell_angle_gamma    30.5581

_space_group_name_H-M_alt    "P 1"
_space_group_IT_number       1

loop_
  _space_group_symop_operation_xyz
  'x, y, z'

loop_
  _atom_site_type_symbol
  _atom_site_label
  _atom_site_symmetry_multiplicity
  _atom_site_fract_x
  _atom_site_fract_y
  _atom_site_fract_z
  _atom_site_occupancy
  Ni  Ni1       1.0  0.35700  0.35700  0.35700  1.0000
  Ni  Ni2       1.0  0.63100  0.63100  0.63100  1.0000
  Ni  Ni3       1.0  0.87500  0.87500  0.87500  1.0000
  Sr  Sr1       1.0  0.24700  0.24700  0.24700  1.0000
  Sr  Sr2       1.0  0.75400  0.75400  0.75400  1.0000
  Zr  Zr1       1.0  0.51800  0.51800  0.51800  1.0000
  Zr  Zr2       1.0  0.99300  0.99300  0.99300  1.0000
