data_image0
_chemical_formula_structural       Nb2Pt3Rb2
_chemical_formula_sum              "Nb2 Pt3 Rb2"
_cell_length_a       11.0735
_cell_length_b       11.0735
_cell_length_c       11.0735
_cell_angle_alpha    23.6704
_cell_angle_beta     23.6704
_cell_angle_gamma    23.6704

_space_group_name_H-M_alt    "P 1"
_space_group_IT_number       1

loop_
  _space_group_symop_operation_xyz
  'x, y, z'

loop_
  _atom_site_type_symbol
  _atom_site_label
  _atom_site_symmetry_multiplicity
  _atom_site_fract_x
  _atom_site_fract_y
  _atom_site_fract_z
  _atom_site_occupancy
  Nb  Nb1       1.0  0.58800  0.58800  0.58800  1.0000
  Nb  Nb2       1.0  0.99100  0.99100  0.99100  1.0000
  Pt  Pt1       1.0  0.28700  0.28700  0.28700  1.0000
  Pt  Pt2       1.0  0.66600  0.66600  0.66600  1.0000
  Pt  Pt3       1.0  0.90900  0.90900  0.90900  1.0000
  Rb  Rb1       1.0  0.17400  0.17400  0.17400  1.0000
  Rb  Rb2       1.0  0.75900  0.75900  0.75900  1.0000
