data_image0
_chemical_formula_structural       K2Nb2Pd3
_chemical_formula_sum              "K2 Nb2 Pd3"
_cell_length_a       10.6595
_cell_length_b       10.6595
_cell_length_c       10.6595
_cell_angle_alpha    24.3116
_cell_angle_beta     24.3116
_cell_angle_gamma    24.3116

_space_group_name_H-M_alt    "P 1"
_space_group_IT_number       1

loop_
  _space_group_symop_operation_xyz
  'x, y, z'

loop_
  _atom_site_type_symbol
  _atom_site_label
  _atom_site_symmetry_multiplicity
  _atom_site_fract_x
  _atom_site_fract_y
  _atom_site_fract_z
  _atom_site_occupancy
  K   K1        1.0  0.16200  0.16200  0.16200  1.0000
  K   K2        1.0  0.75200  0.75200  0.75200  1.0000
  Nb  Nb1       1.0  0.57700  0.57700  0.57700  1.0000
  Nb  Nb2       1.0  0.98000  0.98000  0.98000  1.0000
  Pd  Pd1       1.0  0.35200  0.35200  0.35200  1.0000
  Pd  Pd2       1.0  0.65600  0.65600  0.65600  1.0000
  Pd  Pd3       1.0  0.89600  0.89600  0.89600  1.0000
