data_image0
_chemical_formula_structural       Li2Pd3V2
_chemical_formula_sum              "Li2 Pd3 V2"
_cell_length_a       7.25269
_cell_length_b       7.25269
_cell_length_c       7.25269
_cell_angle_alpha    34.1855
_cell_angle_beta     34.1855
_cell_angle_gamma    34.1855

_space_group_name_H-M_alt    "P 1"
_space_group_IT_number       1

loop_
  _space_group_symop_operation_xyz
  'x, y, z'

loop_
  _atom_site_type_symbol
  _atom_site_label
  _atom_site_symmetry_multiplicity
  _atom_site_fract_x
  _atom_site_fract_y
  _atom_site_fract_z
  _atom_site_occupancy
  Li  Li1       1.0  0.24200  0.24200  0.24200  1.0000
  Li  Li2       1.0  0.75500  0.75500  0.75500  1.0000
  Pd  Pd1       1.0  0.37200  0.37200  0.37200  1.0000
  Pd  Pd2       1.0  0.62500  0.62500  0.62500  1.0000
  Pd  Pd3       1.0  0.87800  0.87800  0.87800  1.0000
  V   V1        1.0  0.00751  0.00751  0.00751  1.0000
  V   V2        1.0  0.49500  0.49500  0.49500  1.0000
