data_image0
_chemical_formula_structural       As2K2Pd3
_chemical_formula_sum              "As2 K2 Pd3"
_cell_length_a       8.95044
_cell_length_b       8.95044
_cell_length_c       8.95044
_cell_angle_alpha    31.0373
_cell_angle_beta     31.0373
_cell_angle_gamma    31.0373

_space_group_name_H-M_alt    "P 1"
_space_group_IT_number       1

loop_
  _space_group_symop_operation_xyz
  'x, y, z'

loop_
  _atom_site_type_symbol
  _atom_site_label
  _atom_site_symmetry_multiplicity
  _atom_site_fract_x
  _atom_site_fract_y
  _atom_site_fract_z
  _atom_site_occupancy
  As  As1       1.0  0.53000  0.53000  0.53000  1.0000
  As  As2       1.0  0.99100  0.99100  0.99100  1.0000
  K   K1        1.0  0.22800  0.22800  0.22800  1.0000
  K   K2        1.0  0.76100  0.76100  0.76100  1.0000
  Pd  Pd1       1.0  0.34200  0.34200  0.34200  1.0000
  Pd  Pd2       1.0  0.62800  0.62800  0.62800  1.0000
  Pd  Pd3       1.0  0.89500  0.89500  0.89500  1.0000
