data_image0
_chemical_formula_structural       Pb2Ru3Ta2
_chemical_formula_sum              "Pb2 Ru3 Ta2"
_cell_length_a       7.75549
_cell_length_b       7.75549
_cell_length_c       7.75549
_cell_angle_alpha    33.8891
_cell_angle_beta     33.8891
_cell_angle_gamma    33.8891

_space_group_name_H-M_alt    "P 1"
_space_group_IT_number       1

loop_
  _space_group_symop_operation_xyz
  'x, y, z'

loop_
  _atom_site_type_symbol
  _atom_site_label
  _atom_site_symmetry_multiplicity
  _atom_site_fract_x
  _atom_site_fract_y
  _atom_site_fract_z
  _atom_site_occupancy
  Pb  Pb1       1.0  0.00809  0.00809  0.00809  1.0000
  Pb  Pb2       1.0  0.49500  0.49500  0.49500  1.0000
  Ru  Ru1       1.0  0.37200  0.37200  0.37200  1.0000
  Ru  Ru2       1.0  0.62500  0.62500  0.62500  1.0000
  Ru  Ru3       1.0  0.87700  0.87700  0.87700  1.0000
  Ta  Ta1       1.0  0.24700  0.24700  0.24700  1.0000
  Ta  Ta2       1.0  0.75200  0.75200  0.75200  1.0000
