data_image0
_chemical_formula_structural       Be2Pd3Si2
_chemical_formula_sum              "Be2 Pd3 Si2"
_cell_length_a       6.94684
_cell_length_b       6.94684
_cell_length_c       6.94684
_cell_angle_alpha    33.8239
_cell_angle_beta     33.8239
_cell_angle_gamma    33.8239

_space_group_name_H-M_alt    "P 1"
_space_group_IT_number       1

loop_
  _space_group_symop_operation_xyz
  'x, y, z'

loop_
  _atom_site_type_symbol
  _atom_site_label
  _atom_site_symmetry_multiplicity
  _atom_site_fract_x
  _atom_site_fract_y
  _atom_site_fract_z
  _atom_site_occupancy
  Be  Be1       1.0  0.22900  0.22900  0.22900  1.0000
  Be  Be2       1.0  0.75700  0.75700  0.75700  1.0000
  Pd  Pd1       1.0  0.37700  0.37700  0.37700  1.0000
  Pd  Pd2       1.0  0.62600  0.62600  0.62600  1.0000
  Pd  Pd3       1.0  0.87700  0.87700  0.87700  1.0000
  Si  Si1       1.0  0.01300  0.01300  0.01300  1.0000
  Si  Si2       1.0  0.49600  0.49600  0.49600  1.0000
