data_image0
_chemical_formula_structural       Na2Pd3Sb2
_chemical_formula_sum              "Na2 Pd3 Sb2"
_cell_length_a       7.97976
_cell_length_b       7.97976
_cell_length_c       7.97976
_cell_angle_alpha    33.6336
_cell_angle_beta     33.6336
_cell_angle_gamma    33.6336

_space_group_name_H-M_alt    "P 1"
_space_group_IT_number       1

loop_
  _space_group_symop_operation_xyz
  'x, y, z'

loop_
  _atom_site_type_symbol
  _atom_site_label
  _atom_site_symmetry_multiplicity
  _atom_site_fract_x
  _atom_site_fract_y
  _atom_site_fract_z
  _atom_site_occupancy
  Na  Na1       1.0  0.24100  0.24100  0.24100  1.0000
  Na  Na2       1.0  0.75600  0.75600  0.75600  1.0000
  Pd  Pd1       1.0  0.36900  0.36900  0.36900  1.0000
  Pd  Pd2       1.0  0.62700  0.62700  0.62700  1.0000
  Pd  Pd3       1.0  0.88000  0.88000  0.88000  1.0000
  Sb  Sb1       1.0  0.00000  0.00000  0.00000  1.0000
  Sb  Sb2       1.0  0.50200  0.50200  0.50200  1.0000
