data_image0
_chemical_formula_structural       Os3V2Zr2
_chemical_formula_sum              "Os3 V2 Zr2"
_cell_length_a       7.51594
_cell_length_b       7.51594
_cell_length_c       7.51594
_cell_angle_alpha    34.2817
_cell_angle_beta     34.2817
_cell_angle_gamma    34.2817

_space_group_name_H-M_alt    "P 1"
_space_group_IT_number       1

loop_
  _space_group_symop_operation_xyz
  'x, y, z'

loop_
  _atom_site_type_symbol
  _atom_site_label
  _atom_site_symmetry_multiplicity
  _atom_site_fract_x
  _atom_site_fract_y
  _atom_site_fract_z
  _atom_site_occupancy
  Os  Os1       1.0  0.37500  0.37500  0.37500  1.0000
  Os  Os2       1.0  0.62700  0.62700  0.62700  1.0000
  Os  Os3       1.0  0.87900  0.87900  0.87900  1.0000
  V   V1        1.0  0.00061  0.00061  0.00061  1.0000
  V   V2        1.0  0.49600  0.49600  0.49600  1.0000
  Zr  Zr1       1.0  0.24100  0.24100  0.24100  1.0000
  Zr  Zr2       1.0  0.75600  0.75600  0.75600  1.0000
