data_image0
_chemical_formula_structural       Ca2O2Pb2S2
_chemical_formula_sum              "Ca2 O2 Pb2 S2"
_cell_length_a       3.77308
_cell_length_b       3.77666
_cell_length_c       14.0428
_cell_angle_alpha    90
_cell_angle_beta     90
_cell_angle_gamma    119.969

_space_group_name_H-M_alt    "P 1"
_space_group_IT_number       1

loop_
  _space_group_symop_operation_xyz
  'x, y, z'

loop_
  _atom_site_type_symbol
  _atom_site_label
  _atom_site_symmetry_multiplicity
  _atom_site_fract_x
  _atom_site_fract_y
  _atom_site_fract_z
  _atom_site_occupancy
  Ca  Ca1       1.0  0.33300  0.66600  0.26100  1.0000
  Ca  Ca2       1.0  0.66700  0.33400  0.76100  1.0000
  O   O1        1.0  0.99900  0.99900  0.31900  1.0000
  O   O2        1.0  0.00050  0.00101  0.81900  1.0000
  Pb  Pb1       1.0  0.00000  0.99900  0.49100  1.0000
  Pb  Pb2       1.0  0.00033  0.00067  0.99100  1.0000
  S   S1        1.0  0.66700  0.33300  0.11700  1.0000
  S   S2        1.0  0.33300  0.66700  0.61700  1.0000
