data_image0
_chemical_formula_structural       Pt3Rb2Sb2
_chemical_formula_sum              "Pt3 Rb2 Sb2"
_cell_length_a       11.8511
_cell_length_b       11.8511
_cell_length_c       11.8511
_cell_angle_alpha    22.1501
_cell_angle_beta     22.1501
_cell_angle_gamma    22.1501

_space_group_name_H-M_alt    "P 1"
_space_group_IT_number       1

loop_
  _space_group_symop_operation_xyz
  'x, y, z'

loop_
  _atom_site_type_symbol
  _atom_site_label
  _atom_site_symmetry_multiplicity
  _atom_site_fract_x
  _atom_site_fract_y
  _atom_site_fract_z
  _atom_site_occupancy
  Pt  Pt1       1.0  0.35100  0.35100  0.35100  1.0000
  Pt  Pt2       1.0  0.65800  0.65800  0.65800  1.0000
  Pt  Pt3       1.0  0.84700  0.84700  0.84700  1.0000
  Rb  Rb1       1.0  0.25200  0.25200  0.25200  1.0000
  Rb  Rb2       1.0  0.75500  0.75500  0.75500  1.0000
  Sb  Sb1       1.0  0.00351  0.00351  0.00351  1.0000
  Sb  Sb2       1.0  0.50800  0.50800  0.50800  1.0000
