data_image0
_chemical_formula_structural       Cd3K2Sr2
_chemical_formula_sum              "Cd3 K2 Sr2"
_cell_length_a       10.0241
_cell_length_b       10.0241
_cell_length_c       10.0241
_cell_angle_alpha    33.9161
_cell_angle_beta     33.9161
_cell_angle_gamma    33.9161

_space_group_name_H-M_alt    "P 1"
_space_group_IT_number       1

loop_
  _space_group_symop_operation_xyz
  'x, y, z'

loop_
  _atom_site_type_symbol
  _atom_site_label
  _atom_site_symmetry_multiplicity
  _atom_site_fract_x
  _atom_site_fract_y
  _atom_site_fract_z
  _atom_site_occupancy
  Cd  Cd1       1.0  0.37100  0.37100  0.37100  1.0000
  Cd  Cd2       1.0  0.62600  0.62600  0.62600  1.0000
  Cd  Cd3       1.0  0.87800  0.87800  0.87800  1.0000
  K   K1        1.0  0.24700  0.24700  0.24700  1.0000
  K   K2        1.0  0.75200  0.75200  0.75200  1.0000
  Sr  Sr1       1.0  0.00157  0.00157  0.00157  1.0000
  Sr  Sr2       1.0  0.50000  0.50000  0.50000  1.0000
