data_image0
_chemical_formula_structural       Na2Pd3V2
_chemical_formula_sum              "Na2 Pd3 V2"
_cell_length_a       7.6436
_cell_length_b       7.6436
_cell_length_c       7.6436
_cell_angle_alpha    33.9939
_cell_angle_beta     33.9939
_cell_angle_gamma    33.9939

_space_group_name_H-M_alt    "P 1"
_space_group_IT_number       1

loop_
  _space_group_symop_operation_xyz
  'x, y, z'

loop_
  _atom_site_type_symbol
  _atom_site_label
  _atom_site_symmetry_multiplicity
  _atom_site_fract_x
  _atom_site_fract_y
  _atom_site_fract_z
  _atom_site_occupancy
  Na  Na1       1.0  0.23900  0.23900  0.23900  1.0000
  Na  Na2       1.0  0.75700  0.75700  0.75700  1.0000
  Pd  Pd1       1.0  0.37000  0.37000  0.37000  1.0000
  Pd  Pd2       1.0  0.62800  0.62800  0.62800  1.0000
  Pd  Pd3       1.0  0.88100  0.88100  0.88100  1.0000
  V   V1        1.0  0.00160  0.00160  0.00160  1.0000
  V   V2        1.0  0.49900  0.49900  0.49900  1.0000
