data_image0
_chemical_formula_structural       Nb2Pd3Rb2
_chemical_formula_sum              "Nb2 Pd3 Rb2"
_cell_length_a       11.1502
_cell_length_b       11.1502
_cell_length_c       11.1502
_cell_angle_alpha    23.6169
_cell_angle_beta     23.6169
_cell_angle_gamma    23.6169

_space_group_name_H-M_alt    "P 1"
_space_group_IT_number       1

loop_
  _space_group_symop_operation_xyz
  'x, y, z'

loop_
  _atom_site_type_symbol
  _atom_site_label
  _atom_site_symmetry_multiplicity
  _atom_site_fract_x
  _atom_site_fract_y
  _atom_site_fract_z
  _atom_site_occupancy
  Nb  Nb1       1.0  0.58900  0.58900  0.58900  1.0000
  Nb  Nb2       1.0  0.98200  0.98200  0.98200  1.0000
  Pd  Pd1       1.0  0.30400  0.30400  0.30400  1.0000
  Pd  Pd2       1.0  0.66800  0.66800  0.66800  1.0000
  Pd  Pd3       1.0  0.90300  0.90300  0.90300  1.0000
  Rb  Rb1       1.0  0.17400  0.17400  0.17400  1.0000
  Rb  Rb2       1.0  0.75500  0.75500  0.75500  1.0000
