data_image0
_chemical_formula_structural       Li4O5Si2
_chemical_formula_sum              "Li4 O5 Si2"
_cell_length_a       3.84246
_cell_length_b       7.00696
_cell_length_c       3.89036
_cell_angle_alpha    73.8825
_cell_angle_beta     90
_cell_angle_gamma    90

_space_group_name_H-M_alt    "P 1"
_space_group_IT_number       1

loop_
  _space_group_symop_operation_xyz
  'x, y, z'

loop_
  _atom_site_type_symbol
  _atom_site_label
  _atom_site_symmetry_multiplicity
  _atom_site_fract_x
  _atom_site_fract_y
  _atom_site_fract_z
  _atom_site_occupancy
  Li  Li1       1.0  0.00000  0.00000  0.00000  1.0000
  Li  Li2       1.0  0.00000  0.37600  0.31200  1.0000
  Li  Li3       1.0  0.50000  0.00000  0.50000  1.0000
  Li  Li4       1.0  0.00000  0.62400  0.68800  1.0000
  O   O1        1.0  0.50000  0.00000  0.00000  1.0000
  O   O2        1.0  0.00000  0.70000  0.15000  1.0000
  O   O3        1.0  0.50000  0.27500  0.36200  1.0000
  O   O4        1.0  0.50000  0.72500  0.63800  1.0000
  O   O5        1.0  0.00000  0.30000  0.85000  1.0000
  Si  Si1       1.0  0.50000  0.72200  0.13900  1.0000
  Si  Si2       1.0  0.50000  0.27800  0.86100  1.0000
