data_image0
_chemical_formula_structural       K2Ni3Sb2
_chemical_formula_sum              "K2 Ni3 Sb2"
_cell_length_a       11.6391
_cell_length_b       11.6391
_cell_length_c       11.6391
_cell_angle_alpha    21.3037
_cell_angle_beta     21.3037
_cell_angle_gamma    21.3037

_space_group_name_H-M_alt    "P 1"
_space_group_IT_number       1

loop_
  _space_group_symop_operation_xyz
  'x, y, z'

loop_
  _atom_site_type_symbol
  _atom_site_label
  _atom_site_symmetry_multiplicity
  _atom_site_fract_x
  _atom_site_fract_y
  _atom_site_fract_z
  _atom_site_occupancy
  K   K1        1.0  0.25100  0.25100  0.25100  1.0000
  K   K2        1.0  0.75700  0.75700  0.75700  1.0000
  Ni  Ni1       1.0  0.34600  0.34600  0.34600  1.0000
  Ni  Ni2       1.0  0.66400  0.66400  0.66400  1.0000
  Ni  Ni3       1.0  0.84700  0.84700  0.84700  1.0000
  Sb  Sb1       1.0  0.00437  0.00437  0.00437  1.0000
  Sb  Sb2       1.0  0.50700  0.50700  0.50700  1.0000
