data_image0
_chemical_formula_structural       Bi2K2Pd3
_chemical_formula_sum              "Bi2 K2 Pd3"
_cell_length_a       11.0124
_cell_length_b       11.0124
_cell_length_c       11.0124
_cell_angle_alpha    24.691
_cell_angle_beta     24.691
_cell_angle_gamma    24.691

_space_group_name_H-M_alt    "P 1"
_space_group_IT_number       1

loop_
  _space_group_symop_operation_xyz
  'x, y, z'

loop_
  _atom_site_type_symbol
  _atom_site_label
  _atom_site_symmetry_multiplicity
  _atom_site_fract_x
  _atom_site_fract_y
  _atom_site_fract_z
  _atom_site_occupancy
  Bi  Bi1       1.0  0.00244  0.00244  0.00244  1.0000
  Bi  Bi2       1.0  0.50500  0.50500  0.50500  1.0000
  K   K1        1.0  0.25000  0.25000  0.25000  1.0000
  K   K2        1.0  0.75600  0.75600  0.75600  1.0000
  Pd  Pd1       1.0  0.35100  0.35100  0.35100  1.0000
  Pd  Pd2       1.0  0.65700  0.65700  0.65700  1.0000
  Pd  Pd3       1.0  0.85300  0.85300  0.85300  1.0000
