data_image0
_chemical_formula_structural       Li4O5Rb2
_chemical_formula_sum              "Li4 O5 Rb2"
_cell_length_a       4.45414
_cell_length_b       7.52085
_cell_length_c       4.88921
_cell_angle_alpha    71.0318
_cell_angle_beta     90
_cell_angle_gamma    90

_space_group_name_H-M_alt    "P 1"
_space_group_IT_number       1

loop_
  _space_group_symop_operation_xyz
  'x, y, z'

loop_
  _atom_site_type_symbol
  _atom_site_label
  _atom_site_symmetry_multiplicity
  _atom_site_fract_x
  _atom_site_fract_y
  _atom_site_fract_z
  _atom_site_occupancy
  Li  Li1       1.0  0.00000  0.00000  0.00000  1.0000
  Li  Li2       1.0  0.00000  0.35200  0.32400  1.0000
  Li  Li3       1.0  0.50000  0.00000  0.50000  1.0000
  Li  Li4       1.0  0.00000  0.64800  0.67600  1.0000
  O   O1        1.0  0.50000  0.00000  0.00000  1.0000
  O   O2        1.0  0.00000  0.65400  0.17300  1.0000
  O   O3        1.0  0.50000  0.25900  0.37000  1.0000
  O   O4        1.0  0.50000  0.74100  0.63000  1.0000
  O   O5        1.0  0.00000  0.34600  0.82700  1.0000
  Rb  Rb1       1.0  0.50000  0.65200  0.17400  1.0000
  Rb  Rb2       1.0  0.50000  0.34800  0.82600  1.0000
