data_image0
_chemical_formula_structural       Mg2Pt3Sn2
_chemical_formula_sum              "Mg2 Pt3 Sn2"
_cell_length_a       7.85542
_cell_length_b       7.85542
_cell_length_c       7.85542
_cell_angle_alpha    33.7079
_cell_angle_beta     33.7079
_cell_angle_gamma    33.7079

_space_group_name_H-M_alt    "P 1"
_space_group_IT_number       1

loop_
  _space_group_symop_operation_xyz
  'x, y, z'

loop_
  _atom_site_type_symbol
  _atom_site_label
  _atom_site_symmetry_multiplicity
  _atom_site_fract_x
  _atom_site_fract_y
  _atom_site_fract_z
  _atom_site_occupancy
  Mg  Mg1       1.0  0.24500  0.24500  0.24500  1.0000
  Mg  Mg2       1.0  0.75400  0.75400  0.75400  1.0000
  Pt  Pt1       1.0  0.37500  0.37500  0.37500  1.0000
  Pt  Pt2       1.0  0.62500  0.62500  0.62500  1.0000
  Pt  Pt3       1.0  0.87500  0.87500  0.87500  1.0000
  Sn  Sn1       1.0  0.00348  0.00348  0.00348  1.0000
  Sn  Sn2       1.0  0.49700  0.49700  0.49700  1.0000
