data_image0
_chemical_formula_structural       Nb2Os3Ti2
_chemical_formula_sum              "Nb2 Os3 Ti2"
_cell_length_a       7.5398
_cell_length_b       7.5398
_cell_length_c       7.5398
_cell_angle_alpha    33.9029
_cell_angle_beta     33.9029
_cell_angle_gamma    33.9029

_space_group_name_H-M_alt    "P 1"
_space_group_IT_number       1

loop_
  _space_group_symop_operation_xyz
  'x, y, z'

loop_
  _atom_site_type_symbol
  _atom_site_label
  _atom_site_symmetry_multiplicity
  _atom_site_fract_x
  _atom_site_fract_y
  _atom_site_fract_z
  _atom_site_occupancy
  Nb  Nb1       1.0  0.00484  0.00484  0.00484  1.0000
  Nb  Nb2       1.0  0.49500  0.49500  0.49500  1.0000
  Os  Os1       1.0  0.37300  0.37300  0.37300  1.0000
  Os  Os2       1.0  0.62500  0.62500  0.62500  1.0000
  Os  Os3       1.0  0.87600  0.87600  0.87600  1.0000
  Ti  Ti1       1.0  0.24600  0.24600  0.24600  1.0000
  Ti  Ti2       1.0  0.75400  0.75400  0.75400  1.0000
