data_image0
_chemical_formula_structural       As2Os3Ti2
_chemical_formula_sum              "As2 Os3 Ti2"
_cell_length_a       7.3968
_cell_length_b       7.3968
_cell_length_c       7.3968
_cell_angle_alpha    33.4424
_cell_angle_beta     33.4424
_cell_angle_gamma    33.4424

_space_group_name_H-M_alt    "P 1"
_space_group_IT_number       1

loop_
  _space_group_symop_operation_xyz
  'x, y, z'

loop_
  _atom_site_type_symbol
  _atom_site_label
  _atom_site_symmetry_multiplicity
  _atom_site_fract_x
  _atom_site_fract_y
  _atom_site_fract_z
  _atom_site_occupancy
  As  As1       1.0  0.00861  0.00861  0.00861  1.0000
  As  As2       1.0  0.49300  0.49300  0.49300  1.0000
  Os  Os1       1.0  0.37200  0.37200  0.37200  1.0000
  Os  Os2       1.0  0.62700  0.62700  0.62700  1.0000
  Os  Os3       1.0  0.87700  0.87700  0.87700  1.0000
  Ti  Ti1       1.0  0.24300  0.24300  0.24300  1.0000
  Ti  Ti2       1.0  0.75500  0.75500  0.75500  1.0000
