data_image0
_chemical_formula_structural       As2Li4O5
_chemical_formula_sum              "As2 Li4 O5"
_cell_length_a       4.18534
_cell_length_b       6.89404
_cell_length_c       4.18529
_cell_angle_alpha    72.3294
_cell_angle_beta     90
_cell_angle_gamma    90

_space_group_name_H-M_alt    "P 1"
_space_group_IT_number       1

loop_
  _space_group_symop_operation_xyz
  'x, y, z'

loop_
  _atom_site_type_symbol
  _atom_site_label
  _atom_site_symmetry_multiplicity
  _atom_site_fract_x
  _atom_site_fract_y
  _atom_site_fract_z
  _atom_site_occupancy
  As  As1       1.0  0.50000  0.69800  0.15100  1.0000
  As  As2       1.0  0.50000  0.30200  0.84900  1.0000
  Li  Li1       1.0  0.00000  0.00000  0.00000  1.0000
  Li  Li2       1.0  0.00000  0.36800  0.31600  1.0000
  Li  Li3       1.0  0.50000  0.00000  0.50000  1.0000
  Li  Li4       1.0  0.00000  0.63200  0.68400  1.0000
  O   O1        1.0  0.50000  0.00000  0.00000  1.0000
  O   O2        1.0  0.00000  0.69700  0.15100  1.0000
  O   O3        1.0  0.50000  0.28400  0.35800  1.0000
  O   O4        1.0  0.50000  0.71600  0.64200  1.0000
  O   O5        1.0  0.00000  0.30300  0.84900  1.0000
