data_image0
_chemical_formula_structural       Hf2Mg2Ni3
_chemical_formula_sum              "Hf2 Mg2 Ni3"
_cell_length_a       7.43
_cell_length_b       7.43
_cell_length_c       7.43
_cell_angle_alpha    34.0854
_cell_angle_beta     34.0854
_cell_angle_gamma    34.0854

_space_group_name_H-M_alt    "P 1"
_space_group_IT_number       1

loop_
  _space_group_symop_operation_xyz
  'x, y, z'

loop_
  _atom_site_type_symbol
  _atom_site_label
  _atom_site_symmetry_multiplicity
  _atom_site_fract_x
  _atom_site_fract_y
  _atom_site_fract_z
  _atom_site_occupancy
  Hf  Hf1       1.0  0.24600  0.24600  0.24600  1.0000
  Hf  Hf2       1.0  0.75200  0.75200  0.75200  1.0000
  Mg  Mg1       1.0  0.00346  0.00346  0.00346  1.0000
  Mg  Mg2       1.0  0.49800  0.49800  0.49800  1.0000
  Ni  Ni1       1.0  0.37100  0.37100  0.37100  1.0000
  Ni  Ni2       1.0  0.62600  0.62600  0.62600  1.0000
  Ni  Ni3       1.0  0.87800  0.87800  0.87800  1.0000
