data_image0
_chemical_formula_structural       Mg2Ni3Ti2
_chemical_formula_sum              "Mg2 Ni3 Ti2"
_cell_length_a       7.18284
_cell_length_b       7.18284
_cell_length_c       7.18284
_cell_angle_alpha    34.1937
_cell_angle_beta     34.1937
_cell_angle_gamma    34.1937

_space_group_name_H-M_alt    "P 1"
_space_group_IT_number       1

loop_
  _space_group_symop_operation_xyz
  'x, y, z'

loop_
  _atom_site_type_symbol
  _atom_site_label
  _atom_site_symmetry_multiplicity
  _atom_site_fract_x
  _atom_site_fract_y
  _atom_site_fract_z
  _atom_site_occupancy
  Mg  Mg1       1.0  0.24400  0.24400  0.24400  1.0000
  Mg  Mg2       1.0  0.75400  0.75400  0.75400  1.0000
  Ni  Ni1       1.0  0.37100  0.37100  0.37100  1.0000
  Ni  Ni2       1.0  0.62400  0.62400  0.62400  1.0000
  Ni  Ni3       1.0  0.88000  0.88000  0.88000  1.0000
  Ti  Ti1       1.0  0.00389  0.00389  0.00389  1.0000
  Ti  Ti2       1.0  0.49800  0.49800  0.49800  1.0000
