data_image0
_chemical_formula_structural       Ni2O2Pb2S2
_chemical_formula_sum              "Ni2 O2 Pb2 S2"
_cell_length_a       3.48945
_cell_length_b       3.49347
_cell_length_c       13.0774
_cell_angle_alpha    90
_cell_angle_beta     90
_cell_angle_gamma    119.962

_space_group_name_H-M_alt    "P 1"
_space_group_IT_number       1

loop_
  _space_group_symop_operation_xyz
  'x, y, z'

loop_
  _atom_site_type_symbol
  _atom_site_label
  _atom_site_symmetry_multiplicity
  _atom_site_fract_x
  _atom_site_fract_y
  _atom_site_fract_z
  _atom_site_occupancy
  Ni  Ni1       1.0  0.33300  0.66600  0.25000  1.0000
  Ni  Ni2       1.0  0.66700  0.33400  0.75000  1.0000
  O   O1        1.0  0.99800  0.99700  0.31100  1.0000
  O   O2        1.0  0.00152  0.00304  0.81100  1.0000
  Pb  Pb1       1.0  0.00000  0.99900  0.48700  1.0000
  Pb  Pb2       1.0  0.00034  0.00068  0.98700  1.0000
  S   S1        1.0  0.66700  0.33400  0.14000  1.0000
  S   S2        1.0  0.33300  0.66600  0.64000  1.0000
