data_image0
_chemical_formula_structural       Cs2Pd3Sb2
_chemical_formula_sum              "Cs2 Pd3 Sb2"
_cell_length_a       12.5209
_cell_length_b       12.5209
_cell_length_c       12.5209
_cell_angle_alpha    21.0641
_cell_angle_beta     21.0641
_cell_angle_gamma    21.0641

_space_group_name_H-M_alt    "P 1"
_space_group_IT_number       1

loop_
  _space_group_symop_operation_xyz
  'x, y, z'

loop_
  _atom_site_type_symbol
  _atom_site_label
  _atom_site_symmetry_multiplicity
  _atom_site_fract_x
  _atom_site_fract_y
  _atom_site_fract_z
  _atom_site_occupancy
  Cs  Cs1       1.0  0.25100  0.25100  0.25100  1.0000
  Cs  Cs2       1.0  0.75600  0.75600  0.75600  1.0000
  Pd  Pd1       1.0  0.35000  0.35000  0.35000  1.0000
  Pd  Pd2       1.0  0.66000  0.66000  0.66000  1.0000
  Pd  Pd3       1.0  0.84700  0.84700  0.84700  1.0000
  Sb  Sb1       1.0  0.00460  0.00460  0.00460  1.0000
  Sb  Sb2       1.0  0.50500  0.50500  0.50500  1.0000
