data_image0
_chemical_formula_structural       As2Pd3Rb2
_chemical_formula_sum              "As2 Pd3 Rb2"
_cell_length_a       10.378
_cell_length_b       10.378
_cell_length_c       10.378
_cell_angle_alpha    24.8317
_cell_angle_beta     24.8317
_cell_angle_gamma    24.8317

_space_group_name_H-M_alt    "P 1"
_space_group_IT_number       1

loop_
  _space_group_symop_operation_xyz
  'x, y, z'

loop_
  _atom_site_type_symbol
  _atom_site_label
  _atom_site_symmetry_multiplicity
  _atom_site_fract_x
  _atom_site_fract_y
  _atom_site_fract_z
  _atom_site_occupancy
  As  As1       1.0  0.56100  0.56100  0.56100  1.0000
  As  As2       1.0  0.00000  0.00000  0.00000  1.0000
  Pd  Pd1       1.0  0.34200  0.34200  0.34200  1.0000
  Pd  Pd2       1.0  0.64000  0.64000  0.64000  1.0000
  Pd  Pd3       1.0  0.91800  0.91800  0.91800  1.0000
  Rb  Rb1       1.0  0.16700  0.16700  0.16700  1.0000
  Rb  Rb2       1.0  0.74800  0.74800  0.74800  1.0000
