data_image0
_chemical_formula_structural       Ba2Na2Zn3
_chemical_formula_sum              "Ba2 Na2 Zn3"
_cell_length_a       9.27564
_cell_length_b       9.27564
_cell_length_c       9.27564
_cell_angle_alpha    34.1719
_cell_angle_beta     34.1719
_cell_angle_gamma    34.1719

_space_group_name_H-M_alt    "P 1"
_space_group_IT_number       1

loop_
  _space_group_symop_operation_xyz
  'x, y, z'

loop_
  _atom_site_type_symbol
  _atom_site_label
  _atom_site_symmetry_multiplicity
  _atom_site_fract_x
  _atom_site_fract_y
  _atom_site_fract_z
  _atom_site_occupancy
  Ba  Ba1       1.0  0.24500  0.24500  0.24500  1.0000
  Ba  Ba2       1.0  0.75200  0.75200  0.75200  1.0000
  Na  Na1       1.0  0.00084  0.00084  0.00084  1.0000
  Na  Na2       1.0  0.50000  0.50000  0.50000  1.0000
  Zn  Zn1       1.0  0.37000  0.37000  0.37000  1.0000
  Zn  Zn2       1.0  0.62500  0.62500  0.62500  1.0000
  Zn  Zn3       1.0  0.88000  0.88000  0.88000  1.0000
