data_image0
_chemical_formula_structural       Ca2Pd3Si2
_chemical_formula_sum              "Ca2 Pd3 Si2"
_cell_length_a       7.97536
_cell_length_b       7.97536
_cell_length_c       7.97536
_cell_angle_alpha    33.115
_cell_angle_beta     33.115
_cell_angle_gamma    33.115

_space_group_name_H-M_alt    "P 1"
_space_group_IT_number       1

loop_
  _space_group_symop_operation_xyz
  'x, y, z'

loop_
  _atom_site_type_symbol
  _atom_site_label
  _atom_site_symmetry_multiplicity
  _atom_site_fract_x
  _atom_site_fract_y
  _atom_site_fract_z
  _atom_site_occupancy
  Ca  Ca1       1.0  0.23900  0.23900  0.23900  1.0000
  Ca  Ca2       1.0  0.75800  0.75800  0.75800  1.0000
  Pd  Pd1       1.0  0.36200  0.36200  0.36200  1.0000
  Pd  Pd2       1.0  0.62800  0.62800  0.62800  1.0000
  Pd  Pd3       1.0  0.88300  0.88300  0.88300  1.0000
  Si  Si1       1.0  0.50900  0.50900  0.50900  1.0000
  Si  Si2       1.0  0.99600  0.99600  0.99600  1.0000
