data_image0
_chemical_formula_structural       Ge2Ni3Sr2
_chemical_formula_sum              "Ge2 Ni3 Sr2"
_cell_length_a       10.2944
_cell_length_b       10.2944
_cell_length_c       10.2944
_cell_angle_alpha    23.1154
_cell_angle_beta     23.1154
_cell_angle_gamma    23.1154

_space_group_name_H-M_alt    "P 1"
_space_group_IT_number       1

loop_
  _space_group_symop_operation_xyz
  'x, y, z'

loop_
  _atom_site_type_symbol
  _atom_site_label
  _atom_site_symmetry_multiplicity
  _atom_site_fract_x
  _atom_site_fract_y
  _atom_site_fract_z
  _atom_site_occupancy
  Ge  Ge1       1.0  0.00416  0.00416  0.00416  1.0000
  Ge  Ge2       1.0  0.50600  0.50600  0.50600  1.0000
  Ni  Ni1       1.0  0.34900  0.34900  0.34900  1.0000
  Ni  Ni2       1.0  0.66000  0.66000  0.66000  1.0000
  Ni  Ni3       1.0  0.85000  0.85000  0.85000  1.0000
  Sr  Sr1       1.0  0.25000  0.25000  0.25000  1.0000
  Sr  Sr2       1.0  0.75600  0.75600  0.75600  1.0000
