data_image0
_chemical_formula_structural       Cd3Mg2Rb2
_chemical_formula_sum              "Cd3 Mg2 Rb2"
_cell_length_a       10.1666
_cell_length_b       10.1666
_cell_length_c       10.1666
_cell_angle_alpha    31.3887
_cell_angle_beta     31.3887
_cell_angle_gamma    31.3887

_space_group_name_H-M_alt    "P 1"
_space_group_IT_number       1

loop_
  _space_group_symop_operation_xyz
  'x, y, z'

loop_
  _atom_site_type_symbol
  _atom_site_label
  _atom_site_symmetry_multiplicity
  _atom_site_fract_x
  _atom_site_fract_y
  _atom_site_fract_z
  _atom_site_occupancy
  Cd  Cd1       1.0  0.35500  0.35500  0.35500  1.0000
  Cd  Cd2       1.0  0.63700  0.63700  0.63700  1.0000
  Cd  Cd3       1.0  0.87700  0.87700  0.87700  1.0000
  Mg  Mg1       1.0  0.51800  0.51800  0.51800  1.0000
  Mg  Mg2       1.0  0.98900  0.98900  0.98900  1.0000
  Rb  Rb1       1.0  0.24200  0.24200  0.24200  1.0000
  Rb  Rb2       1.0  0.75800  0.75800  0.75800  1.0000
