data_image0
_chemical_formula_structural       As2K2Ni3
_chemical_formula_sum              "As2 K2 Ni3"
_cell_length_a       11.4282
_cell_length_b       11.4282
_cell_length_c       11.4282
_cell_angle_alpha    20.34
_cell_angle_beta     20.34
_cell_angle_gamma    20.34

_space_group_name_H-M_alt    "P 1"
_space_group_IT_number       1

loop_
  _space_group_symop_operation_xyz
  'x, y, z'

loop_
  _atom_site_type_symbol
  _atom_site_label
  _atom_site_symmetry_multiplicity
  _atom_site_fract_x
  _atom_site_fract_y
  _atom_site_fract_z
  _atom_site_occupancy
  As  As1       1.0  0.00425  0.00425  0.00425  1.0000
  As  As2       1.0  0.50800  0.50800  0.50800  1.0000
  K   K1        1.0  0.25100  0.25100  0.25100  1.0000
  K   K2        1.0  0.75700  0.75700  0.75700  1.0000
  Ni  Ni1       1.0  0.34700  0.34700  0.34700  1.0000
  Ni  Ni2       1.0  0.66200  0.66200  0.66200  1.0000
  Ni  Ni3       1.0  0.84600  0.84600  0.84600  1.0000
