data_image0
_chemical_formula_structural       As2Cs2Pt3
_chemical_formula_sum              "As2 Cs2 Pt3"
_cell_length_a       11.4369
_cell_length_b       11.4369
_cell_length_c       11.4369
_cell_angle_alpha    22.3673
_cell_angle_beta     22.3673
_cell_angle_gamma    22.3673

_space_group_name_H-M_alt    "P 1"
_space_group_IT_number       1

loop_
  _space_group_symop_operation_xyz
  'x, y, z'

loop_
  _atom_site_type_symbol
  _atom_site_label
  _atom_site_symmetry_multiplicity
  _atom_site_fract_x
  _atom_site_fract_y
  _atom_site_fract_z
  _atom_site_occupancy
  As  As1       1.0  0.00297  0.00297  0.00297  1.0000
  As  As2       1.0  0.57800  0.57800  0.57800  1.0000
  Cs  Cs1       1.0  0.17700  0.17700  0.17700  1.0000
  Cs  Cs2       1.0  0.75000  0.75000  0.75000  1.0000
  Pt  Pt1       1.0  0.29000  0.29000  0.29000  1.0000
  Pt  Pt2       1.0  0.65500  0.65500  0.65500  1.0000
  Pt  Pt3       1.0  0.92200  0.92200  0.92200  1.0000
