data_image0
_chemical_formula_structural       Ca2Ni3Zr2
_chemical_formula_sum              "Ca2 Ni3 Zr2"
_cell_length_a       7.96056
_cell_length_b       7.96056
_cell_length_c       7.96056
_cell_angle_alpha    33.8201
_cell_angle_beta     33.8201
_cell_angle_gamma    33.8201

_space_group_name_H-M_alt    "P 1"
_space_group_IT_number       1

loop_
  _space_group_symop_operation_xyz
  'x, y, z'

loop_
  _atom_site_type_symbol
  _atom_site_label
  _atom_site_symmetry_multiplicity
  _atom_site_fract_x
  _atom_site_fract_y
  _atom_site_fract_z
  _atom_site_occupancy
  Ca  Ca1       1.0  0.24600  0.24600  0.24600  1.0000
  Ca  Ca2       1.0  0.75300  0.75300  0.75300  1.0000
  Ni  Ni1       1.0  0.37100  0.37100  0.37100  1.0000
  Ni  Ni2       1.0  0.62500  0.62500  0.62500  1.0000
  Ni  Ni3       1.0  0.87800  0.87800  0.87800  1.0000
  Zr  Zr1       1.0  0.00440  0.00440  0.00440  1.0000
  Zr  Zr2       1.0  0.49700  0.49700  0.49700  1.0000
