data_image0
_chemical_formula_structural       Ba2Li4O5
_chemical_formula_sum              "Ba2 Li4 O5"
_cell_length_a       4.80095
_cell_length_b       7.66563
_cell_length_c       4.99961
_cell_angle_alpha    70.9674
_cell_angle_beta     90
_cell_angle_gamma    90

_space_group_name_H-M_alt    "P 1"
_space_group_IT_number       1

loop_
  _space_group_symop_operation_xyz
  'x, y, z'

loop_
  _atom_site_type_symbol
  _atom_site_label
  _atom_site_symmetry_multiplicity
  _atom_site_fract_x
  _atom_site_fract_y
  _atom_site_fract_z
  _atom_site_occupancy
  Ba  Ba1       1.0  0.50000  0.66900  0.16500  1.0000
  Ba  Ba2       1.0  0.50000  0.33100  0.83500  1.0000
  Li  Li1       1.0  0.00000  0.00000  0.00000  1.0000
  Li  Li2       1.0  0.00000  0.36900  0.31600  1.0000
  Li  Li3       1.0  0.50000  0.00000  0.50000  1.0000
  Li  Li4       1.0  0.00000  0.63100  0.68400  1.0000
  O   O1        1.0  0.50000  0.00000  0.00000  1.0000
  O   O2        1.0  0.00000  0.65600  0.17200  1.0000
  O   O3        1.0  0.50000  0.27400  0.36300  1.0000
  O   O4        1.0  0.50000  0.72600  0.63700  1.0000
  O   O5        1.0  0.00000  0.34400  0.82800  1.0000
