data_image0
_chemical_formula_structural       Mg2Pb2Pd3
_chemical_formula_sum              "Mg2 Pb2 Pd3"
_cell_length_a       7.95549
_cell_length_b       7.95549
_cell_length_c       7.95549
_cell_angle_alpha    33.9476
_cell_angle_beta     33.9476
_cell_angle_gamma    33.9476

_space_group_name_H-M_alt    "P 1"
_space_group_IT_number       1

loop_
  _space_group_symop_operation_xyz
  'x, y, z'

loop_
  _atom_site_type_symbol
  _atom_site_label
  _atom_site_symmetry_multiplicity
  _atom_site_fract_x
  _atom_site_fract_y
  _atom_site_fract_z
  _atom_site_occupancy
  Mg  Mg1       1.0  0.24600  0.24600  0.24600  1.0000
  Mg  Mg2       1.0  0.75300  0.75300  0.75300  1.0000
  Pb  Pb1       1.0  0.00512  0.00512  0.00512  1.0000
  Pb  Pb2       1.0  0.49600  0.49600  0.49600  1.0000
  Pd  Pd1       1.0  0.37200  0.37200  0.37200  1.0000
  Pd  Pd2       1.0  0.62500  0.62500  0.62500  1.0000
  Pd  Pd3       1.0  0.87800  0.87800  0.87800  1.0000
