data_image0
_chemical_formula_structural       Bi2Pt3Rb2
_chemical_formula_sum              "Bi2 Pt3 Rb2"
_cell_length_a       12.1633
_cell_length_b       12.1633
_cell_length_c       12.1633
_cell_angle_alpha    22.5013
_cell_angle_beta     22.5013
_cell_angle_gamma    22.5013

_space_group_name_H-M_alt    "P 1"
_space_group_IT_number       1

loop_
  _space_group_symop_operation_xyz
  'x, y, z'

loop_
  _atom_site_type_symbol
  _atom_site_label
  _atom_site_symmetry_multiplicity
  _atom_site_fract_x
  _atom_site_fract_y
  _atom_site_fract_z
  _atom_site_occupancy
  Bi  Bi1       1.0  0.00331  0.00331  0.00331  1.0000
  Bi  Bi2       1.0  0.50800  0.50800  0.50800  1.0000
  Pt  Pt1       1.0  0.34800  0.34800  0.34800  1.0000
  Pt  Pt2       1.0  0.66100  0.66100  0.66100  1.0000
  Pt  Pt3       1.0  0.84800  0.84800  0.84800  1.0000
  Rb  Rb1       1.0  0.25200  0.25200  0.25200  1.0000
  Rb  Rb2       1.0  0.75500  0.75500  0.75500  1.0000
