data_image0
_chemical_formula_structural       Ni3Rb2Sb2
_chemical_formula_sum              "Ni3 Rb2 Sb2"
_cell_length_a       12.3213
_cell_length_b       12.3213
_cell_length_c       12.3213
_cell_angle_alpha    20.2148
_cell_angle_beta     20.2148
_cell_angle_gamma    20.2148

_space_group_name_H-M_alt    "P 1"
_space_group_IT_number       1

loop_
  _space_group_symop_operation_xyz
  'x, y, z'

loop_
  _atom_site_type_symbol
  _atom_site_label
  _atom_site_symmetry_multiplicity
  _atom_site_fract_x
  _atom_site_fract_y
  _atom_site_fract_z
  _atom_site_occupancy
  Ni  Ni1       1.0  0.34500  0.34500  0.34500  1.0000
  Ni  Ni2       1.0  0.66500  0.66500  0.66500  1.0000
  Ni  Ni3       1.0  0.84500  0.84500  0.84500  1.0000
  Rb  Rb1       1.0  0.25100  0.25100  0.25100  1.0000
  Rb  Rb2       1.0  0.75700  0.75700  0.75700  1.0000
  Sb  Sb1       1.0  0.00475  0.00475  0.00475  1.0000
  Sb  Sb2       1.0  0.50700  0.50700  0.50700  1.0000
