data_image0
_chemical_formula_structural       O2Pb4S2
_chemical_formula_sum              "O2 Pb4 S2"
_cell_length_a       4.00189
_cell_length_b       4.00253
_cell_length_c       14.1287
_cell_angle_alpha    90
_cell_angle_beta     90
_cell_angle_gamma    119.995

_space_group_name_H-M_alt    "P 1"
_space_group_IT_number       1

loop_
  _space_group_symop_operation_xyz
  'x, y, z'

loop_
  _atom_site_type_symbol
  _atom_site_label
  _atom_site_symmetry_multiplicity
  _atom_site_fract_x
  _atom_site_fract_y
  _atom_site_fract_z
  _atom_site_occupancy
  O   O1        1.0  0.00013  0.00025  0.32400  1.0000
  O   O2        1.0  0.00000  0.00000  0.82400  1.0000
  Pb  Pb1       1.0  0.33300  0.66600  0.25900  1.0000
  Pb  Pb2       1.0  0.00019  0.00038  0.49700  1.0000
  Pb  Pb3       1.0  0.66700  0.33400  0.75900  1.0000
  Pb  Pb4       1.0  0.00000  0.00000  0.99700  1.0000
  S   S1        1.0  0.66700  0.33300  0.10800  1.0000
  S   S2        1.0  0.33300  0.66700  0.60800  1.0000
