data_image0
_chemical_formula_structural       Pd3Sr2Zr2
_chemical_formula_sum              "Pd3 Sr2 Zr2"
_cell_length_a       9.01341
_cell_length_b       9.01341
_cell_length_c       9.01341
_cell_angle_alpha    31.0889
_cell_angle_beta     31.0889
_cell_angle_gamma    31.0889

_space_group_name_H-M_alt    "P 1"
_space_group_IT_number       1

loop_
  _space_group_symop_operation_xyz
  'x, y, z'

loop_
  _atom_site_type_symbol
  _atom_site_label
  _atom_site_symmetry_multiplicity
  _atom_site_fract_x
  _atom_site_fract_y
  _atom_site_fract_z
  _atom_site_occupancy
  Pd  Pd1       1.0  0.36200  0.36200  0.36200  1.0000
  Pd  Pd2       1.0  0.63300  0.63300  0.63300  1.0000
  Pd  Pd3       1.0  0.87200  0.87200  0.87200  1.0000
  Sr  Sr1       1.0  0.24700  0.24700  0.24700  1.0000
  Sr  Sr2       1.0  0.75400  0.75400  0.75400  1.0000
  Zr  Zr1       1.0  0.51400  0.51400  0.51400  1.0000
  Zr  Zr2       1.0  0.99300  0.99300  0.99300  1.0000
