data_image0
_chemical_formula_structural       Ni3Pb2Sr2
_chemical_formula_sum              "Ni3 Pb2 Sr2"
_cell_length_a       8.62424
_cell_length_b       8.62424
_cell_length_c       8.62424
_cell_angle_alpha    32.2679
_cell_angle_beta     32.2679
_cell_angle_gamma    32.2679

_space_group_name_H-M_alt    "P 1"
_space_group_IT_number       1

loop_
  _space_group_symop_operation_xyz
  'x, y, z'

loop_
  _atom_site_type_symbol
  _atom_site_label
  _atom_site_symmetry_multiplicity
  _atom_site_fract_x
  _atom_site_fract_y
  _atom_site_fract_z
  _atom_site_occupancy
  Ni  Ni1       1.0  0.36200  0.36200  0.36200  1.0000
  Ni  Ni2       1.0  0.62700  0.62700  0.62700  1.0000
  Ni  Ni3       1.0  0.88000  0.88000  0.88000  1.0000
  Pb  Pb1       1.0  0.50800  0.50800  0.50800  1.0000
  Pb  Pb2       1.0  0.99700  0.99700  0.99700  1.0000
  Sr  Sr1       1.0  0.24600  0.24600  0.24600  1.0000
  Sr  Sr2       1.0  0.75500  0.75500  0.75500  1.0000
