data_image0
_chemical_formula_structural       Ba2Hg3Li2
_chemical_formula_sum              "Ba2 Hg3 Li2"
_cell_length_a       9.05763
_cell_length_b       9.05763
_cell_length_c       9.05763
_cell_angle_alpha    36.2242
_cell_angle_beta     36.2242
_cell_angle_gamma    36.2242

_space_group_name_H-M_alt    "P 1"
_space_group_IT_number       1

loop_
  _space_group_symop_operation_xyz
  'x, y, z'

loop_
  _atom_site_type_symbol
  _atom_site_label
  _atom_site_symmetry_multiplicity
  _atom_site_fract_x
  _atom_site_fract_y
  _atom_site_fract_z
  _atom_site_occupancy
  Ba  Ba1       1.0  0.24100  0.24100  0.24100  1.0000
  Ba  Ba2       1.0  0.75300  0.75300  0.75300  1.0000
  Hg  Hg1       1.0  0.37500  0.37500  0.37500  1.0000
  Hg  Hg2       1.0  0.61900  0.61900  0.61900  1.0000
  Hg  Hg3       1.0  0.88500  0.88500  0.88500  1.0000
  Li  Li1       1.0  0.50400  0.50400  0.50400  1.0000
  Li  Li2       1.0  0.99700  0.99700  0.99700  1.0000
