data_image0
_chemical_formula_structural       Ba2Hf2Pt3
_chemical_formula_sum              "Ba2 Hf2 Pt3"
_cell_length_a       11.0268
_cell_length_b       11.0268
_cell_length_c       11.0268
_cell_angle_alpha    23.8325
_cell_angle_beta     23.8325
_cell_angle_gamma    23.8325

_space_group_name_H-M_alt    "P 1"
_space_group_IT_number       1

loop_
  _space_group_symop_operation_xyz
  'x, y, z'

loop_
  _atom_site_type_symbol
  _atom_site_label
  _atom_site_symmetry_multiplicity
  _atom_site_fract_x
  _atom_site_fract_y
  _atom_site_fract_z
  _atom_site_occupancy
  Ba  Ba1       1.0  0.25200  0.25200  0.25200  1.0000
  Ba  Ba2       1.0  0.75400  0.75400  0.75400  1.0000
  Hf  Hf1       1.0  0.00372  0.00372  0.00372  1.0000
  Hf  Hf2       1.0  0.50500  0.50500  0.50500  1.0000
  Pt  Pt1       1.0  0.35900  0.35900  0.35900  1.0000
  Pt  Pt2       1.0  0.64900  0.64900  0.64900  1.0000
  Pt  Pt3       1.0  0.85200  0.85200  0.85200  1.0000
