data_image0
_chemical_formula_structural       Co4Cr4Si4
_chemical_formula_sum              "Co4 Cr4 Si4"
_cell_length_a       5.7231
_cell_length_b       3.60169
_cell_length_c       6.70503
_cell_angle_alpha    90
_cell_angle_beta     90
_cell_angle_gamma    90

_space_group_name_H-M_alt    "P 1"
_space_group_IT_number       1

loop_
  _space_group_symop_operation_xyz
  'x, y, z'

loop_
  _atom_site_type_symbol
  _atom_site_label
  _atom_site_symmetry_multiplicity
  _atom_site_fract_x
  _atom_site_fract_y
  _atom_site_fract_z
  _atom_site_occupancy
  Co  Co1       1.0  0.14600  0.25000  0.05770  1.0000
  Co  Co2       1.0  0.64600  0.25000  0.44200  1.0000
  Co  Co3       1.0  0.35400  0.75000  0.55800  1.0000
  Co  Co4       1.0  0.85400  0.75000  0.94200  1.0000
  Cr  Cr1       1.0  0.47300  0.75000  0.18100  1.0000
  Cr  Cr2       1.0  0.97300  0.75000  0.31900  1.0000
  Cr  Cr3       1.0  0.02650  0.25000  0.68100  1.0000
  Cr  Cr4       1.0  0.52700  0.25000  0.81900  1.0000
  Si  Si1       1.0  0.75800  0.25000  0.12400  1.0000
  Si  Si2       1.0  0.25800  0.25000  0.37600  1.0000
  Si  Si3       1.0  0.74200  0.75000  0.62400  1.0000
  Si  Si4       1.0  0.24200  0.75000  0.87600  1.0000
