data_image0
_chemical_formula_structural       Ge2Mg2Pd3
_chemical_formula_sum              "Ge2 Mg2 Pd3"
_cell_length_a       7.50965
_cell_length_b       7.50965
_cell_length_c       7.50965
_cell_angle_alpha    34.1075
_cell_angle_beta     34.1075
_cell_angle_gamma    34.1075

_space_group_name_H-M_alt    "P 1"
_space_group_IT_number       1

loop_
  _space_group_symop_operation_xyz
  'x, y, z'

loop_
  _atom_site_type_symbol
  _atom_site_label
  _atom_site_symmetry_multiplicity
  _atom_site_fract_x
  _atom_site_fract_y
  _atom_site_fract_z
  _atom_site_occupancy
  Ge  Ge1       1.0  0.00305  0.00305  0.00305  1.0000
  Ge  Ge2       1.0  0.49800  0.49800  0.49800  1.0000
  Mg  Mg1       1.0  0.23900  0.23900  0.23900  1.0000
  Mg  Mg2       1.0  0.75600  0.75600  0.75600  1.0000
  Pd  Pd1       1.0  0.37200  0.37200  0.37200  1.0000
  Pd  Pd2       1.0  0.62700  0.62700  0.62700  1.0000
  Pd  Pd3       1.0  0.88000  0.88000  0.88000  1.0000
