data_image0
_chemical_formula_structural       K2Os3Ru2
_chemical_formula_sum              "K2 Os3 Ru2"
_cell_length_a       12.3503
_cell_length_b       12.3503
_cell_length_c       12.3503
_cell_angle_alpha    20.4881
_cell_angle_beta     20.4881
_cell_angle_gamma    20.4881

_space_group_name_H-M_alt    "P 1"
_space_group_IT_number       1

loop_
  _space_group_symop_operation_xyz
  'x, y, z'

loop_
  _atom_site_type_symbol
  _atom_site_label
  _atom_site_symmetry_multiplicity
  _atom_site_fract_x
  _atom_site_fract_y
  _atom_site_fract_z
  _atom_site_occupancy
  K   K1        1.0  0.22800  0.22800  0.22800  1.0000
  K   K2        1.0  0.78400  0.78400  0.78400  1.0000
  Os  Os1       1.0  0.31900  0.31900  0.31900  1.0000
  Os  Os2       1.0  0.63100  0.63100  0.63100  1.0000
  Os  Os3       1.0  0.98300  0.98300  0.98300  1.0000
  Ru  Ru1       1.0  0.04700  0.04700  0.04700  1.0000
  Ru  Ru2       1.0  0.38300  0.38300  0.38300  1.0000
