data_image0
_chemical_formula_structural       Be2Ge2Pt3
_chemical_formula_sum              "Be2 Ge2 Pt3"
_cell_length_a       7.29101
_cell_length_b       7.29101
_cell_length_c       7.29101
_cell_angle_alpha    33.142
_cell_angle_beta     33.142
_cell_angle_gamma    33.142

_space_group_name_H-M_alt    "P 1"
_space_group_IT_number       1

loop_
  _space_group_symop_operation_xyz
  'x, y, z'

loop_
  _atom_site_type_symbol
  _atom_site_label
  _atom_site_symmetry_multiplicity
  _atom_site_fract_x
  _atom_site_fract_y
  _atom_site_fract_z
  _atom_site_occupancy
  Be  Be1       1.0  0.24400  0.24400  0.24400  1.0000
  Be  Be2       1.0  0.75600  0.75600  0.75600  1.0000
  Ge  Ge1       1.0  0.00983  0.00983  0.00983  1.0000
  Ge  Ge2       1.0  0.49400  0.49400  0.49400  1.0000
  Pt  Pt1       1.0  0.37700  0.37700  0.37700  1.0000
  Pt  Pt2       1.0  0.62100  0.62100  0.62100  1.0000
  Pt  Pt3       1.0  0.87300  0.87300  0.87300  1.0000
