data_image0
_chemical_formula_structural       Fe4O2S2
_chemical_formula_sum              "Fe4 O2 S2"
_cell_length_a       3.49291
_cell_length_b       3.46972
_cell_length_c       11.3466
_cell_angle_alpha    90
_cell_angle_beta     90
_cell_angle_gamma    120.221

_space_group_name_H-M_alt    "P 1"
_space_group_IT_number       1

loop_
  _space_group_symop_operation_xyz
  'x, y, z'

loop_
  _atom_site_type_symbol
  _atom_site_label
  _atom_site_symmetry_multiplicity
  _atom_site_fract_x
  _atom_site_fract_y
  _atom_site_fract_z
  _atom_site_occupancy
  Fe  Fe1       1.0  0.29000  0.58100  0.26100  1.0000
  Fe  Fe2       1.0  0.04390  0.08790  0.49100  1.0000
  Fe  Fe3       1.0  0.71000  0.41900  0.76100  1.0000
  Fe  Fe4       1.0  0.95600  0.91200  0.99100  1.0000
  O   O1        1.0  0.94400  0.88700  0.33000  1.0000
  O   O2        1.0  0.05650  0.11300  0.83000  1.0000
  S   S1        1.0  0.62500  0.25000  0.10600  1.0000
  S   S2        1.0  0.37500  0.75000  0.60600  1.0000
