data_image0
_chemical_formula_structural       Ca2Li4O5
_chemical_formula_sum              "Ca2 Li4 O5"
_cell_length_a       4.44155
_cell_length_b       6.96965
_cell_length_c       4.49352
_cell_angle_alpha    71.1941
_cell_angle_beta     90
_cell_angle_gamma    90

_space_group_name_H-M_alt    "P 1"
_space_group_IT_number       1

loop_
  _space_group_symop_operation_xyz
  'x, y, z'

loop_
  _atom_site_type_symbol
  _atom_site_label
  _atom_site_symmetry_multiplicity
  _atom_site_fract_x
  _atom_site_fract_y
  _atom_site_fract_z
  _atom_site_occupancy
  Ca  Ca1       1.0  0.50000  0.67200  0.16400  1.0000
  Ca  Ca2       1.0  0.50000  0.32800  0.83600  1.0000
  Li  Li1       1.0  0.00000  0.00000  0.00000  1.0000
  Li  Li2       1.0  0.00000  0.36700  0.31600  1.0000
  Li  Li3       1.0  0.50000  0.00000  0.50000  1.0000
  Li  Li4       1.0  0.00000  0.63300  0.68400  1.0000
  O   O1        1.0  0.50000  0.00000  0.00000  1.0000
  O   O2        1.0  0.00000  0.68200  0.15900  1.0000
  O   O3        1.0  0.50000  0.30700  0.34600  1.0000
  O   O4        1.0  0.50000  0.69300  0.65400  1.0000
  O   O5        1.0  0.00000  0.31800  0.84100  1.0000
