data_image0
_chemical_formula_structural       Ba2Mn2Os3
_chemical_formula_sum              "Ba2 Mn2 Os3"
_cell_length_a       11.8934
_cell_length_b       11.8934
_cell_length_c       11.8934
_cell_angle_alpha    20.7788
_cell_angle_beta     20.7788
_cell_angle_gamma    20.7788

_space_group_name_H-M_alt    "P 1"
_space_group_IT_number       1

loop_
  _space_group_symop_operation_xyz
  'x, y, z'

loop_
  _atom_site_type_symbol
  _atom_site_label
  _atom_site_symmetry_multiplicity
  _atom_site_fract_x
  _atom_site_fract_y
  _atom_site_fract_z
  _atom_site_occupancy
  Ba  Ba1       1.0  0.18300  0.18300  0.18300  1.0000
  Ba  Ba2       1.0  0.73500  0.73500  0.73500  1.0000
  Mn  Mn1       1.0  0.00296  0.00296  0.00296  1.0000
  Mn  Mn2       1.0  0.57400  0.57400  0.57400  1.0000
  Os  Os1       1.0  0.30700  0.30700  0.30700  1.0000
  Os  Os2       1.0  0.64200  0.64200  0.64200  1.0000
  Os  Os3       1.0  0.93100  0.93100  0.93100  1.0000
