data_image0
_chemical_formula_structural       Ca2Cd3Rb2
_chemical_formula_sum              "Ca2 Cd3 Rb2"
_cell_length_a       10.0394
_cell_length_b       10.0394
_cell_length_c       10.0394
_cell_angle_alpha    33.6475
_cell_angle_beta     33.6475
_cell_angle_gamma    33.6475

_space_group_name_H-M_alt    "P 1"
_space_group_IT_number       1

loop_
  _space_group_symop_operation_xyz
  'x, y, z'

loop_
  _atom_site_type_symbol
  _atom_site_label
  _atom_site_symmetry_multiplicity
  _atom_site_fract_x
  _atom_site_fract_y
  _atom_site_fract_z
  _atom_site_occupancy
  Ca  Ca1       1.0  0.50500  0.50500  0.50500  1.0000
  Ca  Ca2       1.0  0.99600  0.99600  0.99600  1.0000
  Cd  Cd1       1.0  0.37100  0.37100  0.37100  1.0000
  Cd  Cd2       1.0  0.62600  0.62600  0.62600  1.0000
  Cd  Cd3       1.0  0.87800  0.87800  0.87800  1.0000
  Rb  Rb1       1.0  0.24500  0.24500  0.24500  1.0000
  Rb  Rb2       1.0  0.75400  0.75400  0.75400  1.0000
