data_image0
_chemical_formula_structural       Cs2Sr2Zn3
_chemical_formula_sum              "Cs2 Sr2 Zn3"
_cell_length_a       10.3066
_cell_length_b       10.3066
_cell_length_c       10.3066
_cell_angle_alpha    33.5203
_cell_angle_beta     33.5203
_cell_angle_gamma    33.5203

_space_group_name_H-M_alt    "P 1"
_space_group_IT_number       1

loop_
  _space_group_symop_operation_xyz
  'x, y, z'

loop_
  _atom_site_type_symbol
  _atom_site_label
  _atom_site_symmetry_multiplicity
  _atom_site_fract_x
  _atom_site_fract_y
  _atom_site_fract_z
  _atom_site_occupancy
  Cs  Cs1       1.0  0.24900  0.24900  0.24900  1.0000
  Cs  Cs2       1.0  0.75100  0.75100  0.75100  1.0000
  Sr  Sr1       1.0  0.50700  0.50700  0.50700  1.0000
  Sr  Sr2       1.0  0.99300  0.99300  0.99300  1.0000
  Zn  Zn1       1.0  0.37400  0.37400  0.37400  1.0000
  Zn  Zn2       1.0  0.62500  0.62500  0.62500  1.0000
  Zn  Zn3       1.0  0.87600  0.87600  0.87600  1.0000
