data_image0
_chemical_formula_structural       Mg2Pd3Si2
_chemical_formula_sum              "Mg2 Pd3 Si2"
_cell_length_a       7.3333
_cell_length_b       7.3333
_cell_length_c       7.3333
_cell_angle_alpha    34.096
_cell_angle_beta     34.096
_cell_angle_gamma    34.096

_space_group_name_H-M_alt    "P 1"
_space_group_IT_number       1

loop_
  _space_group_symop_operation_xyz
  'x, y, z'

loop_
  _atom_site_type_symbol
  _atom_site_label
  _atom_site_symmetry_multiplicity
  _atom_site_fract_x
  _atom_site_fract_y
  _atom_site_fract_z
  _atom_site_occupancy
  Mg  Mg1       1.0  0.23700  0.23700  0.23700  1.0000
  Mg  Mg2       1.0  0.75700  0.75700  0.75700  1.0000
  Pd  Pd1       1.0  0.37200  0.37200  0.37200  1.0000
  Pd  Pd2       1.0  0.62800  0.62800  0.62800  1.0000
  Pd  Pd3       1.0  0.88000  0.88000  0.88000  1.0000
  Si  Si1       1.0  0.00198  0.00198  0.00198  1.0000
  Si  Si2       1.0  0.49800  0.49800  0.49800  1.0000
