data_image0
_chemical_formula_structural       Cd3Cs2Sr2
_chemical_formula_sum              "Cd3 Cs2 Sr2"
_cell_length_a       10.7534
_cell_length_b       10.7534
_cell_length_c       10.7534
_cell_angle_alpha    32.8385
_cell_angle_beta     32.8385
_cell_angle_gamma    32.8385

_space_group_name_H-M_alt    "P 1"
_space_group_IT_number       1

loop_
  _space_group_symop_operation_xyz
  'x, y, z'

loop_
  _atom_site_type_symbol
  _atom_site_label
  _atom_site_symmetry_multiplicity
  _atom_site_fract_x
  _atom_site_fract_y
  _atom_site_fract_z
  _atom_site_occupancy
  Cd  Cd1       1.0  0.36900  0.36900  0.36900  1.0000
  Cd  Cd2       1.0  0.62900  0.62900  0.62900  1.0000
  Cd  Cd3       1.0  0.87500  0.87500  0.87500  1.0000
  Cs  Cs1       1.0  0.24800  0.24800  0.24800  1.0000
  Cs  Cs2       1.0  0.75300  0.75300  0.75300  1.0000
  Sr  Sr1       1.0  0.50800  0.50800  0.50800  1.0000
  Sr  Sr2       1.0  0.99300  0.99300  0.99300  1.0000
