data_image0
_chemical_formula_structural       Mg2Pd3Sn2
_chemical_formula_sum              "Mg2 Pd3 Sn2"
_cell_length_a       7.80756
_cell_length_b       7.80756
_cell_length_c       7.80756
_cell_angle_alpha    33.9084
_cell_angle_beta     33.9084
_cell_angle_gamma    33.9084

_space_group_name_H-M_alt    "P 1"
_space_group_IT_number       1

loop_
  _space_group_symop_operation_xyz
  'x, y, z'

loop_
  _atom_site_type_symbol
  _atom_site_label
  _atom_site_symmetry_multiplicity
  _atom_site_fract_x
  _atom_site_fract_y
  _atom_site_fract_z
  _atom_site_occupancy
  Mg  Mg1       1.0  0.24500  0.24500  0.24500  1.0000
  Mg  Mg2       1.0  0.75400  0.75400  0.75400  1.0000
  Pd  Pd1       1.0  0.37300  0.37300  0.37300  1.0000
  Pd  Pd2       1.0  0.62500  0.62500  0.62500  1.0000
  Pd  Pd3       1.0  0.87700  0.87700  0.87700  1.0000
  Sn  Sn1       1.0  0.00345  0.00345  0.00345  1.0000
  Sn  Sn2       1.0  0.49700  0.49700  0.49700  1.0000
