data_image0
_chemical_formula_structural       Be2Pd3Ti2
_chemical_formula_sum              "Be2 Pd3 Ti2"
_cell_length_a       7.08227
_cell_length_b       7.08227
_cell_length_c       7.08227
_cell_angle_alpha    34.4285
_cell_angle_beta     34.4285
_cell_angle_gamma    34.4285

_space_group_name_H-M_alt    "P 1"
_space_group_IT_number       1

loop_
  _space_group_symop_operation_xyz
  'x, y, z'

loop_
  _atom_site_type_symbol
  _atom_site_label
  _atom_site_symmetry_multiplicity
  _atom_site_fract_x
  _atom_site_fract_y
  _atom_site_fract_z
  _atom_site_occupancy
  Be  Be1       1.0  0.00577  0.00577  0.00577  1.0000
  Be  Be2       1.0  0.49700  0.49700  0.49700  1.0000
  Pd  Pd1       1.0  0.37300  0.37300  0.37300  1.0000
  Pd  Pd2       1.0  0.62600  0.62600  0.62600  1.0000
  Pd  Pd3       1.0  0.87900  0.87900  0.87900  1.0000
  Ti  Ti1       1.0  0.23800  0.23800  0.23800  1.0000
  Ti  Ti2       1.0  0.75600  0.75600  0.75600  1.0000
