data_image0
_chemical_formula_structural       Ba2Cd3K2
_chemical_formula_sum              "Ba2 Cd3 K2"
_cell_length_a       10.2199
_cell_length_b       10.2199
_cell_length_c       10.2199
_cell_angle_alpha    34.0213
_cell_angle_beta     34.0213
_cell_angle_gamma    34.0213

_space_group_name_H-M_alt    "P 1"
_space_group_IT_number       1

loop_
  _space_group_symop_operation_xyz
  'x, y, z'

loop_
  _atom_site_type_symbol
  _atom_site_label
  _atom_site_symmetry_multiplicity
  _atom_site_fract_x
  _atom_site_fract_y
  _atom_site_fract_z
  _atom_site_occupancy
  Ba  Ba1       1.0  0.00205  0.00205  0.00205  1.0000
  Ba  Ba2       1.0  0.49900  0.49900  0.49900  1.0000
  Cd  Cd1       1.0  0.37100  0.37100  0.37100  1.0000
  Cd  Cd2       1.0  0.62500  0.62500  0.62500  1.0000
  Cd  Cd3       1.0  0.87800  0.87800  0.87800  1.0000
  K   K1        1.0  0.24800  0.24800  0.24800  1.0000
  K   K2        1.0  0.75100  0.75100  0.75100  1.0000
