data_image0
_chemical_formula_structural       Ba2Pt3Si2
_chemical_formula_sum              "Ba2 Pt3 Si2"
_cell_length_a       11.3931
_cell_length_b       11.3931
_cell_length_c       11.3931
_cell_angle_alpha    21.4899
_cell_angle_beta     21.4899
_cell_angle_gamma    21.4899

_space_group_name_H-M_alt    "P 1"
_space_group_IT_number       1

loop_
  _space_group_symop_operation_xyz
  'x, y, z'

loop_
  _atom_site_type_symbol
  _atom_site_label
  _atom_site_symmetry_multiplicity
  _atom_site_fract_x
  _atom_site_fract_y
  _atom_site_fract_z
  _atom_site_occupancy
  Ba  Ba1       1.0  0.25100  0.25100  0.25100  1.0000
  Ba  Ba2       1.0  0.75500  0.75500  0.75500  1.0000
  Pt  Pt1       1.0  0.35600  0.35600  0.35600  1.0000
  Pt  Pt2       1.0  0.65300  0.65300  0.65300  1.0000
  Pt  Pt3       1.0  0.84800  0.84800  0.84800  1.0000
  Si  Si1       1.0  0.00423  0.00423  0.00423  1.0000
  Si  Si2       1.0  0.50700  0.50700  0.50700  1.0000
