data_image0
_chemical_formula_structural       Hf2Pd3Sr2
_chemical_formula_sum              "Hf2 Pd3 Sr2"
_cell_length_a       9.09394
_cell_length_b       9.09394
_cell_length_c       9.09394
_cell_angle_alpha    30.4167
_cell_angle_beta     30.4167
_cell_angle_gamma    30.4167

_space_group_name_H-M_alt    "P 1"
_space_group_IT_number       1

loop_
  _space_group_symop_operation_xyz
  'x, y, z'

loop_
  _atom_site_type_symbol
  _atom_site_label
  _atom_site_symmetry_multiplicity
  _atom_site_fract_x
  _atom_site_fract_y
  _atom_site_fract_z
  _atom_site_occupancy
  Hf  Hf1       1.0  0.51500  0.51500  0.51500  1.0000
  Hf  Hf2       1.0  0.99300  0.99300  0.99300  1.0000
  Pd  Pd1       1.0  0.36100  0.36100  0.36100  1.0000
  Pd  Pd2       1.0  0.63400  0.63400  0.63400  1.0000
  Pd  Pd3       1.0  0.87000  0.87000  0.87000  1.0000
  Sr  Sr1       1.0  0.24700  0.24700  0.24700  1.0000
  Sr  Sr2       1.0  0.75400  0.75400  0.75400  1.0000
