data_image0
_chemical_formula_structural       Ge2Mg2Pt3
_chemical_formula_sum              "Ge2 Mg2 Pt3"
_cell_length_a       7.54239
_cell_length_b       7.54239
_cell_length_c       7.54239
_cell_angle_alpha    34.0278
_cell_angle_beta     34.0278
_cell_angle_gamma    34.0278

_space_group_name_H-M_alt    "P 1"
_space_group_IT_number       1

loop_
  _space_group_symop_operation_xyz
  'x, y, z'

loop_
  _atom_site_type_symbol
  _atom_site_label
  _atom_site_symmetry_multiplicity
  _atom_site_fract_x
  _atom_site_fract_y
  _atom_site_fract_z
  _atom_site_occupancy
  Ge  Ge1       1.0  0.00395  0.00395  0.00395  1.0000
  Ge  Ge2       1.0  0.49700  0.49700  0.49700  1.0000
  Mg  Mg1       1.0  0.24200  0.24200  0.24200  1.0000
  Mg  Mg2       1.0  0.75500  0.75500  0.75500  1.0000
  Pt  Pt1       1.0  0.37400  0.37400  0.37400  1.0000
  Pt  Pt2       1.0  0.62500  0.62500  0.62500  1.0000
  Pt  Pt3       1.0  0.87800  0.87800  0.87800  1.0000
