data_image0
_chemical_formula_structural       Cs2Pt3Sb2
_chemical_formula_sum              "Cs2 Pt3 Sb2"
_cell_length_a       12.5976
_cell_length_b       12.5976
_cell_length_c       12.5976
_cell_angle_alpha    20.8879
_cell_angle_beta     20.8879
_cell_angle_gamma    20.8879

_space_group_name_H-M_alt    "P 1"
_space_group_IT_number       1

loop_
  _space_group_symop_operation_xyz
  'x, y, z'

loop_
  _atom_site_type_symbol
  _atom_site_label
  _atom_site_symmetry_multiplicity
  _atom_site_fract_x
  _atom_site_fract_y
  _atom_site_fract_z
  _atom_site_occupancy
  Cs  Cs1       1.0  0.25200  0.25200  0.25200  1.0000
  Cs  Cs2       1.0  0.75500  0.75500  0.75500  1.0000
  Pt  Pt1       1.0  0.35000  0.35000  0.35000  1.0000
  Pt  Pt2       1.0  0.65900  0.65900  0.65900  1.0000
  Pt  Pt3       1.0  0.84700  0.84700  0.84700  1.0000
  Sb  Sb1       1.0  0.00361  0.00361  0.00361  1.0000
  Sb  Sb2       1.0  0.50800  0.50800  0.50800  1.0000
