data_image0
_chemical_formula_structural       Ba2Cd3Na2
_chemical_formula_sum              "Ba2 Cd3 Na2"
_cell_length_a       9.53616
_cell_length_b       9.53616
_cell_length_c       9.53616
_cell_angle_alpha    34.2908
_cell_angle_beta     34.2908
_cell_angle_gamma    34.2908

_space_group_name_H-M_alt    "P 1"
_space_group_IT_number       1

loop_
  _space_group_symop_operation_xyz
  'x, y, z'

loop_
  _atom_site_type_symbol
  _atom_site_label
  _atom_site_symmetry_multiplicity
  _atom_site_fract_x
  _atom_site_fract_y
  _atom_site_fract_z
  _atom_site_occupancy
  Ba  Ba1       1.0  0.24200  0.24200  0.24200  1.0000
  Ba  Ba2       1.0  0.75400  0.75400  0.75400  1.0000
  Cd  Cd1       1.0  0.37000  0.37000  0.37000  1.0000
  Cd  Cd2       1.0  0.62600  0.62600  0.62600  1.0000
  Cd  Cd3       1.0  0.88200  0.88200  0.88200  1.0000
  Na  Na1       1.0  0.00081  0.00081  0.00081  1.0000
  Na  Na2       1.0  0.50000  0.50000  0.50000  1.0000
