data_image0
_chemical_formula_structural       Ba2Pd3Zr2
_chemical_formula_sum              "Ba2 Pd3 Zr2"
_cell_length_a       9.19547
_cell_length_b       9.19547
_cell_length_c       9.19547
_cell_angle_alpha    32.4573
_cell_angle_beta     32.4573
_cell_angle_gamma    32.4573

_space_group_name_H-M_alt    "P 1"
_space_group_IT_number       1

loop_
  _space_group_symop_operation_xyz
  'x, y, z'

loop_
  _atom_site_type_symbol
  _atom_site_label
  _atom_site_symmetry_multiplicity
  _atom_site_fract_x
  _atom_site_fract_y
  _atom_site_fract_z
  _atom_site_occupancy
  Ba  Ba1       1.0  0.22500  0.22500  0.22500  1.0000
  Ba  Ba2       1.0  0.75900  0.75900  0.75900  1.0000
  Pd  Pd1       1.0  0.34000  0.34000  0.34000  1.0000
  Pd  Pd2       1.0  0.64700  0.64700  0.64700  1.0000
  Pd  Pd3       1.0  0.87600  0.87600  0.87600  1.0000
  Zr  Zr1       1.0  0.55200  0.55200  0.55200  1.0000
  Zr  Zr2       1.0  0.97600  0.97600  0.97600  1.0000
