data_image0
_chemical_formula_structural       Ca2Cs2Hg3
_chemical_formula_sum              "Ca2 Cs2 Hg3"
_cell_length_a       11.3612
_cell_length_b       11.3612
_cell_length_c       11.3612
_cell_angle_alpha    28.8418
_cell_angle_beta     28.8418
_cell_angle_gamma    28.8418

_space_group_name_H-M_alt    "P 1"
_space_group_IT_number       1

loop_
  _space_group_symop_operation_xyz
  'x, y, z'

loop_
  _atom_site_type_symbol
  _atom_site_label
  _atom_site_symmetry_multiplicity
  _atom_site_fract_x
  _atom_site_fract_y
  _atom_site_fract_z
  _atom_site_occupancy
  Ca  Ca1       1.0  0.52400  0.52400  0.52400  1.0000
  Ca  Ca2       1.0  0.98700  0.98700  0.98700  1.0000
  Cs  Cs1       1.0  0.24900  0.24900  0.24900  1.0000
  Cs  Cs2       1.0  0.75400  0.75400  0.75400  1.0000
  Hg  Hg1       1.0  0.35300  0.35300  0.35300  1.0000
  Hg  Hg2       1.0  0.63900  0.63900  0.63900  1.0000
  Hg  Hg3       1.0  0.87000  0.87000  0.87000  1.0000
