data_image0
_chemical_formula_structural       Cd3Li2Sr2
_chemical_formula_sum              "Cd3 Li2 Sr2"
_cell_length_a       8.41861
_cell_length_b       8.41861
_cell_length_c       8.41861
_cell_angle_alpha    36.4003
_cell_angle_beta     36.4003
_cell_angle_gamma    36.4003

_space_group_name_H-M_alt    "P 1"
_space_group_IT_number       1

loop_
  _space_group_symop_operation_xyz
  'x, y, z'

loop_
  _atom_site_type_symbol
  _atom_site_label
  _atom_site_symmetry_multiplicity
  _atom_site_fract_x
  _atom_site_fract_y
  _atom_site_fract_z
  _atom_site_occupancy
  Cd  Cd1       1.0  0.36100  0.36100  0.36100  1.0000
  Cd  Cd2       1.0  0.61900  0.61900  0.61900  1.0000
  Cd  Cd3       1.0  0.90500  0.90500  0.90500  1.0000
  Li  Li1       1.0  0.01850  0.01850  0.01850  1.0000
  Li  Li2       1.0  0.49400  0.49400  0.49400  1.0000
  Sr  Sr1       1.0  0.21800  0.21800  0.21800  1.0000
  Sr  Sr2       1.0  0.76000  0.76000  0.76000  1.0000
