data_image0
_chemical_formula_structural       Ni3Sr2Ti2
_chemical_formula_sum              "Ni3 Sr2 Ti2"
_cell_length_a       10.4705
_cell_length_b       10.4705
_cell_length_c       10.4705
_cell_angle_alpha    22.8741
_cell_angle_beta     22.8741
_cell_angle_gamma    22.8741

_space_group_name_H-M_alt    "P 1"
_space_group_IT_number       1

loop_
  _space_group_symop_operation_xyz
  'x, y, z'

loop_
  _atom_site_type_symbol
  _atom_site_label
  _atom_site_symmetry_multiplicity
  _atom_site_fract_x
  _atom_site_fract_y
  _atom_site_fract_z
  _atom_site_occupancy
  Ni  Ni1       1.0  0.35400  0.35400  0.35400  1.0000
  Ni  Ni2       1.0  0.65600  0.65600  0.65600  1.0000
  Ni  Ni3       1.0  0.85200  0.85200  0.85200  1.0000
  Sr  Sr1       1.0  0.25200  0.25200  0.25200  1.0000
  Sr  Sr2       1.0  0.75400  0.75400  0.75400  1.0000
  Ti  Ti1       1.0  0.00276  0.00276  0.00276  1.0000
  Ti  Ti2       1.0  0.50500  0.50500  0.50500  1.0000
