data_image0
_chemical_formula_structural       Be2Cd3K2
_chemical_formula_sum              "Be2 Cd3 K2"
_cell_length_a       9.79832
_cell_length_b       9.79832
_cell_length_c       9.79832
_cell_angle_alpha    27.3444
_cell_angle_beta     27.3444
_cell_angle_gamma    27.3444

_space_group_name_H-M_alt    "P 1"
_space_group_IT_number       1

loop_
  _space_group_symop_operation_xyz
  'x, y, z'

loop_
  _atom_site_type_symbol
  _atom_site_label
  _atom_site_symmetry_multiplicity
  _atom_site_fract_x
  _atom_site_fract_y
  _atom_site_fract_z
  _atom_site_occupancy
  Be  Be1       1.0  0.00396  0.00396  0.00396  1.0000
  Be  Be2       1.0  0.55400  0.55400  0.55400  1.0000
  Cd  Cd1       1.0  0.34700  0.34700  0.34700  1.0000
  Cd  Cd2       1.0  0.64000  0.64000  0.64000  1.0000
  Cd  Cd3       1.0  0.90800  0.90800  0.90800  1.0000
  K   K1        1.0  0.16500  0.16500  0.16500  1.0000
  K   K2        1.0  0.75800  0.75800  0.75800  1.0000
