data_image0
_chemical_formula_structural       Cd3K2Mg2
_chemical_formula_sum              "Cd3 K2 Mg2"
_cell_length_a       9.51136
_cell_length_b       9.51136
_cell_length_c       9.51136
_cell_angle_alpha    32.8628
_cell_angle_beta     32.8628
_cell_angle_gamma    32.8628

_space_group_name_H-M_alt    "P 1"
_space_group_IT_number       1

loop_
  _space_group_symop_operation_xyz
  'x, y, z'

loop_
  _atom_site_type_symbol
  _atom_site_label
  _atom_site_symmetry_multiplicity
  _atom_site_fract_x
  _atom_site_fract_y
  _atom_site_fract_z
  _atom_site_occupancy
  Cd  Cd1       1.0  0.36000  0.36000  0.36000  1.0000
  Cd  Cd2       1.0  0.63200  0.63200  0.63200  1.0000
  Cd  Cd3       1.0  0.88000  0.88000  0.88000  1.0000
  K   K1        1.0  0.23900  0.23900  0.23900  1.0000
  K   K2        1.0  0.75800  0.75800  0.75800  1.0000
  Mg  Mg1       1.0  0.51000  0.51000  0.51000  1.0000
  Mg  Mg2       1.0  0.99500  0.99500  0.99500  1.0000
