data_image0
_chemical_formula_structural       Pd3Rb2Ta2
_chemical_formula_sum              "Pd3 Rb2 Ta2"
_cell_length_a       11.2658
_cell_length_b       11.2658
_cell_length_c       11.2658
_cell_angle_alpha    23.2218
_cell_angle_beta     23.2218
_cell_angle_gamma    23.2218

_space_group_name_H-M_alt    "P 1"
_space_group_IT_number       1

loop_
  _space_group_symop_operation_xyz
  'x, y, z'

loop_
  _atom_site_type_symbol
  _atom_site_label
  _atom_site_symmetry_multiplicity
  _atom_site_fract_x
  _atom_site_fract_y
  _atom_site_fract_z
  _atom_site_occupancy
  Pd  Pd1       1.0  0.29300  0.29300  0.29300  1.0000
  Pd  Pd2       1.0  0.66600  0.66600  0.66600  1.0000
  Pd  Pd3       1.0  0.90900  0.90900  0.90900  1.0000
  Rb  Rb1       1.0  0.17400  0.17400  0.17400  1.0000
  Rb  Rb2       1.0  0.75500  0.75500  0.75500  1.0000
  Ta  Ta1       1.0  0.59000  0.59000  0.59000  1.0000
  Ta  Ta2       1.0  0.98700  0.98700  0.98700  1.0000
