data_image0
_chemical_formula_structural       Ca2Pd3Ti2
_chemical_formula_sum              "Ca2 Pd3 Ti2"
_cell_length_a       8.2233
_cell_length_b       8.2233
_cell_length_c       8.2233
_cell_angle_alpha    32.7356
_cell_angle_beta     32.7356
_cell_angle_gamma    32.7356

_space_group_name_H-M_alt    "P 1"
_space_group_IT_number       1

loop_
  _space_group_symop_operation_xyz
  'x, y, z'

loop_
  _atom_site_type_symbol
  _atom_site_label
  _atom_site_symmetry_multiplicity
  _atom_site_fract_x
  _atom_site_fract_y
  _atom_site_fract_z
  _atom_site_occupancy
  Ca  Ca1       1.0  0.24400  0.24400  0.24400  1.0000
  Ca  Ca2       1.0  0.75500  0.75500  0.75500  1.0000
  Pd  Pd1       1.0  0.36700  0.36700  0.36700  1.0000
  Pd  Pd2       1.0  0.62900  0.62900  0.62900  1.0000
  Pd  Pd3       1.0  0.87900  0.87900  0.87900  1.0000
  Ti  Ti1       1.0  0.50500  0.50500  0.50500  1.0000
  Ti  Ti2       1.0  0.99700  0.99700  0.99700  1.0000
