data_image0
_chemical_formula_structural       Ca2Li2Zn3
_chemical_formula_sum              "Ca2 Li2 Zn3"
_cell_length_a       7.76321
_cell_length_b       7.76321
_cell_length_c       7.76321
_cell_angle_alpha    36.691
_cell_angle_beta     36.691
_cell_angle_gamma    36.691

_space_group_name_H-M_alt    "P 1"
_space_group_IT_number       1

loop_
  _space_group_symop_operation_xyz
  'x, y, z'

loop_
  _atom_site_type_symbol
  _atom_site_label
  _atom_site_symmetry_multiplicity
  _atom_site_fract_x
  _atom_site_fract_y
  _atom_site_fract_z
  _atom_site_occupancy
  Ca  Ca1       1.0  0.02410  0.02410  0.02410  1.0000
  Ca  Ca2       1.0  0.49200  0.49200  0.49200  1.0000
  Li  Li1       1.0  0.23500  0.23500  0.23500  1.0000
  Li  Li2       1.0  0.75500  0.75500  0.75500  1.0000
  Zn  Zn1       1.0  0.35100  0.35100  0.35100  1.0000
  Zn  Zn2       1.0  0.63100  0.63100  0.63100  1.0000
  Zn  Zn3       1.0  0.88700  0.88700  0.88700  1.0000
