data_image0
_chemical_formula_structural       K2Nb2Pt3
_chemical_formula_sum              "K2 Nb2 Pt3"
_cell_length_a       10.8253
_cell_length_b       10.8253
_cell_length_c       10.8253
_cell_angle_alpha    23.9671
_cell_angle_beta     23.9671
_cell_angle_gamma    23.9671

_space_group_name_H-M_alt    "P 1"
_space_group_IT_number       1

loop_
  _space_group_symop_operation_xyz
  'x, y, z'

loop_
  _atom_site_type_symbol
  _atom_site_label
  _atom_site_symmetry_multiplicity
  _atom_site_fract_x
  _atom_site_fract_y
  _atom_site_fract_z
  _atom_site_occupancy
  K   K1        1.0  0.16400  0.16400  0.16400  1.0000
  K   K2        1.0  0.75100  0.75100  0.75100  1.0000
  Nb  Nb1       1.0  0.57700  0.57700  0.57700  1.0000
  Nb  Nb2       1.0  0.98000  0.98000  0.98000  1.0000
  Pt  Pt1       1.0  0.35200  0.35200  0.35200  1.0000
  Pt  Pt2       1.0  0.65500  0.65500  0.65500  1.0000
  Pt  Pt3       1.0  0.89700  0.89700  0.89700  1.0000
