data_image0
_chemical_formula_structural       Be2Pt3Si2
_chemical_formula_sum              "Be2 Pt3 Si2"
_cell_length_a       7.10151
_cell_length_b       7.10151
_cell_length_c       7.10151
_cell_angle_alpha    33.1849
_cell_angle_beta     33.1849
_cell_angle_gamma    33.1849

_space_group_name_H-M_alt    "P 1"
_space_group_IT_number       1

loop_
  _space_group_symop_operation_xyz
  'x, y, z'

loop_
  _atom_site_type_symbol
  _atom_site_label
  _atom_site_symmetry_multiplicity
  _atom_site_fract_x
  _atom_site_fract_y
  _atom_site_fract_z
  _atom_site_occupancy
  Be  Be1       1.0  0.22900  0.22900  0.22900  1.0000
  Be  Be2       1.0  0.75800  0.75800  0.75800  1.0000
  Pt  Pt1       1.0  0.38000  0.38000  0.38000  1.0000
  Pt  Pt2       1.0  0.62600  0.62600  0.62600  1.0000
  Pt  Pt3       1.0  0.87500  0.87500  0.87500  1.0000
  Si  Si1       1.0  0.01210  0.01210  0.01210  1.0000
  Si  Si2       1.0  0.49700  0.49700  0.49700  1.0000
