data_image0
_chemical_formula_structural       Ca2Pt3Ti2
_chemical_formula_sum              "Ca2 Pt3 Ti2"
_cell_length_a       8.01064
_cell_length_b       8.01064
_cell_length_c       8.01064
_cell_angle_alpha    33.5143
_cell_angle_beta     33.5143
_cell_angle_gamma    33.5143

_space_group_name_H-M_alt    "P 1"
_space_group_IT_number       1

loop_
  _space_group_symop_operation_xyz
  'x, y, z'

loop_
  _atom_site_type_symbol
  _atom_site_label
  _atom_site_symmetry_multiplicity
  _atom_site_fract_x
  _atom_site_fract_y
  _atom_site_fract_z
  _atom_site_occupancy
  Ca  Ca1       1.0  0.24300  0.24300  0.24300  1.0000
  Ca  Ca2       1.0  0.75400  0.75400  0.75400  1.0000
  Pt  Pt1       1.0  0.37200  0.37200  0.37200  1.0000
  Pt  Pt2       1.0  0.62700  0.62700  0.62700  1.0000
  Pt  Pt3       1.0  0.87800  0.87800  0.87800  1.0000
  Ti  Ti1       1.0  0.50200  0.50200  0.50200  1.0000
  Ti  Ti2       1.0  0.99800  0.99800  0.99800  1.0000
