data_image0
_chemical_formula_structural       Ba2Pb2Pt3
_chemical_formula_sum              "Ba2 Pb2 Pt3"
_cell_length_a       8.95408
_cell_length_b       8.95408
_cell_length_c       8.95408
_cell_angle_alpha    34.0225
_cell_angle_beta     34.0225
_cell_angle_gamma    34.0225

_space_group_name_H-M_alt    "P 1"
_space_group_IT_number       1

loop_
  _space_group_symop_operation_xyz
  'x, y, z'

loop_
  _atom_site_type_symbol
  _atom_site_label
  _atom_site_symmetry_multiplicity
  _atom_site_fract_x
  _atom_site_fract_y
  _atom_site_fract_z
  _atom_site_occupancy
  Ba  Ba1       1.0  0.24900  0.24900  0.24900  1.0000
  Ba  Ba2       1.0  0.75100  0.75100  0.75100  1.0000
  Pb  Pb1       1.0  0.50700  0.50700  0.50700  1.0000
  Pb  Pb2       1.0  0.99300  0.99300  0.99300  1.0000
  Pt  Pt1       1.0  0.37600  0.37600  0.37600  1.0000
  Pt  Pt2       1.0  0.62400  0.62400  0.62400  1.0000
  Pt  Pt3       1.0  0.87400  0.87400  0.87400  1.0000
