data_image0
_chemical_formula_structural       Ca2Pt3Si2
_chemical_formula_sum              "Ca2 Pt3 Si2"
_cell_length_a       8.08266
_cell_length_b       8.08266
_cell_length_c       8.08266
_cell_angle_alpha    32.7385
_cell_angle_beta     32.7385
_cell_angle_gamma    32.7385

_space_group_name_H-M_alt    "P 1"
_space_group_IT_number       1

loop_
  _space_group_symop_operation_xyz
  'x, y, z'

loop_
  _atom_site_type_symbol
  _atom_site_label
  _atom_site_symmetry_multiplicity
  _atom_site_fract_x
  _atom_site_fract_y
  _atom_site_fract_z
  _atom_site_occupancy
  Ca  Ca1       1.0  0.23800  0.23800  0.23800  1.0000
  Ca  Ca2       1.0  0.75800  0.75800  0.75800  1.0000
  Pt  Pt1       1.0  0.35800  0.35800  0.35800  1.0000
  Pt  Pt2       1.0  0.62700  0.62700  0.62700  1.0000
  Pt  Pt3       1.0  0.88200  0.88200  0.88200  1.0000
  Si  Si1       1.0  0.51500  0.51500  0.51500  1.0000
  Si  Si2       1.0  0.99700  0.99700  0.99700  1.0000
