data_image0
_chemical_formula_structural       Be2Cd3Na2
_chemical_formula_sum              "Be2 Cd3 Na2"
_cell_length_a       7.91299
_cell_length_b       7.91299
_cell_length_c       7.91299
_cell_angle_alpha    33.0717
_cell_angle_beta     33.0717
_cell_angle_gamma    33.0717

_space_group_name_H-M_alt    "P 1"
_space_group_IT_number       1

loop_
  _space_group_symop_operation_xyz
  'x, y, z'

loop_
  _atom_site_type_symbol
  _atom_site_label
  _atom_site_symmetry_multiplicity
  _atom_site_fract_x
  _atom_site_fract_y
  _atom_site_fract_z
  _atom_site_occupancy
  Be  Be1       1.0  0.01560  0.01560  0.01560  1.0000
  Be  Be2       1.0  0.52600  0.52600  0.52600  1.0000
  Cd  Cd1       1.0  0.37200  0.37200  0.37200  1.0000
  Cd  Cd2       1.0  0.63800  0.63800  0.63800  1.0000
  Cd  Cd3       1.0  0.90100  0.90100  0.90100  1.0000
  Na  Na1       1.0  0.15400  0.15400  0.15400  1.0000
  Na  Na2       1.0  0.76900  0.76900  0.76900  1.0000
