data_image0
_chemical_formula_structural       Ba2Ni3Sn2
_chemical_formula_sum              "Ba2 Ni3 Sn2"
_cell_length_a       10.9652
_cell_length_b       10.9652
_cell_length_c       10.9652
_cell_angle_alpha    23.3343
_cell_angle_beta     23.3343
_cell_angle_gamma    23.3343

_space_group_name_H-M_alt    "P 1"
_space_group_IT_number       1

loop_
  _space_group_symop_operation_xyz
  'x, y, z'

loop_
  _atom_site_type_symbol
  _atom_site_label
  _atom_site_symmetry_multiplicity
  _atom_site_fract_x
  _atom_site_fract_y
  _atom_site_fract_z
  _atom_site_occupancy
  Ba  Ba1       1.0  0.25000  0.25000  0.25000  1.0000
  Ba  Ba2       1.0  0.75600  0.75600  0.75600  1.0000
  Ni  Ni1       1.0  0.34700  0.34700  0.34700  1.0000
  Ni  Ni2       1.0  0.66100  0.66100  0.66100  1.0000
  Ni  Ni3       1.0  0.85200  0.85200  0.85200  1.0000
  Sn  Sn1       1.0  0.00419  0.00419  0.00419  1.0000
  Sn  Sn2       1.0  0.50400  0.50400  0.50400  1.0000
