data_image0
_chemical_formula_structural       Pd3Sr2Ti2
_chemical_formula_sum              "Pd3 Sr2 Ti2"
_cell_length_a       9.20967
_cell_length_b       9.20967
_cell_length_c       9.20967
_cell_angle_alpha    28.9275
_cell_angle_beta     28.9275
_cell_angle_gamma    28.9275

_space_group_name_H-M_alt    "P 1"
_space_group_IT_number       1

loop_
  _space_group_symop_operation_xyz
  'x, y, z'

loop_
  _atom_site_type_symbol
  _atom_site_label
  _atom_site_symmetry_multiplicity
  _atom_site_fract_x
  _atom_site_fract_y
  _atom_site_fract_z
  _atom_site_occupancy
  Pd  Pd1       1.0  0.35900  0.35900  0.35900  1.0000
  Pd  Pd2       1.0  0.64300  0.64300  0.64300  1.0000
  Pd  Pd3       1.0  0.86600  0.86600  0.86600  1.0000
  Sr  Sr1       1.0  0.24800  0.24800  0.24800  1.0000
  Sr  Sr2       1.0  0.75500  0.75500  0.75500  1.0000
  Ti  Ti1       1.0  0.50800  0.50800  0.50800  1.0000
  Ti  Ti2       1.0  0.99600  0.99600  0.99600  1.0000
