data_image0
_chemical_formula_structural       Cd3Li2Mg2
_chemical_formula_sum              "Cd3 Li2 Mg2"
_cell_length_a       7.3941
_cell_length_b       7.3941
_cell_length_c       7.3941
_cell_angle_alpha    37.3801
_cell_angle_beta     37.3801
_cell_angle_gamma    37.3801

_space_group_name_H-M_alt    "P 1"
_space_group_IT_number       1

loop_
  _space_group_symop_operation_xyz
  'x, y, z'

loop_
  _atom_site_type_symbol
  _atom_site_label
  _atom_site_symmetry_multiplicity
  _atom_site_fract_x
  _atom_site_fract_y
  _atom_site_fract_z
  _atom_site_occupancy
  Cd  Cd1       1.0  0.34600  0.34600  0.34600  1.0000
  Cd  Cd2       1.0  0.62500  0.62500  0.62500  1.0000
  Cd  Cd3       1.0  0.89500  0.89500  0.89500  1.0000
  Li  Li1       1.0  0.20700  0.20700  0.20700  1.0000
  Li  Li2       1.0  0.76200  0.76200  0.76200  1.0000
  Mg  Mg1       1.0  0.05590  0.05590  0.05590  1.0000
  Mg  Mg2       1.0  0.48400  0.48400  0.48400  1.0000
