data_image0
_chemical_formula_structural       Ba2Ge2Ni3
_chemical_formula_sum              "Ba2 Ge2 Ni3"
_cell_length_a       10.8748
_cell_length_b       10.8748
_cell_length_c       10.8748
_cell_angle_alpha    22.143
_cell_angle_beta     22.143
_cell_angle_gamma    22.143

_space_group_name_H-M_alt    "P 1"
_space_group_IT_number       1

loop_
  _space_group_symop_operation_xyz
  'x, y, z'

loop_
  _atom_site_type_symbol
  _atom_site_label
  _atom_site_symmetry_multiplicity
  _atom_site_fract_x
  _atom_site_fract_y
  _atom_site_fract_z
  _atom_site_occupancy
  Ba  Ba1       1.0  0.25000  0.25000  0.25000  1.0000
  Ba  Ba2       1.0  0.75700  0.75700  0.75700  1.0000
  Ge  Ge1       1.0  0.00487  0.00487  0.00487  1.0000
  Ge  Ge2       1.0  0.50500  0.50500  0.50500  1.0000
  Ni  Ni1       1.0  0.34800  0.34800  0.34800  1.0000
  Ni  Ni2       1.0  0.66100  0.66100  0.66100  1.0000
  Ni  Ni3       1.0  0.84900  0.84900  0.84900  1.0000
