data_image0
_chemical_formula_structural       Ca2Cd3Li2
_chemical_formula_sum              "Ca2 Cd3 Li2"
_cell_length_a       7.99353
_cell_length_b       7.99353
_cell_length_c       7.99353
_cell_angle_alpha    36.5313
_cell_angle_beta     36.5313
_cell_angle_gamma    36.5313

_space_group_name_H-M_alt    "P 1"
_space_group_IT_number       1

loop_
  _space_group_symop_operation_xyz
  'x, y, z'

loop_
  _atom_site_type_symbol
  _atom_site_label
  _atom_site_symmetry_multiplicity
  _atom_site_fract_x
  _atom_site_fract_y
  _atom_site_fract_z
  _atom_site_occupancy
  Ca  Ca1       1.0  0.04090  0.04090  0.04090  1.0000
  Ca  Ca2       1.0  0.48800  0.48800  0.48800  1.0000
  Cd  Cd1       1.0  0.34000  0.34000  0.34000  1.0000
  Cd  Cd2       1.0  0.63100  0.63100  0.63100  1.0000
  Cd  Cd3       1.0  0.89400  0.89400  0.89400  1.0000
  Li  Li1       1.0  0.21800  0.21800  0.21800  1.0000
  Li  Li2       1.0  0.76300  0.76300  0.76300  1.0000
