data_image0
_chemical_formula_structural       Cd3Na2Sr2
_chemical_formula_sum              "Cd3 Na2 Sr2"
_cell_length_a       9.22092
_cell_length_b       9.22092
_cell_length_c       9.22092
_cell_angle_alpha    34.4617
_cell_angle_beta     34.4617
_cell_angle_gamma    34.4617

_space_group_name_H-M_alt    "P 1"
_space_group_IT_number       1

loop_
  _space_group_symop_operation_xyz
  'x, y, z'

loop_
  _atom_site_type_symbol
  _atom_site_label
  _atom_site_symmetry_multiplicity
  _atom_site_fract_x
  _atom_site_fract_y
  _atom_site_fract_z
  _atom_site_occupancy
  Cd  Cd1       1.0  0.36700  0.36700  0.36700  1.0000
  Cd  Cd2       1.0  0.62500  0.62500  0.62500  1.0000
  Cd  Cd3       1.0  0.88200  0.88200  0.88200  1.0000
  Na  Na1       1.0  0.24600  0.24600  0.24600  1.0000
  Na  Na2       1.0  0.75100  0.75100  0.75100  1.0000
  Sr  Sr1       1.0  0.00969  0.00969  0.00969  1.0000
  Sr  Sr2       1.0  0.49400  0.49400  0.49400  1.0000
