data_image0
_chemical_formula_structural       Be2Ge2Pd3
_chemical_formula_sum              "Be2 Ge2 Pd3"
_cell_length_a       7.16826
_cell_length_b       7.16826
_cell_length_c       7.16826
_cell_angle_alpha    33.6574
_cell_angle_beta     33.6574
_cell_angle_gamma    33.6574

_space_group_name_H-M_alt    "P 1"
_space_group_IT_number       1

loop_
  _space_group_symop_operation_xyz
  'x, y, z'

loop_
  _atom_site_type_symbol
  _atom_site_label
  _atom_site_symmetry_multiplicity
  _atom_site_fract_x
  _atom_site_fract_y
  _atom_site_fract_z
  _atom_site_occupancy
  Be  Be1       1.0  0.24200  0.24200  0.24200  1.0000
  Be  Be2       1.0  0.75600  0.75600  0.75600  1.0000
  Ge  Ge1       1.0  0.00975  0.00975  0.00975  1.0000
  Ge  Ge2       1.0  0.49400  0.49400  0.49400  1.0000
  Pd  Pd1       1.0  0.37400  0.37400  0.37400  1.0000
  Pd  Pd2       1.0  0.62300  0.62300  0.62300  1.0000
  Pd  Pd3       1.0  0.87600  0.87600  0.87600  1.0000
