data_image0
_chemical_formula_structural       Ba2Pd3Si2
_chemical_formula_sum              "Ba2 Pd3 Si2"
_cell_length_a       8.81105
_cell_length_b       8.81105
_cell_length_c       8.81105
_cell_angle_alpha    32.4906
_cell_angle_beta     32.4906
_cell_angle_gamma    32.4906

_space_group_name_H-M_alt    "P 1"
_space_group_IT_number       1

loop_
  _space_group_symop_operation_xyz
  'x, y, z'

loop_
  _atom_site_type_symbol
  _atom_site_label
  _atom_site_symmetry_multiplicity
  _atom_site_fract_x
  _atom_site_fract_y
  _atom_site_fract_z
  _atom_site_occupancy
  Ba  Ba1       1.0  0.23800  0.23800  0.23800  1.0000
  Ba  Ba2       1.0  0.75600  0.75600  0.75600  1.0000
  Pd  Pd1       1.0  0.35300  0.35300  0.35300  1.0000
  Pd  Pd2       1.0  0.62800  0.62800  0.62800  1.0000
  Pd  Pd3       1.0  0.88500  0.88500  0.88500  1.0000
  Si  Si1       1.0  0.52600  0.52600  0.52600  1.0000
  Si  Si2       1.0  0.98900  0.98900  0.98900  1.0000
