data_image0
_chemical_formula_structural       Pt3Rb2Ta2
_chemical_formula_sum              "Pt3 Rb2 Ta2"
_cell_length_a       10.7329
_cell_length_b       10.7329
_cell_length_c       10.7329
_cell_angle_alpha    24.2875
_cell_angle_beta     24.2875
_cell_angle_gamma    24.2875

_space_group_name_H-M_alt    "P 1"
_space_group_IT_number       1

loop_
  _space_group_symop_operation_xyz
  'x, y, z'

loop_
  _atom_site_type_symbol
  _atom_site_label
  _atom_site_symmetry_multiplicity
  _atom_site_fract_x
  _atom_site_fract_y
  _atom_site_fract_z
  _atom_site_occupancy
  Pt  Pt1       1.0  0.35000  0.35000  0.35000  1.0000
  Pt  Pt2       1.0  0.65500  0.65500  0.65500  1.0000
  Pt  Pt3       1.0  0.89800  0.89800  0.89800  1.0000
  Rb  Rb1       1.0  0.16100  0.16100  0.16100  1.0000
  Rb  Rb2       1.0  0.75300  0.75300  0.75300  1.0000
  Ta  Ta1       1.0  0.57700  0.57700  0.57700  1.0000
  Ta  Ta2       1.0  0.98100  0.98100  0.98100  1.0000
