data_image0
_chemical_formula_structural       Be2Pt3Sn2
_chemical_formula_sum              "Be2 Pt3 Sn2"
_cell_length_a       8.0459
_cell_length_b       8.0459
_cell_length_c       8.0459
_cell_angle_alpha    30.3171
_cell_angle_beta     30.3171
_cell_angle_gamma    30.3171

_space_group_name_H-M_alt    "P 1"
_space_group_IT_number       1

loop_
  _space_group_symop_operation_xyz
  'x, y, z'

loop_
  _atom_site_type_symbol
  _atom_site_label
  _atom_site_symmetry_multiplicity
  _atom_site_fract_x
  _atom_site_fract_y
  _atom_site_fract_z
  _atom_site_occupancy
  Be  Be1       1.0  0.25600  0.25600  0.25600  1.0000
  Be  Be2       1.0  0.75800  0.75800  0.75800  1.0000
  Pt  Pt1       1.0  0.38300  0.38300  0.38300  1.0000
  Pt  Pt2       1.0  0.61100  0.61100  0.61100  1.0000
  Pt  Pt3       1.0  0.87300  0.87300  0.87300  1.0000
  Sn  Sn1       1.0  0.00143  0.00143  0.00143  1.0000
  Sn  Sn2       1.0  0.49300  0.49300  0.49300  1.0000
