data_image0
_chemical_formula_structural       F2O2V2
_chemical_formula_sum              "F2 O2 V2"
_cell_length_a       3.41999
_cell_length_b       3.41929
_cell_length_c       6.04561
_cell_angle_alpha    73.5691
_cell_angle_beta     106.43
_cell_angle_gamma    120.007

_space_group_name_H-M_alt    "P 1"
_space_group_IT_number       1

loop_
  _space_group_symop_operation_xyz
  'x, y, z'

loop_
  _atom_site_type_symbol
  _atom_site_label
  _atom_site_symmetry_multiplicity
  _atom_site_fract_x
  _atom_site_fract_y
  _atom_site_fract_z
  _atom_site_occupancy
  F   F1        1.0  0.37100  0.62900  0.11200  1.0000
  F   F2        1.0  0.62900  0.37100  0.88800  1.0000
  O   O1        1.0  0.12300  0.87700  0.36800  1.0000
  O   O2        1.0  0.87700  0.12300  0.63200  1.0000
  V   V1        1.0  0.75800  0.24200  0.27300  1.0000
  V   V2        1.0  0.24200  0.75800  0.72700  1.0000
