data_image0
_chemical_formula_structural       Hg3Mg2Rb2
_chemical_formula_sum              "Hg3 Mg2 Rb2"
_cell_length_a       11.6056
_cell_length_b       11.6056
_cell_length_c       11.6056
_cell_angle_alpha    25.0281
_cell_angle_beta     25.0281
_cell_angle_gamma    25.0281

_space_group_name_H-M_alt    "P 1"
_space_group_IT_number       1

loop_
  _space_group_symop_operation_xyz
  'x, y, z'

loop_
  _atom_site_type_symbol
  _atom_site_label
  _atom_site_symmetry_multiplicity
  _atom_site_fract_x
  _atom_site_fract_y
  _atom_site_fract_z
  _atom_site_occupancy
  Hg  Hg1       1.0  0.35500  0.35500  0.35500  1.0000
  Hg  Hg2       1.0  0.65200  0.65200  0.65200  1.0000
  Hg  Hg3       1.0  0.85400  0.85400  0.85400  1.0000
  Mg  Mg1       1.0  0.00159  0.00159  0.00159  1.0000
  Mg  Mg2       1.0  0.50800  0.50800  0.50800  1.0000
  Rb  Rb1       1.0  0.25000  0.25000  0.25000  1.0000
  Rb  Rb2       1.0  0.75500  0.75500  0.75500  1.0000
