data_image0
_chemical_formula_structural       Cs2Mg2Zn3
_chemical_formula_sum              "Cs2 Mg2 Zn3"
_cell_length_a       12.6662
_cell_length_b       12.6662
_cell_length_c       12.6662
_cell_angle_alpha    21.6945
_cell_angle_beta     21.6945
_cell_angle_gamma    21.6945

_space_group_name_H-M_alt    "P 1"
_space_group_IT_number       1

loop_
  _space_group_symop_operation_xyz
  'x, y, z'

loop_
  _atom_site_type_symbol
  _atom_site_label
  _atom_site_symmetry_multiplicity
  _atom_site_fract_x
  _atom_site_fract_y
  _atom_site_fract_z
  _atom_site_occupancy
  Cs  Cs1       1.0  0.25100  0.25100  0.25100  1.0000
  Cs  Cs2       1.0  0.75600  0.75600  0.75600  1.0000
  Mg  Mg1       1.0  0.00374  0.00374  0.00374  1.0000
  Mg  Mg2       1.0  0.50500  0.50500  0.50500  1.0000
  Zn  Zn1       1.0  0.34600  0.34600  0.34600  1.0000
  Zn  Zn2       1.0  0.66200  0.66200  0.66200  1.0000
  Zn  Zn3       1.0  0.85100  0.85100  0.85100  1.0000
