data_image0
_chemical_formula_structural       Ca2Hg3Na2
_chemical_formula_sum              "Ca2 Hg3 Na2"
_cell_length_a       8.95791
_cell_length_b       8.95791
_cell_length_c       8.95791
_cell_angle_alpha    34.2968
_cell_angle_beta     34.2968
_cell_angle_gamma    34.2968

_space_group_name_H-M_alt    "P 1"
_space_group_IT_number       1

loop_
  _space_group_symop_operation_xyz
  'x, y, z'

loop_
  _atom_site_type_symbol
  _atom_site_label
  _atom_site_symmetry_multiplicity
  _atom_site_fract_x
  _atom_site_fract_y
  _atom_site_fract_z
  _atom_site_occupancy
  Ca  Ca1       1.0  0.00412  0.00412  0.00412  1.0000
  Ca  Ca2       1.0  0.49800  0.49800  0.49800  1.0000
  Hg  Hg1       1.0  0.37200  0.37200  0.37200  1.0000
  Hg  Hg2       1.0  0.62500  0.62500  0.62500  1.0000
  Hg  Hg3       1.0  0.87700  0.87700  0.87700  1.0000
  Na  Na1       1.0  0.24600  0.24600  0.24600  1.0000
  Na  Na2       1.0  0.75200  0.75200  0.75200  1.0000
