data_image0
_chemical_formula_structural       Ca2Hg3Li2
_chemical_formula_sum              "Ca2 Hg3 Li2"
_cell_length_a       8.49489
_cell_length_b       8.49489
_cell_length_c       8.49489
_cell_angle_alpha    34.9427
_cell_angle_beta     34.9427
_cell_angle_gamma    34.9427

_space_group_name_H-M_alt    "P 1"
_space_group_IT_number       1

loop_
  _space_group_symop_operation_xyz
  'x, y, z'

loop_
  _atom_site_type_symbol
  _atom_site_label
  _atom_site_symmetry_multiplicity
  _atom_site_fract_x
  _atom_site_fract_y
  _atom_site_fract_z
  _atom_site_occupancy
  Ca  Ca1       1.0  0.00842  0.00842  0.00842  1.0000
  Ca  Ca2       1.0  0.49600  0.49600  0.49600  1.0000
  Hg  Hg1       1.0  0.36900  0.36900  0.36900  1.0000
  Hg  Hg2       1.0  0.62600  0.62600  0.62600  1.0000
  Hg  Hg3       1.0  0.87700  0.87700  0.87700  1.0000
  Li  Li1       1.0  0.24900  0.24900  0.24900  1.0000
  Li  Li2       1.0  0.75000  0.75000  0.75000  1.0000
