data_image0
_chemical_formula_structural       Ba2Mg2O2S2
_chemical_formula_sum              "Ba2 Mg2 O2 S2"
_cell_length_a       3.79875
_cell_length_b       3.79844
_cell_length_c       13.5457
_cell_angle_alpha    90
_cell_angle_beta     90
_cell_angle_gamma    120.003

_space_group_name_H-M_alt    "P 1"
_space_group_IT_number       1

loop_
  _space_group_symop_operation_xyz
  'x, y, z'

loop_
  _atom_site_type_symbol
  _atom_site_label
  _atom_site_symmetry_multiplicity
  _atom_site_fract_x
  _atom_site_fract_y
  _atom_site_fract_z
  _atom_site_occupancy
  Ba  Ba1       1.0  0.00000  0.00000  0.49100  1.0000
  Ba  Ba2       1.0  0.00000  0.00000  0.99100  1.0000
  Mg  Mg1       1.0  0.33300  0.66700  0.25000  1.0000
  Mg  Mg2       1.0  0.66700  0.33300  0.75000  1.0000
  O   O1        1.0  0.00000  0.00000  0.31200  1.0000
  O   O2        1.0  0.00000  0.00000  0.81200  1.0000
  S   S1        1.0  0.66700  0.33300  0.13400  1.0000
  S   S2        1.0  0.33300  0.66700  0.63400  1.0000
