data_image0
_chemical_formula_structural       Be2Hf2Pd3
_chemical_formula_sum              "Be2 Hf2 Pd3"
_cell_length_a       7.31096
_cell_length_b       7.31096
_cell_length_c       7.31096
_cell_angle_alpha    34.7264
_cell_angle_beta     34.7264
_cell_angle_gamma    34.7264

_space_group_name_H-M_alt    "P 1"
_space_group_IT_number       1

loop_
  _space_group_symop_operation_xyz
  'x, y, z'

loop_
  _atom_site_type_symbol
  _atom_site_label
  _atom_site_symmetry_multiplicity
  _atom_site_fract_x
  _atom_site_fract_y
  _atom_site_fract_z
  _atom_site_occupancy
  Be  Be1       1.0  0.00307  0.00307  0.00307  1.0000
  Be  Be2       1.0  0.49900  0.49900  0.49900  1.0000
  Hf  Hf1       1.0  0.23800  0.23800  0.23800  1.0000
  Hf  Hf2       1.0  0.75600  0.75600  0.75600  1.0000
  Pd  Pd1       1.0  0.37300  0.37300  0.37300  1.0000
  Pd  Pd2       1.0  0.62500  0.62500  0.62500  1.0000
  Pd  Pd3       1.0  0.88100  0.88100  0.88100  1.0000
