data_image0
_chemical_formula_structural       Ba2Hg3Na2
_chemical_formula_sum              "Ba2 Hg3 Na2"
_cell_length_a       9.60067
_cell_length_b       9.60067
_cell_length_c       9.60067
_cell_angle_alpha    34.4483
_cell_angle_beta     34.4483
_cell_angle_gamma    34.4483

_space_group_name_H-M_alt    "P 1"
_space_group_IT_number       1

loop_
  _space_group_symop_operation_xyz
  'x, y, z'

loop_
  _atom_site_type_symbol
  _atom_site_label
  _atom_site_symmetry_multiplicity
  _atom_site_fract_x
  _atom_site_fract_y
  _atom_site_fract_z
  _atom_site_occupancy
  Ba  Ba1       1.0  0.24600  0.24600  0.24600  1.0000
  Ba  Ba2       1.0  0.75200  0.75200  0.75200  1.0000
  Hg  Hg1       1.0  0.37500  0.37500  0.37500  1.0000
  Hg  Hg2       1.0  0.62400  0.62400  0.62400  1.0000
  Hg  Hg3       1.0  0.87800  0.87800  0.87800  1.0000
  Na  Na1       1.0  0.50100  0.50100  0.50100  1.0000
  Na  Na2       1.0  0.99900  0.99900  0.99900  1.0000
