data_image0
_chemical_formula_structural       Cs2Hg3Sr2
_chemical_formula_sum              "Cs2 Hg3 Sr2"
_cell_length_a       10.431
_cell_length_b       10.431
_cell_length_c       10.431
_cell_angle_alpha    33.6287
_cell_angle_beta     33.6287
_cell_angle_gamma    33.6287

_space_group_name_H-M_alt    "P 1"
_space_group_IT_number       1

loop_
  _space_group_symop_operation_xyz
  'x, y, z'

loop_
  _atom_site_type_symbol
  _atom_site_label
  _atom_site_symmetry_multiplicity
  _atom_site_fract_x
  _atom_site_fract_y
  _atom_site_fract_z
  _atom_site_occupancy
  Cs  Cs1       1.0  0.24800  0.24800  0.24800  1.0000
  Cs  Cs2       1.0  0.75200  0.75200  0.75200  1.0000
  Hg  Hg1       1.0  0.37700  0.37700  0.37700  1.0000
  Hg  Hg2       1.0  0.62500  0.62500  0.62500  1.0000
  Hg  Hg3       1.0  0.87400  0.87400  0.87400  1.0000
  Sr  Sr1       1.0  0.50700  0.50700  0.50700  1.0000
  Sr  Sr2       1.0  0.99300  0.99300  0.99300  1.0000
