data_image0
_chemical_formula_structural       Be2Hf2Ni3
_chemical_formula_sum              "Be2 Hf2 Ni3"
_cell_length_a       6.9356
_cell_length_b       6.9356
_cell_length_c       6.9356
_cell_angle_alpha    34.6122
_cell_angle_beta     34.6122
_cell_angle_gamma    34.6122

_space_group_name_H-M_alt    "P 1"
_space_group_IT_number       1

loop_
  _space_group_symop_operation_xyz
  'x, y, z'

loop_
  _atom_site_type_symbol
  _atom_site_label
  _atom_site_symmetry_multiplicity
  _atom_site_fract_x
  _atom_site_fract_y
  _atom_site_fract_z
  _atom_site_occupancy
  Be  Be1       1.0  0.00039  0.00039  0.00039  1.0000
  Be  Be2       1.0  0.50100  0.50100  0.50100  1.0000
  Hf  Hf1       1.0  0.23900  0.23900  0.23900  1.0000
  Hf  Hf2       1.0  0.75600  0.75600  0.75600  1.0000
  Ni  Ni1       1.0  0.37000  0.37000  0.37000  1.0000
  Ni  Ni2       1.0  0.62600  0.62600  0.62600  1.0000
  Ni  Ni3       1.0  0.88200  0.88200  0.88200  1.0000
