data_image0
_chemical_formula_structural       Pt3Sr2Zr2
_chemical_formula_sum              "Pt3 Sr2 Zr2"
_cell_length_a       8.5095
_cell_length_b       8.5095
_cell_length_c       8.5095
_cell_angle_alpha    33.5558
_cell_angle_beta     33.5558
_cell_angle_gamma    33.5558

_space_group_name_H-M_alt    "P 1"
_space_group_IT_number       1

loop_
  _space_group_symop_operation_xyz
  'x, y, z'

loop_
  _atom_site_type_symbol
  _atom_site_label
  _atom_site_symmetry_multiplicity
  _atom_site_fract_x
  _atom_site_fract_y
  _atom_site_fract_z
  _atom_site_occupancy
  Pt  Pt1       1.0  0.37700  0.37700  0.37700  1.0000
  Pt  Pt2       1.0  0.62500  0.62500  0.62500  1.0000
  Pt  Pt3       1.0  0.87400  0.87400  0.87400  1.0000
  Sr  Sr1       1.0  0.24700  0.24700  0.24700  1.0000
  Sr  Sr2       1.0  0.75200  0.75200  0.75200  1.0000
  Zr  Zr1       1.0  0.50500  0.50500  0.50500  1.0000
  Zr  Zr2       1.0  0.99500  0.99500  0.99500  1.0000
