data_image0
_chemical_formula_structural       Cd3Mg2Na2
_chemical_formula_sum              "Cd3 Mg2 Na2"
_cell_length_a       8.45479
_cell_length_b       8.45479
_cell_length_c       8.45479
_cell_angle_alpha    34.2767
_cell_angle_beta     34.2767
_cell_angle_gamma    34.2767

_space_group_name_H-M_alt    "P 1"
_space_group_IT_number       1

loop_
  _space_group_symop_operation_xyz
  'x, y, z'

loop_
  _atom_site_type_symbol
  _atom_site_label
  _atom_site_symmetry_multiplicity
  _atom_site_fract_x
  _atom_site_fract_y
  _atom_site_fract_z
  _atom_site_occupancy
  Cd  Cd1       1.0  0.37000  0.37000  0.37000  1.0000
  Cd  Cd2       1.0  0.62700  0.62700  0.62700  1.0000
  Cd  Cd3       1.0  0.88100  0.88100  0.88100  1.0000
  Mg  Mg1       1.0  0.00590  0.00590  0.00590  1.0000
  Mg  Mg2       1.0  0.49700  0.49700  0.49700  1.0000
  Na  Na1       1.0  0.23800  0.23800  0.23800  1.0000
  Na  Na2       1.0  0.75700  0.75700  0.75700  1.0000
