data_image0
_chemical_formula_structural       Ge2Pd3Sr2
_chemical_formula_sum              "Ge2 Pd3 Sr2"
_cell_length_a       10.4502
_cell_length_b       10.4502
_cell_length_c       10.4502
_cell_angle_alpha    24.1786
_cell_angle_beta     24.1786
_cell_angle_gamma    24.1786

_space_group_name_H-M_alt    "P 1"
_space_group_IT_number       1

loop_
  _space_group_symop_operation_xyz
  'x, y, z'

loop_
  _atom_site_type_symbol
  _atom_site_label
  _atom_site_symmetry_multiplicity
  _atom_site_fract_x
  _atom_site_fract_y
  _atom_site_fract_z
  _atom_site_occupancy
  Ge  Ge1       1.0  0.00422  0.00422  0.00422  1.0000
  Ge  Ge2       1.0  0.50500  0.50500  0.50500  1.0000
  Pd  Pd1       1.0  0.35600  0.35600  0.35600  1.0000
  Pd  Pd2       1.0  0.65300  0.65300  0.65300  1.0000
  Pd  Pd3       1.0  0.85200  0.85200  0.85200  1.0000
  Sr  Sr1       1.0  0.25000  0.25000  0.25000  1.0000
  Sr  Sr2       1.0  0.75600  0.75600  0.75600  1.0000
