data_image0
_chemical_formula_structural       Ca2Hg3K2
_chemical_formula_sum              "Ca2 Hg3 K2"
_cell_length_a       9.78257
_cell_length_b       9.78257
_cell_length_c       9.78257
_cell_angle_alpha    33.4412
_cell_angle_beta     33.4412
_cell_angle_gamma    33.4412

_space_group_name_H-M_alt    "P 1"
_space_group_IT_number       1

loop_
  _space_group_symop_operation_xyz
  'x, y, z'

loop_
  _atom_site_type_symbol
  _atom_site_label
  _atom_site_symmetry_multiplicity
  _atom_site_fract_x
  _atom_site_fract_y
  _atom_site_fract_z
  _atom_site_occupancy
  Ca  Ca1       1.0  0.50400  0.50400  0.50400  1.0000
  Ca  Ca2       1.0  0.99600  0.99600  0.99600  1.0000
  Hg  Hg1       1.0  0.37500  0.37500  0.37500  1.0000
  Hg  Hg2       1.0  0.62600  0.62600  0.62600  1.0000
  Hg  Hg3       1.0  0.87500  0.87500  0.87500  1.0000
  K   K1        1.0  0.24700  0.24700  0.24700  1.0000
  K   K2        1.0  0.75200  0.75200  0.75200  1.0000
