data_image0
_chemical_formula_structural       Ca2Ni3Si2
_chemical_formula_sum              "Ca2 Ni3 Si2"
_cell_length_a       9.70896
_cell_length_b       9.70896
_cell_length_c       9.70896
_cell_angle_alpha    23.5638
_cell_angle_beta     23.5638
_cell_angle_gamma    23.5638

_space_group_name_H-M_alt    "P 1"
_space_group_IT_number       1

loop_
  _space_group_symop_operation_xyz
  'x, y, z'

loop_
  _atom_site_type_symbol
  _atom_site_label
  _atom_site_symmetry_multiplicity
  _atom_site_fract_x
  _atom_site_fract_y
  _atom_site_fract_z
  _atom_site_occupancy
  Ca  Ca1       1.0  0.25000  0.25000  0.25000  1.0000
  Ca  Ca2       1.0  0.75600  0.75600  0.75600  1.0000
  Ni  Ni1       1.0  0.35200  0.35200  0.35200  1.0000
  Ni  Ni2       1.0  0.65700  0.65700  0.65700  1.0000
  Ni  Ni3       1.0  0.85000  0.85000  0.85000  1.0000
  Si  Si1       1.0  0.00416  0.00416  0.00416  1.0000
  Si  Si2       1.0  0.50600  0.50600  0.50600  1.0000
