data_image0
_chemical_formula_structural       Bi2Cs2Pd3
_chemical_formula_sum              "Bi2 Cs2 Pd3"
_cell_length_a       12.3587
_cell_length_b       12.3587
_cell_length_c       12.3587
_cell_angle_alpha    22.081
_cell_angle_beta     22.081
_cell_angle_gamma    22.081

_space_group_name_H-M_alt    "P 1"
_space_group_IT_number       1

loop_
  _space_group_symop_operation_xyz
  'x, y, z'

loop_
  _atom_site_type_symbol
  _atom_site_label
  _atom_site_symmetry_multiplicity
  _atom_site_fract_x
  _atom_site_fract_y
  _atom_site_fract_z
  _atom_site_occupancy
  Bi  Bi1       1.0  0.00428  0.00428  0.00428  1.0000
  Bi  Bi2       1.0  0.50400  0.50400  0.50400  1.0000
  Cs  Cs1       1.0  0.25200  0.25200  0.25200  1.0000
  Cs  Cs2       1.0  0.75600  0.75600  0.75600  1.0000
  Pd  Pd1       1.0  0.34900  0.34900  0.34900  1.0000
  Pd  Pd2       1.0  0.66100  0.66100  0.66100  1.0000
  Pd  Pd3       1.0  0.84900  0.84900  0.84900  1.0000
