data_image0
_chemical_formula_structural       Ba2Cd3Li2
_chemical_formula_sum              "Ba2 Cd3 Li2"
_cell_length_a       8.58541
_cell_length_b       8.58541
_cell_length_c       8.58541
_cell_angle_alpha    37.7055
_cell_angle_beta     37.7055
_cell_angle_gamma    37.7055

_space_group_name_H-M_alt    "P 1"
_space_group_IT_number       1

loop_
  _space_group_symop_operation_xyz
  'x, y, z'

loop_
  _atom_site_type_symbol
  _atom_site_label
  _atom_site_symmetry_multiplicity
  _atom_site_fract_x
  _atom_site_fract_y
  _atom_site_fract_z
  _atom_site_occupancy
  Ba  Ba1       1.0  0.21500  0.21500  0.21500  1.0000
  Ba  Ba2       1.0  0.75800  0.75800  0.75800  1.0000
  Cd  Cd1       1.0  0.36000  0.36000  0.36000  1.0000
  Cd  Cd2       1.0  0.61300  0.61300  0.61300  1.0000
  Cd  Cd3       1.0  0.91400  0.91400  0.91400  1.0000
  Li  Li1       1.0  0.02630  0.02630  0.02630  1.0000
  Li  Li2       1.0  0.48800  0.48800  0.48800  1.0000
