data_image0
_chemical_formula_structural       Be2Ni3Ti2
_chemical_formula_sum              "Be2 Ni3 Ti2"
_cell_length_a       6.6209
_cell_length_b       6.6209
_cell_length_c       6.6209
_cell_angle_alpha    34.6559
_cell_angle_beta     34.6559
_cell_angle_gamma    34.6559

_space_group_name_H-M_alt    "P 1"
_space_group_IT_number       1

loop_
  _space_group_symop_operation_xyz
  'x, y, z'

loop_
  _atom_site_type_symbol
  _atom_site_label
  _atom_site_symmetry_multiplicity
  _atom_site_fract_x
  _atom_site_fract_y
  _atom_site_fract_z
  _atom_site_occupancy
  Be  Be1       1.0  0.00427  0.00427  0.00427  1.0000
  Be  Be2       1.0  0.49900  0.49900  0.49900  1.0000
  Ni  Ni1       1.0  0.37000  0.37000  0.37000  1.0000
  Ni  Ni2       1.0  0.62600  0.62600  0.62600  1.0000
  Ni  Ni3       1.0  0.88200  0.88200  0.88200  1.0000
  Ti  Ti1       1.0  0.23700  0.23700  0.23700  1.0000
  Ti  Ti2       1.0  0.75700  0.75700  0.75700  1.0000
