data_image0
_chemical_formula_structural       Be2Na2Zn3
_chemical_formula_sum              "Be2 Na2 Zn3"
_cell_length_a       8.10252
_cell_length_b       8.10252
_cell_length_c       8.10252
_cell_angle_alpha    29.7744
_cell_angle_beta     29.7744
_cell_angle_gamma    29.7744

_space_group_name_H-M_alt    "P 1"
_space_group_IT_number       1

loop_
  _space_group_symop_operation_xyz
  'x, y, z'

loop_
  _atom_site_type_symbol
  _atom_site_label
  _atom_site_symmetry_multiplicity
  _atom_site_fract_x
  _atom_site_fract_y
  _atom_site_fract_z
  _atom_site_occupancy
  Be  Be1       1.0  0.00948  0.00948  0.00948  1.0000
  Be  Be2       1.0  0.54600  0.54600  0.54600  1.0000
  Na  Na1       1.0  0.16000  0.16000  0.16000  1.0000
  Na  Na2       1.0  0.76300  0.76300  0.76300  1.0000
  Zn  Zn1       1.0  0.34900  0.34900  0.34900  1.0000
  Zn  Zn2       1.0  0.64200  0.64200  0.64200  1.0000
  Zn  Zn3       1.0  0.90500  0.90500  0.90500  1.0000
