data_image0
_chemical_formula_structural       F8Mn4O4
_chemical_formula_sum              "F8 Mn4 O4"
_cell_length_a       4.69195
_cell_length_b       6.96478
_cell_length_c       4.81922
_cell_angle_alpha    90
_cell_angle_beta     90
_cell_angle_gamma    90

_space_group_name_H-M_alt    "P 1"
_space_group_IT_number       1

loop_
  _space_group_symop_operation_xyz
  'x, y, z'

loop_
  _atom_site_type_symbol
  _atom_site_label
  _atom_site_symmetry_multiplicity
  _atom_site_fract_x
  _atom_site_fract_y
  _atom_site_fract_z
  _atom_site_occupancy
  F   F1        1.0  0.15700  0.39400  0.33900  1.0000
  F   F2        1.0  0.65700  0.60600  0.33900  1.0000
  F   F3        1.0  0.67100  0.26500  0.45300  1.0000
  F   F4        1.0  0.17100  0.73500  0.45300  1.0000
  F   F5        1.0  0.34300  0.39400  0.83900  1.0000
  F   F6        1.0  0.84300  0.60600  0.83900  1.0000
  F   F7        1.0  0.82900  0.26500  0.95300  1.0000
  F   F8        1.0  0.32900  0.73500  0.95300  1.0000
  Mn  Mn1       1.0  0.00996  0.17000  0.27600  1.0000
  Mn  Mn2       1.0  0.51000  0.83000  0.27600  1.0000
  Mn  Mn3       1.0  0.49000  0.17000  0.77600  1.0000
  Mn  Mn4       1.0  0.99000  0.83000  0.77600  1.0000
  O   O1        1.0  0.34300  0.07130  0.11400  1.0000
  O   O2        1.0  0.84300  0.92900  0.11400  1.0000
  O   O3        1.0  0.15700  0.07130  0.61400  1.0000
  O   O4        1.0  0.65700  0.92900  0.61400  1.0000
