data_image0
_chemical_formula_structural       Hg3Na2Sr2
_chemical_formula_sum              "Hg3 Na2 Sr2"
_cell_length_a       9.31183
_cell_length_b       9.31183
_cell_length_c       9.31183
_cell_angle_alpha    34.2071
_cell_angle_beta     34.2071
_cell_angle_gamma    34.2071

_space_group_name_H-M_alt    "P 1"
_space_group_IT_number       1

loop_
  _space_group_symop_operation_xyz
  'x, y, z'

loop_
  _atom_site_type_symbol
  _atom_site_label
  _atom_site_symmetry_multiplicity
  _atom_site_fract_x
  _atom_site_fract_y
  _atom_site_fract_z
  _atom_site_occupancy
  Hg  Hg1       1.0  0.37200  0.37200  0.37200  1.0000
  Hg  Hg2       1.0  0.62500  0.62500  0.62500  1.0000
  Hg  Hg3       1.0  0.87700  0.87700  0.87700  1.0000
  Na  Na1       1.0  0.24700  0.24700  0.24700  1.0000
  Na  Na2       1.0  0.75200  0.75200  0.75200  1.0000
  Sr  Sr1       1.0  0.00455  0.00455  0.00455  1.0000
  Sr  Sr2       1.0  0.49700  0.49700  0.49700  1.0000
