data_image0
_chemical_formula_structural       Pd3Sn2Sr2
_chemical_formula_sum              "Pd3 Sn2 Sr2"
_cell_length_a       10.0243
_cell_length_b       10.0243
_cell_length_c       10.0243
_cell_angle_alpha    26.7513
_cell_angle_beta     26.7513
_cell_angle_gamma    26.7513

_space_group_name_H-M_alt    "P 1"
_space_group_IT_number       1

loop_
  _space_group_symop_operation_xyz
  'x, y, z'

loop_
  _atom_site_type_symbol
  _atom_site_label
  _atom_site_symmetry_multiplicity
  _atom_site_fract_x
  _atom_site_fract_y
  _atom_site_fract_z
  _atom_site_occupancy
  Pd  Pd1       1.0  0.35700  0.35700  0.35700  1.0000
  Pd  Pd2       1.0  0.65100  0.65100  0.65100  1.0000
  Pd  Pd3       1.0  0.85700  0.85700  0.85700  1.0000
  Sn  Sn1       1.0  0.00238  0.00238  0.00238  1.0000
  Sn  Sn2       1.0  0.50300  0.50300  0.50300  1.0000
  Sr  Sr1       1.0  0.25000  0.25000  0.25000  1.0000
  Sr  Sr2       1.0  0.75500  0.75500  0.75500  1.0000
