data_image0
_chemical_formula_structural       Li2Sr2Zn3
_chemical_formula_sum              "Li2 Sr2 Zn3"
_cell_length_a       8.26602
_cell_length_b       8.26602
_cell_length_c       8.26602
_cell_angle_alpha    36.1582
_cell_angle_beta     36.1582
_cell_angle_gamma    36.1582

_space_group_name_H-M_alt    "P 1"
_space_group_IT_number       1

loop_
  _space_group_symop_operation_xyz
  'x, y, z'

loop_
  _atom_site_type_symbol
  _atom_site_label
  _atom_site_symmetry_multiplicity
  _atom_site_fract_x
  _atom_site_fract_y
  _atom_site_fract_z
  _atom_site_occupancy
  Li  Li1       1.0  0.00578  0.00578  0.00578  1.0000
  Li  Li2       1.0  0.50100  0.50100  0.50100  1.0000
  Sr  Sr1       1.0  0.23200  0.23200  0.23200  1.0000
  Sr  Sr2       1.0  0.75600  0.75600  0.75600  1.0000
  Zn  Zn1       1.0  0.36600  0.36600  0.36600  1.0000
  Zn  Zn2       1.0  0.62000  0.62000  0.62000  1.0000
  Zn  Zn3       1.0  0.89400  0.89400  0.89400  1.0000
