data_image0
_chemical_formula_structural       Ba2Pb2Pd3
_chemical_formula_sum              "Ba2 Pb2 Pd3"
_cell_length_a       10.4972
_cell_length_b       10.4972
_cell_length_c       10.4972
_cell_angle_alpha    26.4998
_cell_angle_beta     26.4998
_cell_angle_gamma    26.4998

_space_group_name_H-M_alt    "P 1"
_space_group_IT_number       1

loop_
  _space_group_symop_operation_xyz
  'x, y, z'

loop_
  _atom_site_type_symbol
  _atom_site_label
  _atom_site_symmetry_multiplicity
  _atom_site_fract_x
  _atom_site_fract_y
  _atom_site_fract_z
  _atom_site_occupancy
  Ba  Ba1       1.0  0.24900  0.24900  0.24900  1.0000
  Ba  Ba2       1.0  0.75600  0.75600  0.75600  1.0000
  Pb  Pb1       1.0  0.00296  0.00296  0.00296  1.0000
  Pb  Pb2       1.0  0.50100  0.50100  0.50100  1.0000
  Pd  Pd1       1.0  0.35600  0.35600  0.35600  1.0000
  Pd  Pd2       1.0  0.65300  0.65300  0.65300  1.0000
  Pd  Pd3       1.0  0.85700  0.85700  0.85700  1.0000
