data_image0
_chemical_formula_structural       Ba2Pd3Sn2
_chemical_formula_sum              "Ba2 Pd3 Sn2"
_cell_length_a       10.8096
_cell_length_b       10.8096
_cell_length_c       10.8096
_cell_angle_alpha    24.913
_cell_angle_beta     24.913
_cell_angle_gamma    24.913

_space_group_name_H-M_alt    "P 1"
_space_group_IT_number       1

loop_
  _space_group_symop_operation_xyz
  'x, y, z'

loop_
  _atom_site_type_symbol
  _atom_site_label
  _atom_site_symmetry_multiplicity
  _atom_site_fract_x
  _atom_site_fract_y
  _atom_site_fract_z
  _atom_site_occupancy
  Ba  Ba1       1.0  0.25000  0.25000  0.25000  1.0000
  Ba  Ba2       1.0  0.75600  0.75600  0.75600  1.0000
  Pd  Pd1       1.0  0.35400  0.35400  0.35400  1.0000
  Pd  Pd2       1.0  0.65400  0.65400  0.65400  1.0000
  Pd  Pd3       1.0  0.85500  0.85500  0.85500  1.0000
  Sn  Sn1       1.0  0.00375  0.00375  0.00375  1.0000
  Sn  Sn2       1.0  0.50300  0.50300  0.50300  1.0000
