data_image0
_chemical_formula_structural       Be2Pb2Pt3
_chemical_formula_sum              "Be2 Pb2 Pt3"
_cell_length_a       7.69019
_cell_length_b       7.69019
_cell_length_c       7.69019
_cell_angle_alpha    33.9382
_cell_angle_beta     33.9382
_cell_angle_gamma    33.9382

_space_group_name_H-M_alt    "P 1"
_space_group_IT_number       1

loop_
  _space_group_symop_operation_xyz
  'x, y, z'

loop_
  _atom_site_type_symbol
  _atom_site_label
  _atom_site_symmetry_multiplicity
  _atom_site_fract_x
  _atom_site_fract_y
  _atom_site_fract_z
  _atom_site_occupancy
  Be  Be1       1.0  0.25700  0.25700  0.25700  1.0000
  Be  Be2       1.0  0.75100  0.75100  0.75100  1.0000
  Pb  Pb1       1.0  0.00747  0.00747  0.00747  1.0000
  Pb  Pb2       1.0  0.49400  0.49400  0.49400  1.0000
  Pt  Pt1       1.0  0.37200  0.37200  0.37200  1.0000
  Pt  Pt2       1.0  0.62000  0.62000  0.62000  1.0000
  Pt  Pt3       1.0  0.87400  0.87400  0.87400  1.0000
