data_image0
_chemical_formula_structural       Hg3Li2Sr2
_chemical_formula_sum              "Hg3 Li2 Sr2"
_cell_length_a       8.73993
_cell_length_b       8.73993
_cell_length_c       8.73993
_cell_angle_alpha    35.8312
_cell_angle_beta     35.8312
_cell_angle_gamma    35.8312

_space_group_name_H-M_alt    "P 1"
_space_group_IT_number       1

loop_
  _space_group_symop_operation_xyz
  'x, y, z'

loop_
  _atom_site_type_symbol
  _atom_site_label
  _atom_site_symmetry_multiplicity
  _atom_site_fract_x
  _atom_site_fract_y
  _atom_site_fract_z
  _atom_site_occupancy
  Hg  Hg1       1.0  0.37300  0.37300  0.37300  1.0000
  Hg  Hg2       1.0  0.62200  0.62200  0.62200  1.0000
  Hg  Hg3       1.0  0.88400  0.88400  0.88400  1.0000
  Li  Li1       1.0  0.50300  0.50300  0.50300  1.0000
  Li  Li2       1.0  0.99900  0.99900  0.99900  1.0000
  Sr  Sr1       1.0  0.24000  0.24000  0.24000  1.0000
  Sr  Sr2       1.0  0.75400  0.75400  0.75400  1.0000
