data_image0
_chemical_formula_structural       Cs2Nb2Pd3
_chemical_formula_sum              "Cs2 Nb2 Pd3"
_cell_length_a       12.0573
_cell_length_b       12.0573
_cell_length_c       12.0573
_cell_angle_alpha    21.4778
_cell_angle_beta     21.4778
_cell_angle_gamma    21.4778

_space_group_name_H-M_alt    "P 1"
_space_group_IT_number       1

loop_
  _space_group_symop_operation_xyz
  'x, y, z'

loop_
  _atom_site_type_symbol
  _atom_site_label
  _atom_site_symmetry_multiplicity
  _atom_site_fract_x
  _atom_site_fract_y
  _atom_site_fract_z
  _atom_site_occupancy
  Cs  Cs1       1.0  0.17600  0.17600  0.17600  1.0000
  Cs  Cs2       1.0  0.75000  0.75000  0.75000  1.0000
  Nb  Nb1       1.0  0.59600  0.59600  0.59600  1.0000
  Nb  Nb2       1.0  0.97400  0.97400  0.97400  1.0000
  Pd  Pd1       1.0  0.30800  0.30800  0.30800  1.0000
  Pd  Pd2       1.0  0.67100  0.67100  0.67100  1.0000
  Pd  Pd3       1.0  0.90000  0.90000  0.90000  1.0000
