data_image0
_chemical_formula_structural       Ca2Cd3Cs2
_chemical_formula_sum              "Ca2 Cd3 Cs2"
_cell_length_a       11.2015
_cell_length_b       11.2015
_cell_length_c       11.2015
_cell_angle_alpha    30.072
_cell_angle_beta     30.072
_cell_angle_gamma    30.072

_space_group_name_H-M_alt    "P 1"
_space_group_IT_number       1

loop_
  _space_group_symop_operation_xyz
  'x, y, z'

loop_
  _atom_site_type_symbol
  _atom_site_label
  _atom_site_symmetry_multiplicity
  _atom_site_fract_x
  _atom_site_fract_y
  _atom_site_fract_z
  _atom_site_occupancy
  Ca  Ca1       1.0  0.52500  0.52500  0.52500  1.0000
  Ca  Ca2       1.0  0.98600  0.98600  0.98600  1.0000
  Cd  Cd1       1.0  0.35200  0.35200  0.35200  1.0000
  Cd  Cd2       1.0  0.63800  0.63800  0.63800  1.0000
  Cd  Cd3       1.0  0.87400  0.87400  0.87400  1.0000
  Cs  Cs1       1.0  0.24600  0.24600  0.24600  1.0000
  Cs  Cs2       1.0  0.75500  0.75500  0.75500  1.0000
