data_image0
_chemical_formula_structural       Ba2Li2Zn3
_chemical_formula_sum              "Ba2 Li2 Zn3"
_cell_length_a       8.90644
_cell_length_b       8.90644
_cell_length_c       8.90644
_cell_angle_alpha    34.5929
_cell_angle_beta     34.5929
_cell_angle_gamma    34.5929

_space_group_name_H-M_alt    "P 1"
_space_group_IT_number       1

loop_
  _space_group_symop_operation_xyz
  'x, y, z'

loop_
  _atom_site_type_symbol
  _atom_site_label
  _atom_site_symmetry_multiplicity
  _atom_site_fract_x
  _atom_site_fract_y
  _atom_site_fract_z
  _atom_site_occupancy
  Ba  Ba1       1.0  0.23900  0.23900  0.23900  1.0000
  Ba  Ba2       1.0  0.75500  0.75500  0.75500  1.0000
  Li  Li1       1.0  0.50700  0.50700  0.50700  1.0000
  Li  Li2       1.0  0.99700  0.99700  0.99700  1.0000
  Zn  Zn1       1.0  0.36500  0.36500  0.36500  1.0000
  Zn  Zn2       1.0  0.62500  0.62500  0.62500  1.0000
  Zn  Zn3       1.0  0.88700  0.88700  0.88700  1.0000
