data_image0
_chemical_formula_structural       Mg2Pb2Pt3
_chemical_formula_sum              "Mg2 Pb2 Pt3"
_cell_length_a       8.00754
_cell_length_b       8.00754
_cell_length_c       8.00754
_cell_angle_alpha    33.7843
_cell_angle_beta     33.7843
_cell_angle_gamma    33.7843

_space_group_name_H-M_alt    "P 1"
_space_group_IT_number       1

loop_
  _space_group_symop_operation_xyz
  'x, y, z'

loop_
  _atom_site_type_symbol
  _atom_site_label
  _atom_site_symmetry_multiplicity
  _atom_site_fract_x
  _atom_site_fract_y
  _atom_site_fract_z
  _atom_site_occupancy
  Mg  Mg1       1.0  0.24700  0.24700  0.24700  1.0000
  Mg  Mg2       1.0  0.75200  0.75200  0.75200  1.0000
  Pb  Pb1       1.0  0.00490  0.00490  0.00490  1.0000
  Pb  Pb2       1.0  0.49700  0.49700  0.49700  1.0000
  Pt  Pt1       1.0  0.37400  0.37400  0.37400  1.0000
  Pt  Pt2       1.0  0.62400  0.62400  0.62400  1.0000
  Pt  Pt3       1.0  0.87600  0.87600  0.87600  1.0000
