data_image0
_chemical_formula_structural       Be2Pt3Zr2
_chemical_formula_sum              "Be2 Pt3 Zr2"
_cell_length_a       7.53591
_cell_length_b       7.53591
_cell_length_c       7.53591
_cell_angle_alpha    33.9298
_cell_angle_beta     33.9298
_cell_angle_gamma    33.9298

_space_group_name_H-M_alt    "P 1"
_space_group_IT_number       1

loop_
  _space_group_symop_operation_xyz
  'x, y, z'

loop_
  _atom_site_type_symbol
  _atom_site_label
  _atom_site_symmetry_multiplicity
  _atom_site_fract_x
  _atom_site_fract_y
  _atom_site_fract_z
  _atom_site_occupancy
  Be  Be1       1.0  0.49900  0.49900  0.49900  1.0000
  Be  Be2       1.0  0.99900  0.99900  0.99900  1.0000
  Pt  Pt1       1.0  0.37400  0.37400  0.37400  1.0000
  Pt  Pt2       1.0  0.62600  0.62600  0.62600  1.0000
  Pt  Pt3       1.0  0.87800  0.87800  0.87800  1.0000
  Zr  Zr1       1.0  0.24300  0.24300  0.24300  1.0000
  Zr  Zr2       1.0  0.75500  0.75500  0.75500  1.0000
