data_image0
_chemical_formula_structural       K2Ni3Ta2
_chemical_formula_sum              "K2 Ni3 Ta2"
_cell_length_a       11.9086
_cell_length_b       11.9086
_cell_length_c       11.9086
_cell_angle_alpha    20.5107
_cell_angle_beta     20.5107
_cell_angle_gamma    20.5107

_space_group_name_H-M_alt    "P 1"
_space_group_IT_number       1

loop_
  _space_group_symop_operation_xyz
  'x, y, z'

loop_
  _atom_site_type_symbol
  _atom_site_label
  _atom_site_symmetry_multiplicity
  _atom_site_fract_x
  _atom_site_fract_y
  _atom_site_fract_z
  _atom_site_occupancy
  K   K1        1.0  0.18000  0.18000  0.18000  1.0000
  K   K2        1.0  0.74800  0.74800  0.74800  1.0000
  Ni  Ni1       1.0  0.29000  0.29000  0.29000  1.0000
  Ni  Ni2       1.0  0.66300  0.66300  0.66300  1.0000
  Ni  Ni3       1.0  0.91500  0.91500  0.91500  1.0000
  Ta  Ta1       1.0  0.59400  0.59400  0.59400  1.0000
  Ta  Ta2       1.0  0.98500  0.98500  0.98500  1.0000
