data_image0
_chemical_formula_structural       Li2Mg2Zn3
_chemical_formula_sum              "Li2 Mg2 Zn3"
_cell_length_a       6.99713
_cell_length_b       6.99713
_cell_length_c       6.99713
_cell_angle_alpha    37.1386
_cell_angle_beta     37.1386
_cell_angle_gamma    37.1386

_space_group_name_H-M_alt    "P 1"
_space_group_IT_number       1

loop_
  _space_group_symop_operation_xyz
  'x, y, z'

loop_
  _atom_site_type_symbol
  _atom_site_label
  _atom_site_symmetry_multiplicity
  _atom_site_fract_x
  _atom_site_fract_y
  _atom_site_fract_z
  _atom_site_occupancy
  Li  Li1       1.0  0.20900  0.20900  0.20900  1.0000
  Li  Li2       1.0  0.76400  0.76400  0.76400  1.0000
  Mg  Mg1       1.0  0.04790  0.04790  0.04790  1.0000
  Mg  Mg2       1.0  0.48500  0.48500  0.48500  1.0000
  Zn  Zn1       1.0  0.34100  0.34100  0.34100  1.0000
  Zn  Zn2       1.0  0.62600  0.62600  0.62600  1.0000
  Zn  Zn3       1.0  0.90200  0.90200  0.90200  1.0000
