data_image0
_chemical_formula_structural       Be2Hg3Rb2
_chemical_formula_sum              "Be2 Hg3 Rb2"
_cell_length_a       9.78396
_cell_length_b       9.78396
_cell_length_c       9.78396
_cell_angle_alpha    31.7085
_cell_angle_beta     31.7085
_cell_angle_gamma    31.7085

_space_group_name_H-M_alt    "P 1"
_space_group_IT_number       1

loop_
  _space_group_symop_operation_xyz
  'x, y, z'

loop_
  _atom_site_type_symbol
  _atom_site_label
  _atom_site_symmetry_multiplicity
  _atom_site_fract_x
  _atom_site_fract_y
  _atom_site_fract_z
  _atom_site_occupancy
  Be  Be1       1.0  0.54200  0.54200  0.54200  1.0000
  Be  Be2       1.0  0.97500  0.97500  0.97500  1.0000
  Hg  Hg1       1.0  0.35000  0.35000  0.35000  1.0000
  Hg  Hg2       1.0  0.63200  0.63200  0.63200  1.0000
  Hg  Hg3       1.0  0.88400  0.88400  0.88400  1.0000
  Rb  Rb1       1.0  0.23300  0.23300  0.23300  1.0000
  Rb  Rb2       1.0  0.75900  0.75900  0.75900  1.0000
