data_image0
_chemical_formula_structural       Mg2Na2Zn3
_chemical_formula_sum              "Mg2 Na2 Zn3"
_cell_length_a       8.09316
_cell_length_b       8.09316
_cell_length_c       8.09316
_cell_angle_alpha    34.3469
_cell_angle_beta     34.3469
_cell_angle_gamma    34.3469

_space_group_name_H-M_alt    "P 1"
_space_group_IT_number       1

loop_
  _space_group_symop_operation_xyz
  'x, y, z'

loop_
  _atom_site_type_symbol
  _atom_site_label
  _atom_site_symmetry_multiplicity
  _atom_site_fract_x
  _atom_site_fract_y
  _atom_site_fract_z
  _atom_site_occupancy
  Mg  Mg1       1.0  0.00428  0.00428  0.00428  1.0000
  Mg  Mg2       1.0  0.49800  0.49800  0.49800  1.0000
  Na  Na1       1.0  0.24000  0.24000  0.24000  1.0000
  Na  Na2       1.0  0.75600  0.75600  0.75600  1.0000
  Zn  Zn1       1.0  0.36800  0.36800  0.36800  1.0000
  Zn  Zn2       1.0  0.62700  0.62700  0.62700  1.0000
  Zn  Zn3       1.0  0.88200  0.88200  0.88200  1.0000
