data_image0
_chemical_formula_structural       Bi2K2Ni3
_chemical_formula_sum              "Bi2 K2 Ni3"
_cell_length_a       11.6905
_cell_length_b       11.6905
_cell_length_c       11.6905
_cell_angle_alpha    21.8725
_cell_angle_beta     21.8725
_cell_angle_gamma    21.8725

_space_group_name_H-M_alt    "P 1"
_space_group_IT_number       1

loop_
  _space_group_symop_operation_xyz
  'x, y, z'

loop_
  _atom_site_type_symbol
  _atom_site_label
  _atom_site_symmetry_multiplicity
  _atom_site_fract_x
  _atom_site_fract_y
  _atom_site_fract_z
  _atom_site_occupancy
  Bi  Bi1       1.0  0.00361  0.00361  0.00361  1.0000
  Bi  Bi2       1.0  0.50600  0.50600  0.50600  1.0000
  K   K1        1.0  0.25000  0.25000  0.25000  1.0000
  K   K2        1.0  0.75700  0.75700  0.75700  1.0000
  Ni  Ni1       1.0  0.34600  0.34600  0.34600  1.0000
  Ni  Ni2       1.0  0.66400  0.66400  0.66400  1.0000
  Ni  Ni3       1.0  0.84800  0.84800  0.84800  1.0000
