data_image0
_chemical_formula_structural       Ca4O2S2
_chemical_formula_sum              "Ca4 O2 S2"
_cell_length_a       3.88745
_cell_length_b       3.88746
_cell_length_c       12.7467
_cell_angle_alpha    90
_cell_angle_beta     90
_cell_angle_gamma    120

_space_group_name_H-M_alt    "P 1"
_space_group_IT_number       1

loop_
  _space_group_symop_operation_xyz
  'x, y, z'

loop_
  _atom_site_type_symbol
  _atom_site_label
  _atom_site_symmetry_multiplicity
  _atom_site_fract_x
  _atom_site_fract_y
  _atom_site_fract_z
  _atom_site_occupancy
  Ca  Ca1       1.0  0.33300  0.66700  0.25800  1.0000
  Ca  Ca2       1.0  0.00000  0.00000  0.49500  1.0000
  Ca  Ca3       1.0  0.66700  0.33300  0.75800  1.0000
  Ca  Ca4       1.0  0.00000  0.00000  0.99500  1.0000
  O   O1        1.0  0.00000  0.00000  0.32700  1.0000
  O   O2        1.0  0.00000  0.00000  0.82700  1.0000
  S   S1        1.0  0.66700  0.33300  0.10700  1.0000
  S   S2        1.0  0.33300  0.66700  0.60700  1.0000
