data_image0
_chemical_formula_structural       As2Cs2Pd3
_chemical_formula_sum              "As2 Cs2 Pd3"
_cell_length_a       12.1371
_cell_length_b       12.1371
_cell_length_c       12.1371
_cell_angle_alpha    20.9672
_cell_angle_beta     20.9672
_cell_angle_gamma    20.9672

_space_group_name_H-M_alt    "P 1"
_space_group_IT_number       1

loop_
  _space_group_symop_operation_xyz
  'x, y, z'

loop_
  _atom_site_type_symbol
  _atom_site_label
  _atom_site_symmetry_multiplicity
  _atom_site_fract_x
  _atom_site_fract_y
  _atom_site_fract_z
  _atom_site_occupancy
  As  As1       1.0  0.58200  0.58200  0.58200  1.0000
  As  As2       1.0  0.99900  0.99900  0.99900  1.0000
  Cs  Cs1       1.0  0.18200  0.18200  0.18200  1.0000
  Cs  Cs2       1.0  0.74300  0.74300  0.74300  1.0000
  Pd  Pd1       1.0  0.29100  0.29100  0.29100  1.0000
  Pd  Pd2       1.0  0.65300  0.65300  0.65300  1.0000
  Pd  Pd3       1.0  0.92600  0.92600  0.92600  1.0000
