data_image0
_chemical_formula_structural       Hf2Mg2Pd3
_chemical_formula_sum              "Hf2 Mg2 Pd3"
_cell_length_a       7.74228
_cell_length_b       7.74228
_cell_length_c       7.74228
_cell_angle_alpha    34.1577
_cell_angle_beta     34.1577
_cell_angle_gamma    34.1577

_space_group_name_H-M_alt    "P 1"
_space_group_IT_number       1

loop_
  _space_group_symop_operation_xyz
  'x, y, z'

loop_
  _atom_site_type_symbol
  _atom_site_label
  _atom_site_symmetry_multiplicity
  _atom_site_fract_x
  _atom_site_fract_y
  _atom_site_fract_z
  _atom_site_occupancy
  Hf  Hf1       1.0  0.24600  0.24600  0.24600  1.0000
  Hf  Hf2       1.0  0.75300  0.75300  0.75300  1.0000
  Mg  Mg1       1.0  0.00414  0.00414  0.00414  1.0000
  Mg  Mg2       1.0  0.49700  0.49700  0.49700  1.0000
  Pd  Pd1       1.0  0.37300  0.37300  0.37300  1.0000
  Pd  Pd2       1.0  0.62500  0.62500  0.62500  1.0000
  Pd  Pd3       1.0  0.87700  0.87700  0.87700  1.0000
