data_image0
_chemical_formula_structural       K2Pt3Sb2
_chemical_formula_sum              "K2 Pt3 Sb2"
_cell_length_a       12.0115
_cell_length_b       12.0115
_cell_length_c       12.0115
_cell_angle_alpha    21.8391
_cell_angle_beta     21.8391
_cell_angle_gamma    21.8391

_space_group_name_H-M_alt    "P 1"
_space_group_IT_number       1

loop_
  _space_group_symop_operation_xyz
  'x, y, z'

loop_
  _atom_site_type_symbol
  _atom_site_label
  _atom_site_symmetry_multiplicity
  _atom_site_fract_x
  _atom_site_fract_y
  _atom_site_fract_z
  _atom_site_occupancy
  K   K1        1.0  0.25200  0.25200  0.25200  1.0000
  K   K2        1.0  0.75500  0.75500  0.75500  1.0000
  Pt  Pt1       1.0  0.35100  0.35100  0.35100  1.0000
  Pt  Pt2       1.0  0.65800  0.65800  0.65800  1.0000
  Pt  Pt3       1.0  0.84800  0.84800  0.84800  1.0000
  Sb  Sb1       1.0  0.00328  0.00328  0.00328  1.0000
  Sb  Sb2       1.0  0.50900  0.50900  0.50900  1.0000
