data_image0
_chemical_formula_structural       Ba2Pt3Zr2
_chemical_formula_sum              "Ba2 Pt3 Zr2"
_cell_length_a       9.38303
_cell_length_b       9.38303
_cell_length_c       9.38303
_cell_angle_alpha    31.3992
_cell_angle_beta     31.3992
_cell_angle_gamma    31.3992

_space_group_name_H-M_alt    "P 1"
_space_group_IT_number       1

loop_
  _space_group_symop_operation_xyz
  'x, y, z'

loop_
  _atom_site_type_symbol
  _atom_site_label
  _atom_site_symmetry_multiplicity
  _atom_site_fract_x
  _atom_site_fract_y
  _atom_site_fract_z
  _atom_site_occupancy
  Ba  Ba1       1.0  0.22900  0.22900  0.22900  1.0000
  Ba  Ba2       1.0  0.75700  0.75700  0.75700  1.0000
  Pt  Pt1       1.0  0.34100  0.34100  0.34100  1.0000
  Pt  Pt2       1.0  0.64500  0.64500  0.64500  1.0000
  Pt  Pt3       1.0  0.87600  0.87600  0.87600  1.0000
  Zr  Zr1       1.0  0.55000  0.55000  0.55000  1.0000
  Zr  Zr2       1.0  0.97700  0.97700  0.97700  1.0000
