data_image0
_chemical_formula_structural       Be2Ni3Zr2
_chemical_formula_sum              "Be2 Ni3 Zr2"
_cell_length_a       7.05834
_cell_length_b       7.05834
_cell_length_c       7.05834
_cell_angle_alpha    34.111
_cell_angle_beta     34.111
_cell_angle_gamma    34.111

_space_group_name_H-M_alt    "P 1"
_space_group_IT_number       1

loop_
  _space_group_symop_operation_xyz
  'x, y, z'

loop_
  _atom_site_type_symbol
  _atom_site_label
  _atom_site_symmetry_multiplicity
  _atom_site_fract_x
  _atom_site_fract_y
  _atom_site_fract_z
  _atom_site_occupancy
  Be  Be1       1.0  0.50100  0.50100  0.50100  1.0000
  Be  Be2       1.0  0.00000  1.00000  1.00000  1.0000
  Ni  Ni1       1.0  0.37000  0.37000  0.37000  1.0000
  Ni  Ni2       1.0  0.62700  0.62700  0.62700  1.0000
  Ni  Ni3       1.0  0.88100  0.88100  0.88100  1.0000
  Zr  Zr1       1.0  0.24000  0.24000  0.24000  1.0000
  Zr  Zr2       1.0  0.75600  0.75600  0.75600  1.0000
