data_image0
_chemical_formula_structural       K2Pd3V2
_chemical_formula_sum              "K2 Pd3 V2"
_cell_length_a       12.0709
_cell_length_b       12.0709
_cell_length_c       12.0709
_cell_angle_alpha    20.7886
_cell_angle_beta     20.7886
_cell_angle_gamma    20.7886

_space_group_name_H-M_alt    "P 1"
_space_group_IT_number       1

loop_
  _space_group_symop_operation_xyz
  'x, y, z'

loop_
  _atom_site_type_symbol
  _atom_site_label
  _atom_site_symmetry_multiplicity
  _atom_site_fract_x
  _atom_site_fract_y
  _atom_site_fract_z
  _atom_site_occupancy
  K   K1        1.0  0.18300  0.18300  0.18300  1.0000
  K   K2        1.0  0.75000  0.75000  0.75000  1.0000
  Pd  Pd1       1.0  0.28300  0.28300  0.28300  1.0000
  Pd  Pd2       1.0  0.66600  0.66600  0.66600  1.0000
  Pd  Pd3       1.0  0.91200  0.91200  0.91200  1.0000
  V   V1        1.0  0.59600  0.59600  0.59600  1.0000
  V   V2        1.0  0.98500  0.98500  0.98500  1.0000
