data_image0
_chemical_formula_structural       Ba2Cd3Rb2
_chemical_formula_sum              "Ba2 Cd3 Rb2"
_cell_length_a       10.4756
_cell_length_b       10.4756
_cell_length_c       10.4756
_cell_angle_alpha    33.7431
_cell_angle_beta     33.7431
_cell_angle_gamma    33.7431

_space_group_name_H-M_alt    "P 1"
_space_group_IT_number       1

loop_
  _space_group_symop_operation_xyz
  'x, y, z'

loop_
  _atom_site_type_symbol
  _atom_site_label
  _atom_site_symmetry_multiplicity
  _atom_site_fract_x
  _atom_site_fract_y
  _atom_site_fract_z
  _atom_site_occupancy
  Ba  Ba1       1.0  0.50200  0.50200  0.50200  1.0000
  Ba  Ba2       1.0  0.99900  0.99900  0.99900  1.0000
  Cd  Cd1       1.0  0.37300  0.37300  0.37300  1.0000
  Cd  Cd2       1.0  0.62500  0.62500  0.62500  1.0000
  Cd  Cd3       1.0  0.87700  0.87700  0.87700  1.0000
  Rb  Rb1       1.0  0.24800  0.24800  0.24800  1.0000
  Rb  Rb2       1.0  0.75200  0.75200  0.75200  1.0000
