data_image0
_chemical_formula_structural       Ca2Hg3Rb2
_chemical_formula_sum              "Ca2 Hg3 Rb2"
_cell_length_a       10.5997
_cell_length_b       10.5997
_cell_length_c       10.5997
_cell_angle_alpha    30.684
_cell_angle_beta     30.684
_cell_angle_gamma    30.684

_space_group_name_H-M_alt    "P 1"
_space_group_IT_number       1

loop_
  _space_group_symop_operation_xyz
  'x, y, z'

loop_
  _atom_site_type_symbol
  _atom_site_label
  _atom_site_symmetry_multiplicity
  _atom_site_fract_x
  _atom_site_fract_y
  _atom_site_fract_z
  _atom_site_occupancy
  Ca  Ca1       1.0  0.51500  0.51500  0.51500  1.0000
  Ca  Ca2       1.0  0.99100  0.99100  0.99100  1.0000
  Hg  Hg1       1.0  0.35900  0.35900  0.35900  1.0000
  Hg  Hg2       1.0  0.63600  0.63600  0.63600  1.0000
  Hg  Hg3       1.0  0.87200  0.87200  0.87200  1.0000
  Rb  Rb1       1.0  0.24700  0.24700  0.24700  1.0000
  Rb  Rb2       1.0  0.75500  0.75500  0.75500  1.0000
