data_image0
_chemical_formula_structural       Hg3K2Sr2
_chemical_formula_sum              "Hg3 K2 Sr2"
_cell_length_a       10.0125
_cell_length_b       10.0125
_cell_length_c       10.0125
_cell_angle_alpha    33.5108
_cell_angle_beta     33.5108
_cell_angle_gamma    33.5108

_space_group_name_H-M_alt    "P 1"
_space_group_IT_number       1

loop_
  _space_group_symop_operation_xyz
  'x, y, z'

loop_
  _atom_site_type_symbol
  _atom_site_label
  _atom_site_symmetry_multiplicity
  _atom_site_fract_x
  _atom_site_fract_y
  _atom_site_fract_z
  _atom_site_occupancy
  Hg  Hg1       1.0  0.37500  0.37500  0.37500  1.0000
  Hg  Hg2       1.0  0.62600  0.62600  0.62600  1.0000
  Hg  Hg3       1.0  0.87400  0.87400  0.87400  1.0000
  K   K1        1.0  0.24800  0.24800  0.24800  1.0000
  K   K2        1.0  0.75100  0.75100  0.75100  1.0000
  Sr  Sr1       1.0  0.50200  0.50200  0.50200  1.0000
  Sr  Sr2       1.0  0.99900  0.99900  0.99900  1.0000
