data_image0
_chemical_formula_structural       Pt3Si2Sr2
_chemical_formula_sum              "Pt3 Si2 Sr2"
_cell_length_a       10.9381
_cell_length_b       10.9381
_cell_length_c       10.9381
_cell_angle_alpha    22.1105
_cell_angle_beta     22.1105
_cell_angle_gamma    22.1105

_space_group_name_H-M_alt    "P 1"
_space_group_IT_number       1

loop_
  _space_group_symop_operation_xyz
  'x, y, z'

loop_
  _atom_site_type_symbol
  _atom_site_label
  _atom_site_symmetry_multiplicity
  _atom_site_fract_x
  _atom_site_fract_y
  _atom_site_fract_z
  _atom_site_occupancy
  Pt  Pt1       1.0  0.35800  0.35800  0.35800  1.0000
  Pt  Pt2       1.0  0.65200  0.65200  0.65200  1.0000
  Pt  Pt3       1.0  0.84800  0.84800  0.84800  1.0000
  Si  Si1       1.0  0.00398  0.00398  0.00398  1.0000
  Si  Si2       1.0  0.50800  0.50800  0.50800  1.0000
  Sr  Sr1       1.0  0.25100  0.25100  0.25100  1.0000
  Sr  Sr2       1.0  0.75400  0.75400  0.75400  1.0000
