data_image0
_chemical_formula_structural       Ba2Ni2O2S2
_chemical_formula_sum              "Ba2 Ni2 O2 S2"
_cell_length_a       4.16291
_cell_length_b       4.04909
_cell_length_c       11.9453
_cell_angle_alpha    90
_cell_angle_beta     90
_cell_angle_gamma    120.934

_space_group_name_H-M_alt    "P 1"
_space_group_IT_number       1

loop_
  _space_group_symop_operation_xyz
  'x, y, z'

loop_
  _atom_site_type_symbol
  _atom_site_label
  _atom_site_symmetry_multiplicity
  _atom_site_fract_x
  _atom_site_fract_y
  _atom_site_fract_z
  _atom_site_occupancy
  Ba  Ba1       1.0  0.33600  0.67200  0.27100  1.0000
  Ba  Ba2       1.0  0.66400  0.32800  0.77100  1.0000
  Ni  Ni1       1.0  0.00191  0.00382  0.00416  1.0000
  Ni  Ni2       1.0  0.99800  0.99600  0.50400  1.0000
  O   O1        1.0  0.99600  0.99300  0.34800  1.0000
  O   O2        1.0  0.00368  0.00736  0.84800  1.0000
  S   S1        1.0  0.66400  0.32900  0.06460  1.0000
  S   S2        1.0  0.33600  0.67100  0.56500  1.0000
