data_image0
_chemical_formula_structural       Cd3Cs2Mg2
_chemical_formula_sum              "Cd3 Cs2 Mg2"
_cell_length_a       12.2548
_cell_length_b       12.2548
_cell_length_c       12.2548
_cell_angle_alpha    24.0838
_cell_angle_beta     24.0838
_cell_angle_gamma    24.0838

_space_group_name_H-M_alt    "P 1"
_space_group_IT_number       1

loop_
  _space_group_symop_operation_xyz
  'x, y, z'

loop_
  _atom_site_type_symbol
  _atom_site_label
  _atom_site_symmetry_multiplicity
  _atom_site_fract_x
  _atom_site_fract_y
  _atom_site_fract_z
  _atom_site_occupancy
  Cd  Cd1       1.0  0.35000  0.35000  0.35000  1.0000
  Cd  Cd2       1.0  0.65700  0.65700  0.65700  1.0000
  Cd  Cd3       1.0  0.85300  0.85300  0.85300  1.0000
  Cs  Cs1       1.0  0.25000  0.25000  0.25000  1.0000
  Cs  Cs2       1.0  0.75600  0.75600  0.75600  1.0000
  Mg  Mg1       1.0  0.00227  0.00227  0.00227  1.0000
  Mg  Mg2       1.0  0.50700  0.50700  0.50700  1.0000
