data_image0
_chemical_formula_structural       Ba2K2Zn3
_chemical_formula_sum              "Ba2 K2 Zn3"
_cell_length_a       9.94751
_cell_length_b       9.94751
_cell_length_c       9.94751
_cell_angle_alpha    33.8497
_cell_angle_beta     33.8497
_cell_angle_gamma    33.8497

_space_group_name_H-M_alt    "P 1"
_space_group_IT_number       1

loop_
  _space_group_symop_operation_xyz
  'x, y, z'

loop_
  _atom_site_type_symbol
  _atom_site_label
  _atom_site_symmetry_multiplicity
  _atom_site_fract_x
  _atom_site_fract_y
  _atom_site_fract_z
  _atom_site_occupancy
  Ba  Ba1       1.0  0.50100  0.50100  0.50100  1.0000
  Ba  Ba2       1.0  0.00000  0.00000  0.00000  1.0000
  K   K1        1.0  0.24900  0.24900  0.24900  1.0000
  K   K2        1.0  0.75000  0.75000  0.75000  1.0000
  Zn  Zn1       1.0  0.37200  0.37200  0.37200  1.0000
  Zn  Zn2       1.0  0.62500  0.62500  0.62500  1.0000
  Zn  Zn3       1.0  0.87700  0.87700  0.87700  1.0000
