data_image0
_chemical_formula_structural       Pb2Pt3Sr2
_chemical_formula_sum              "Pb2 Pt3 Sr2"
_cell_length_a       8.684
_cell_length_b       8.684
_cell_length_c       8.684
_cell_angle_alpha    33.5966
_cell_angle_beta     33.5966
_cell_angle_gamma    33.5966

_space_group_name_H-M_alt    "P 1"
_space_group_IT_number       1

loop_
  _space_group_symop_operation_xyz
  'x, y, z'

loop_
  _atom_site_type_symbol
  _atom_site_label
  _atom_site_symmetry_multiplicity
  _atom_site_fract_x
  _atom_site_fract_y
  _atom_site_fract_z
  _atom_site_occupancy
  Pb  Pb1       1.0  0.50400  0.50400  0.50400  1.0000
  Pb  Pb2       1.0  0.99700  0.99700  0.99700  1.0000
  Pt  Pt1       1.0  0.37400  0.37400  0.37400  1.0000
  Pt  Pt2       1.0  0.62500  0.62500  0.62500  1.0000
  Pt  Pt3       1.0  0.87500  0.87500  0.87500  1.0000
  Sr  Sr1       1.0  0.24800  0.24800  0.24800  1.0000
  Sr  Sr2       1.0  0.75200  0.75200  0.75200  1.0000
