data_image0
_chemical_formula_structural       Hg3Rb2Sr2
_chemical_formula_sum              "Hg3 Rb2 Sr2"
_cell_length_a       10.199
_cell_length_b       10.199
_cell_length_c       10.199
_cell_angle_alpha    33.4715
_cell_angle_beta     33.4715
_cell_angle_gamma    33.4715

_space_group_name_H-M_alt    "P 1"
_space_group_IT_number       1

loop_
  _space_group_symop_operation_xyz
  'x, y, z'

loop_
  _atom_site_type_symbol
  _atom_site_label
  _atom_site_symmetry_multiplicity
  _atom_site_fract_x
  _atom_site_fract_y
  _atom_site_fract_z
  _atom_site_occupancy
  Hg  Hg1       1.0  0.37700  0.37700  0.37700  1.0000
  Hg  Hg2       1.0  0.62500  0.62500  0.62500  1.0000
  Hg  Hg3       1.0  0.87300  0.87300  0.87300  1.0000
  Rb  Rb1       1.0  0.24800  0.24800  0.24800  1.0000
  Rb  Rb2       1.0  0.75100  0.75100  0.75100  1.0000
  Sr  Sr1       1.0  0.50400  0.50400  0.50400  1.0000
  Sr  Sr2       1.0  0.99600  0.99600  0.99600  1.0000
