data_image0
_chemical_formula_structural       Ca2Cs2Zn3
_chemical_formula_sum              "Ca2 Cs2 Zn3"
_cell_length_a       12.1781
_cell_length_b       12.1781
_cell_length_c       12.1781
_cell_angle_alpha    24.9028
_cell_angle_beta     24.9028
_cell_angle_gamma    24.9028

_space_group_name_H-M_alt    "P 1"
_space_group_IT_number       1

loop_
  _space_group_symop_operation_xyz
  'x, y, z'

loop_
  _atom_site_type_symbol
  _atom_site_label
  _atom_site_symmetry_multiplicity
  _atom_site_fract_x
  _atom_site_fract_y
  _atom_site_fract_z
  _atom_site_occupancy
  Ca  Ca1       1.0  0.00148  0.00148  0.00148  1.0000
  Ca  Ca2       1.0  0.50400  0.50400  0.50400  1.0000
  Cs  Cs1       1.0  0.25200  0.25200  0.25200  1.0000
  Cs  Cs2       1.0  0.75400  0.75400  0.75400  1.0000
  Zn  Zn1       1.0  0.34900  0.34900  0.34900  1.0000
  Zn  Zn2       1.0  0.65700  0.65700  0.65700  1.0000
  Zn  Zn3       1.0  0.85700  0.85700  0.85700  1.0000
