data_image0
_chemical_formula_structural       Mg2Rb2Zn3
_chemical_formula_sum              "Mg2 Rb2 Zn3"
_cell_length_a       11.9117
_cell_length_b       11.9117
_cell_length_c       11.9117
_cell_angle_alpha    22.8961
_cell_angle_beta     22.8961
_cell_angle_gamma    22.8961

_space_group_name_H-M_alt    "P 1"
_space_group_IT_number       1

loop_
  _space_group_symop_operation_xyz
  'x, y, z'

loop_
  _atom_site_type_symbol
  _atom_site_label
  _atom_site_symmetry_multiplicity
  _atom_site_fract_x
  _atom_site_fract_y
  _atom_site_fract_z
  _atom_site_occupancy
  Mg  Mg1       1.0  0.00291  0.00291  0.00291  1.0000
  Mg  Mg2       1.0  0.50500  0.50500  0.50500  1.0000
  Rb  Rb1       1.0  0.25100  0.25100  0.25100  1.0000
  Rb  Rb2       1.0  0.75600  0.75600  0.75600  1.0000
  Zn  Zn1       1.0  0.34700  0.34700  0.34700  1.0000
  Zn  Zn2       1.0  0.66100  0.66100  0.66100  1.0000
  Zn  Zn3       1.0  0.85300  0.85300  0.85300  1.0000
