data_image0
_chemical_formula_structural       Ca2Ge2Pt3
_chemical_formula_sum              "Ca2 Ge2 Pt3"
_cell_length_a       7.96404
_cell_length_b       7.96404
_cell_length_c       7.96404
_cell_angle_alpha    33.8809
_cell_angle_beta     33.8809
_cell_angle_gamma    33.8809

_space_group_name_H-M_alt    "P 1"
_space_group_IT_number       1

loop_
  _space_group_symop_operation_xyz
  'x, y, z'

loop_
  _atom_site_type_symbol
  _atom_site_label
  _atom_site_symmetry_multiplicity
  _atom_site_fract_x
  _atom_site_fract_y
  _atom_site_fract_z
  _atom_site_occupancy
  Ca  Ca1       1.0  0.24100  0.24100  0.24100  1.0000
  Ca  Ca2       1.0  0.75600  0.75600  0.75600  1.0000
  Ge  Ge1       1.0  0.50400  0.50400  0.50400  1.0000
  Ge  Ge2       1.0  0.99900  0.99900  0.99900  1.0000
  Pt  Pt1       1.0  0.36900  0.36900  0.36900  1.0000
  Pt  Pt2       1.0  0.62600  0.62600  0.62600  1.0000
  Pt  Pt3       1.0  0.88000  0.88000  0.88000  1.0000
