data_image0
_chemical_formula_structural       Be2Cd3Cs2
_chemical_formula_sum              "Be2 Cd3 Cs2"
_cell_length_a       12.3078
_cell_length_b       12.3078
_cell_length_c       12.3078
_cell_angle_alpha    21.4384
_cell_angle_beta     21.4384
_cell_angle_gamma    21.4384

_space_group_name_H-M_alt    "P 1"
_space_group_IT_number       1

loop_
  _space_group_symop_operation_xyz
  'x, y, z'

loop_
  _atom_site_type_symbol
  _atom_site_label
  _atom_site_symmetry_multiplicity
  _atom_site_fract_x
  _atom_site_fract_y
  _atom_site_fract_z
  _atom_site_occupancy
  Be  Be1       1.0  0.57200  0.57200  0.57200  1.0000
  Be  Be2       1.0  0.99300  0.99300  0.99300  1.0000
  Cd  Cd1       1.0  0.33500  0.33500  0.33500  1.0000
  Cd  Cd2       1.0  0.64000  0.64000  0.64000  1.0000
  Cd  Cd3       1.0  0.91800  0.91800  0.91800  1.0000
  Cs  Cs1       1.0  0.17500  0.17500  0.17500  1.0000
  Cs  Cs2       1.0  0.74200  0.74200  0.74200  1.0000
