data_image0
_chemical_formula_structural       Ge2Pt3Sr2
_chemical_formula_sum              "Ge2 Pt3 Sr2"
_cell_length_a       10.702
_cell_length_b       10.702
_cell_length_c       10.702
_cell_angle_alpha    23.4296
_cell_angle_beta     23.4296
_cell_angle_gamma    23.4296

_space_group_name_H-M_alt    "P 1"
_space_group_IT_number       1

loop_
  _space_group_symop_operation_xyz
  'x, y, z'

loop_
  _atom_site_type_symbol
  _atom_site_label
  _atom_site_symmetry_multiplicity
  _atom_site_fract_x
  _atom_site_fract_y
  _atom_site_fract_z
  _atom_site_occupancy
  Ge  Ge1       1.0  0.00322  0.00322  0.00322  1.0000
  Ge  Ge2       1.0  0.50800  0.50800  0.50800  1.0000
  Pt  Pt1       1.0  0.35700  0.35700  0.35700  1.0000
  Pt  Pt2       1.0  0.65200  0.65200  0.65200  1.0000
  Pt  Pt3       1.0  0.85000  0.85000  0.85000  1.0000
  Sr  Sr1       1.0  0.25100  0.25100  0.25100  1.0000
  Sr  Sr2       1.0  0.75400  0.75400  0.75400  1.0000
