data_image0
_chemical_formula_structural       Cd3Rb2Sr2
_chemical_formula_sum              "Cd3 Rb2 Sr2"
_cell_length_a       10.3062
_cell_length_b       10.3062
_cell_length_c       10.3062
_cell_angle_alpha    33.6781
_cell_angle_beta     33.6781
_cell_angle_gamma    33.6781

_space_group_name_H-M_alt    "P 1"
_space_group_IT_number       1

loop_
  _space_group_symop_operation_xyz
  'x, y, z'

loop_
  _atom_site_type_symbol
  _atom_site_label
  _atom_site_symmetry_multiplicity
  _atom_site_fract_x
  _atom_site_fract_y
  _atom_site_fract_z
  _atom_site_occupancy
  Cd  Cd1       1.0  0.37200  0.37200  0.37200  1.0000
  Cd  Cd2       1.0  0.62600  0.62600  0.62600  1.0000
  Cd  Cd3       1.0  0.87700  0.87700  0.87700  1.0000
  Rb  Rb1       1.0  0.24700  0.24700  0.24700  1.0000
  Rb  Rb2       1.0  0.75200  0.75200  0.75200  1.0000
  Sr  Sr1       1.0  0.50300  0.50300  0.50300  1.0000
  Sr  Sr2       1.0  0.99800  0.99800  0.99800  1.0000
