data_image0
_chemical_formula_structural       Ba2Pt3Ti2
_chemical_formula_sum              "Ba2 Pt3 Ti2"
_cell_length_a       9.24318
_cell_length_b       9.24318
_cell_length_c       9.24318
_cell_angle_alpha    30.9573
_cell_angle_beta     30.9573
_cell_angle_gamma    30.9573

_space_group_name_H-M_alt    "P 1"
_space_group_IT_number       1

loop_
  _space_group_symop_operation_xyz
  'x, y, z'

loop_
  _atom_site_type_symbol
  _atom_site_label
  _atom_site_symmetry_multiplicity
  _atom_site_fract_x
  _atom_site_fract_y
  _atom_site_fract_z
  _atom_site_occupancy
  Ba  Ba1       1.0  0.22600  0.22600  0.22600  1.0000
  Ba  Ba2       1.0  0.75600  0.75600  0.75600  1.0000
  Pt  Pt1       1.0  0.34000  0.34000  0.34000  1.0000
  Pt  Pt2       1.0  0.64400  0.64400  0.64400  1.0000
  Pt  Pt3       1.0  0.87800  0.87800  0.87800  1.0000
  Ti  Ti1       1.0  0.55500  0.55500  0.55500  1.0000
  Ti  Ti2       1.0  0.97600  0.97600  0.97600  1.0000
