data_image0
_chemical_formula_structural       Ca2Rb2Zn3
_chemical_formula_sum              "Ca2 Rb2 Zn3"
_cell_length_a       9.90758
_cell_length_b       9.90758
_cell_length_c       9.90758
_cell_angle_alpha    33.0628
_cell_angle_beta     33.0628
_cell_angle_gamma    33.0628

_space_group_name_H-M_alt    "P 1"
_space_group_IT_number       1

loop_
  _space_group_symop_operation_xyz
  'x, y, z'

loop_
  _atom_site_type_symbol
  _atom_site_label
  _atom_site_symmetry_multiplicity
  _atom_site_fract_x
  _atom_site_fract_y
  _atom_site_fract_z
  _atom_site_occupancy
  Ca  Ca1       1.0  0.50900  0.50900  0.50900  1.0000
  Ca  Ca2       1.0  0.99300  0.99300  0.99300  1.0000
  Rb  Rb1       1.0  0.24700  0.24700  0.24700  1.0000
  Rb  Rb2       1.0  0.75300  0.75300  0.75300  1.0000
  Zn  Zn1       1.0  0.36900  0.36900  0.36900  1.0000
  Zn  Zn2       1.0  0.62700  0.62700  0.62700  1.0000
  Zn  Zn3       1.0  0.87700  0.87700  0.87700  1.0000
