data_image0
_chemical_formula_structural       K2Pd3Ta2
_chemical_formula_sum              "K2 Pd3 Ta2"
_cell_length_a       11.8314
_cell_length_b       11.8314
_cell_length_c       11.8314
_cell_angle_alpha    21.9214
_cell_angle_beta     21.9214
_cell_angle_gamma    21.9214

_space_group_name_H-M_alt    "P 1"
_space_group_IT_number       1

loop_
  _space_group_symop_operation_xyz
  'x, y, z'

loop_
  _atom_site_type_symbol
  _atom_site_label
  _atom_site_symmetry_multiplicity
  _atom_site_fract_x
  _atom_site_fract_y
  _atom_site_fract_z
  _atom_site_occupancy
  K   K1        1.0  0.18000  0.18000  0.18000  1.0000
  K   K2        1.0  0.75200  0.75200  0.75200  1.0000
  Pd  Pd1       1.0  0.28800  0.28800  0.28800  1.0000
  Pd  Pd2       1.0  0.66500  0.66500  0.66500  1.0000
  Pd  Pd3       1.0  0.91100  0.91100  0.91100  1.0000
  Ta  Ta1       1.0  0.59200  0.59200  0.59200  1.0000
  Ta  Ta2       1.0  0.98700  0.98700  0.98700  1.0000
