data_image0
_chemical_formula_structural       Be2Hg3Li2
_chemical_formula_sum              "Be2 Hg3 Li2"
_cell_length_a       7.58387
_cell_length_b       7.58387
_cell_length_c       7.58387
_cell_angle_alpha    33.439
_cell_angle_beta     33.439
_cell_angle_gamma    33.439

_space_group_name_H-M_alt    "P 1"
_space_group_IT_number       1

loop_
  _space_group_symop_operation_xyz
  'x, y, z'

loop_
  _atom_site_type_symbol
  _atom_site_label
  _atom_site_symmetry_multiplicity
  _atom_site_fract_x
  _atom_site_fract_y
  _atom_site_fract_z
  _atom_site_occupancy
  Be  Be1       1.0  0.50100  0.50100  0.50100  1.0000
  Be  Be2       1.0  0.99400  0.99400  0.99400  1.0000
  Hg  Hg1       1.0  0.38400  0.38400  0.38400  1.0000
  Hg  Hg2       1.0  0.62800  0.62800  0.62800  1.0000
  Hg  Hg3       1.0  0.87000  0.87000  0.87000  1.0000
  Li  Li1       1.0  0.24300  0.24300  0.24300  1.0000
  Li  Li2       1.0  0.75400  0.75400  0.75400  1.0000
