data_image0
_chemical_formula_structural       Be2K2Zn3
_chemical_formula_sum              "Be2 K2 Zn3"
_cell_length_a       11.9283
_cell_length_b       11.9283
_cell_length_c       11.9283
_cell_angle_alpha    19.9751
_cell_angle_beta     19.9751
_cell_angle_gamma    19.9751

_space_group_name_H-M_alt    "P 1"
_space_group_IT_number       1

loop_
  _space_group_symop_operation_xyz
  'x, y, z'

loop_
  _atom_site_type_symbol
  _atom_site_label
  _atom_site_symmetry_multiplicity
  _atom_site_fract_x
  _atom_site_fract_y
  _atom_site_fract_z
  _atom_site_occupancy
  Be  Be1       1.0  0.57800  0.57800  0.57800  1.0000
  Be  Be2       1.0  0.99000  0.99000  0.99000  1.0000
  K   K1        1.0  0.17900  0.17900  0.17900  1.0000
  K   K2        1.0  0.73600  0.73600  0.73600  1.0000
  Zn  Zn1       1.0  0.32800  0.32800  0.32800  1.0000
  Zn  Zn2       1.0  0.64300  0.64300  0.64300  1.0000
  Zn  Zn3       1.0  0.92100  0.92100  0.92100  1.0000
