data_image0
_chemical_formula_structural       Hg3Li2Mg2
_chemical_formula_sum              "Hg3 Li2 Mg2"
_cell_length_a       8.10031
_cell_length_b       8.10031
_cell_length_c       8.10031
_cell_angle_alpha    34.0672
_cell_angle_beta     34.0672
_cell_angle_gamma    34.0672

_space_group_name_H-M_alt    "P 1"
_space_group_IT_number       1

loop_
  _space_group_symop_operation_xyz
  'x, y, z'

loop_
  _atom_site_type_symbol
  _atom_site_label
  _atom_site_symmetry_multiplicity
  _atom_site_fract_x
  _atom_site_fract_y
  _atom_site_fract_z
  _atom_site_occupancy
  Hg  Hg1       1.0  0.37500  0.37500  0.37500  1.0000
  Hg  Hg2       1.0  0.62500  0.62500  0.62500  1.0000
  Hg  Hg3       1.0  0.87300  0.87300  0.87300  1.0000
  Li  Li1       1.0  0.24700  0.24700  0.24700  1.0000
  Li  Li2       1.0  0.75200  0.75200  0.75200  1.0000
  Mg  Mg1       1.0  0.00548  0.00548  0.00548  1.0000
  Mg  Mg2       1.0  0.49700  0.49700  0.49700  1.0000
