data_image0
_chemical_formula_structural       Be2Hg3K2
_chemical_formula_sum              "Be2 Hg3 K2"
_cell_length_a       12.3759
_cell_length_b       12.3759
_cell_length_c       12.3759
_cell_angle_alpha    20.4881
_cell_angle_beta     20.4881
_cell_angle_gamma    20.4881

_space_group_name_H-M_alt    "P 1"
_space_group_IT_number       1

loop_
  _space_group_symop_operation_xyz
  'x, y, z'

loop_
  _atom_site_type_symbol
  _atom_site_label
  _atom_site_symmetry_multiplicity
  _atom_site_fract_x
  _atom_site_fract_y
  _atom_site_fract_z
  _atom_site_occupancy
  Be  Be1       1.0  0.00443  0.00443  0.00443  1.0000
  Be  Be2       1.0  0.51100  0.51100  0.51100  1.0000
  Hg  Hg1       1.0  0.35600  0.35600  0.35600  1.0000
  Hg  Hg2       1.0  0.65100  0.65100  0.65100  1.0000
  Hg  Hg3       1.0  0.84800  0.84800  0.84800  1.0000
  K   K1        1.0  0.25000  0.25000  0.25000  1.0000
  K   K2        1.0  0.75500  0.75500  0.75500  1.0000
