data_image0
_chemical_formula_structural       As2K2Pt3
_chemical_formula_sum              "As2 K2 Pt3"
_cell_length_a       12.4337
_cell_length_b       12.4337
_cell_length_c       12.4337
_cell_angle_alpha    20.0803
_cell_angle_beta     20.0803
_cell_angle_gamma    20.0803

_space_group_name_H-M_alt    "P 1"
_space_group_IT_number       1

loop_
  _space_group_symop_operation_xyz
  'x, y, z'

loop_
  _atom_site_type_symbol
  _atom_site_label
  _atom_site_symmetry_multiplicity
  _atom_site_fract_x
  _atom_site_fract_y
  _atom_site_fract_z
  _atom_site_occupancy
  As  As1       1.0  0.57000  0.57000  0.57000  1.0000
  As  As2       1.0  0.99400  0.99400  0.99400  1.0000
  K   K1        1.0  0.18000  0.18000  0.18000  1.0000
  K   K2        1.0  0.73400  0.73400  0.73400  1.0000
  Pt  Pt1       1.0  0.33700  0.33700  0.33700  1.0000
  Pt  Pt2       1.0  0.63600  0.63600  0.63600  1.0000
  Pt  Pt3       1.0  0.92400  0.92400  0.92400  1.0000
