data_image0
_chemical_formula_structural       Be2Cs2Hg3
_chemical_formula_sum              "Be2 Cs2 Hg3"
_cell_length_a       13.0049
_cell_length_b       13.0049
_cell_length_c       13.0049
_cell_angle_alpha    20.0426
_cell_angle_beta     20.0426
_cell_angle_gamma    20.0426

_space_group_name_H-M_alt    "P 1"
_space_group_IT_number       1

loop_
  _space_group_symop_operation_xyz
  'x, y, z'

loop_
  _atom_site_type_symbol
  _atom_site_label
  _atom_site_symmetry_multiplicity
  _atom_site_fract_x
  _atom_site_fract_y
  _atom_site_fract_z
  _atom_site_occupancy
  Be  Be1       1.0  0.57600  0.57600  0.57600  1.0000
  Be  Be2       1.0  0.98700  0.98700  0.98700  1.0000
  Cs  Cs1       1.0  0.17900  0.17900  0.17900  1.0000
  Cs  Cs2       1.0  0.73900  0.73900  0.73900  1.0000
  Hg  Hg1       1.0  0.33900  0.33900  0.33900  1.0000
  Hg  Hg2       1.0  0.63800  0.63800  0.63800  1.0000
  Hg  Hg3       1.0  0.91700  0.91700  0.91700  1.0000
