data_image0
_chemical_formula_structural       Be2Cs2Zn3
_chemical_formula_sum              "Be2 Cs2 Zn3"
_cell_length_a       13.0783
_cell_length_b       13.0783
_cell_length_c       13.0783
_cell_angle_alpha    18.4957
_cell_angle_beta     18.4957
_cell_angle_gamma    18.4957

_space_group_name_H-M_alt    "P 1"
_space_group_IT_number       1

loop_
  _space_group_symop_operation_xyz
  'x, y, z'

loop_
  _atom_site_type_symbol
  _atom_site_label
  _atom_site_symmetry_multiplicity
  _atom_site_fract_x
  _atom_site_fract_y
  _atom_site_fract_z
  _atom_site_occupancy
  Be  Be1       1.0  0.58300  0.58300  0.58300  1.0000
  Be  Be2       1.0  0.98700  0.98700  0.98700  1.0000
  Cs  Cs1       1.0  0.18200  0.18200  0.18200  1.0000
  Cs  Cs2       1.0  0.73400  0.73400  0.73400  1.0000
  Zn  Zn1       1.0  0.32400  0.32400  0.32400  1.0000
  Zn  Zn2       1.0  0.64200  0.64200  0.64200  1.0000
  Zn  Zn3       1.0  0.92400  0.92400  0.92400  1.0000
