data_image0
_chemical_formula_structural       Ba2Ge2Pt3
_chemical_formula_sum              "Ba2 Ge2 Pt3"
_cell_length_a       11.3286
_cell_length_b       11.3286
_cell_length_c       11.3286
_cell_angle_alpha    22.3291
_cell_angle_beta     22.3291
_cell_angle_gamma    22.3291

_space_group_name_H-M_alt    "P 1"
_space_group_IT_number       1

loop_
  _space_group_symop_operation_xyz
  'x, y, z'

loop_
  _atom_site_type_symbol
  _atom_site_label
  _atom_site_symmetry_multiplicity
  _atom_site_fract_x
  _atom_site_fract_y
  _atom_site_fract_z
  _atom_site_occupancy
  Ba  Ba1       1.0  0.25100  0.25100  0.25100  1.0000
  Ba  Ba2       1.0  0.75400  0.75400  0.75400  1.0000
  Ge  Ge1       1.0  0.00383  0.00383  0.00383  1.0000
  Ge  Ge2       1.0  0.50700  0.50700  0.50700  1.0000
  Pt  Pt1       1.0  0.35500  0.35500  0.35500  1.0000
  Pt  Pt2       1.0  0.65400  0.65400  0.65400  1.0000
  Pt  Pt3       1.0  0.84900  0.84900  0.84900  1.0000
