data_image0
_chemical_formula_structural       Cs2Hg3Mg2
_chemical_formula_sum              "Cs2 Hg3 Mg2"
_cell_length_a       12.3928
_cell_length_b       12.3928
_cell_length_c       12.3928
_cell_angle_alpha    23.57
_cell_angle_beta     23.57
_cell_angle_gamma    23.57

_space_group_name_H-M_alt    "P 1"
_space_group_IT_number       1

loop_
  _space_group_symop_operation_xyz
  'x, y, z'

loop_
  _atom_site_type_symbol
  _atom_site_label
  _atom_site_symmetry_multiplicity
  _atom_site_fract_x
  _atom_site_fract_y
  _atom_site_fract_z
  _atom_site_occupancy
  Cs  Cs1       1.0  0.25200  0.25200  0.25200  1.0000
  Cs  Cs2       1.0  0.75500  0.75500  0.75500  1.0000
  Hg  Hg1       1.0  0.35300  0.35300  0.35300  1.0000
  Hg  Hg2       1.0  0.65400  0.65400  0.65400  1.0000
  Hg  Hg3       1.0  0.85200  0.85200  0.85200  1.0000
  Mg  Mg1       1.0  0.00278  0.00278  0.00278  1.0000
  Mg  Mg2       1.0  0.50700  0.50700  0.50700  1.0000
