data_image0
_chemical_formula_structural       Be2Pt3Ti2
_chemical_formula_sum              "Be2 Pt3 Ti2"
_cell_length_a       7.18762
_cell_length_b       7.18762
_cell_length_c       7.18762
_cell_angle_alpha    34.0195
_cell_angle_beta     34.0195
_cell_angle_gamma    34.0195

_space_group_name_H-M_alt    "P 1"
_space_group_IT_number       1

loop_
  _space_group_symop_operation_xyz
  'x, y, z'

loop_
  _atom_site_type_symbol
  _atom_site_label
  _atom_site_symmetry_multiplicity
  _atom_site_fract_x
  _atom_site_fract_y
  _atom_site_fract_z
  _atom_site_occupancy
  Be  Be1       1.0  0.00599  0.00599  0.00599  1.0000
  Be  Be2       1.0  0.49600  0.49600  0.49600  1.0000
  Pt  Pt1       1.0  0.37400  0.37400  0.37400  1.0000
  Pt  Pt2       1.0  0.62600  0.62600  0.62600  1.0000
  Pt  Pt3       1.0  0.87700  0.87700  0.87700  1.0000
  Ti  Ti1       1.0  0.24100  0.24100  0.24100  1.0000
  Ti  Ti2       1.0  0.75600  0.75600  0.75600  1.0000
