data_image0
_chemical_formula_structural       K2Pt3Ta2
_chemical_formula_sum              "K2 Pt3 Ta2"
_cell_length_a       12.9565
_cell_length_b       12.9565
_cell_length_c       12.9565
_cell_angle_alpha    19.0208
_cell_angle_beta     19.0208
_cell_angle_gamma    19.0208

_space_group_name_H-M_alt    "P 1"
_space_group_IT_number       1

loop_
  _space_group_symop_operation_xyz
  'x, y, z'

loop_
  _atom_site_type_symbol
  _atom_site_label
  _atom_site_symmetry_multiplicity
  _atom_site_fract_x
  _atom_site_fract_y
  _atom_site_fract_z
  _atom_site_occupancy
  K   K1        1.0  0.25100  0.25100  0.25100  1.0000
  K   K2        1.0  0.75600  0.75600  0.75600  1.0000
  Pt  Pt1       1.0  0.36100  0.36100  0.36100  1.0000
  Pt  Pt2       1.0  0.65100  0.65100  0.65100  1.0000
  Pt  Pt3       1.0  0.84700  0.84700  0.84700  1.0000
  Ta  Ta1       1.0  0.00570  0.00570  0.00570  1.0000
  Ta  Ta2       1.0  0.50300  0.50300  0.50300  1.0000
