data_image0
_chemical_formula_structural       Be2Rb2Zn3
_chemical_formula_sum              "Be2 Rb2 Zn3"
_cell_length_a       12.6077
_cell_length_b       12.6077
_cell_length_c       12.6077
_cell_angle_alpha    19.0599
_cell_angle_beta     19.0599
_cell_angle_gamma    19.0599

_space_group_name_H-M_alt    "P 1"
_space_group_IT_number       1

loop_
  _space_group_symop_operation_xyz
  'x, y, z'

loop_
  _atom_site_type_symbol
  _atom_site_label
  _atom_site_symmetry_multiplicity
  _atom_site_fract_x
  _atom_site_fract_y
  _atom_site_fract_z
  _atom_site_occupancy
  Be  Be1       1.0  0.58100  0.58100  0.58100  1.0000
  Be  Be2       1.0  0.98800  0.98800  0.98800  1.0000
  Rb  Rb1       1.0  0.18000  0.18000  0.18000  1.0000
  Rb  Rb2       1.0  0.73500  0.73500  0.73500  1.0000
  Zn  Zn1       1.0  0.32500  0.32500  0.32500  1.0000
  Zn  Zn2       1.0  0.64300  0.64300  0.64300  1.0000
  Zn  Zn3       1.0  0.92200  0.92200  0.92200  1.0000
