data_image0
_chemical_formula_structural       Ba2Cs2Hg3
_chemical_formula_sum              "Ba2 Cs2 Hg3"
_cell_length_a       10.6567
_cell_length_b       10.6567
_cell_length_c       10.6567
_cell_angle_alpha    33.4238
_cell_angle_beta     33.4238
_cell_angle_gamma    33.4238

_space_group_name_H-M_alt    "P 1"
_space_group_IT_number       1

loop_
  _space_group_symop_operation_xyz
  'x, y, z'

loop_
  _atom_site_type_symbol
  _atom_site_label
  _atom_site_symmetry_multiplicity
  _atom_site_fract_x
  _atom_site_fract_y
  _atom_site_fract_z
  _atom_site_occupancy
  Ba  Ba1       1.0  0.50600  0.50600  0.50600  1.0000
  Ba  Ba2       1.0  0.99400  0.99400  0.99400  1.0000
  Cs  Cs1       1.0  0.24900  0.24900  0.24900  1.0000
  Cs  Cs2       1.0  0.75100  0.75100  0.75100  1.0000
  Hg  Hg1       1.0  0.37700  0.37700  0.37700  1.0000
  Hg  Hg2       1.0  0.62600  0.62600  0.62600  1.0000
  Hg  Hg3       1.0  0.87300  0.87300  0.87300  1.0000
