data_image0
_chemical_formula_structural       Ca2Cu2O2S2
_chemical_formula_sum              "Ca2 Cu2 O2 S2"
_cell_length_a       3.70592
_cell_length_b       3.70539
_cell_length_c       11.0811
_cell_angle_alpha    90
_cell_angle_beta     90
_cell_angle_gamma    120.005

_space_group_name_H-M_alt    "P 1"
_space_group_IT_number       1

loop_
  _space_group_symop_operation_xyz
  'x, y, z'

loop_
  _atom_site_type_symbol
  _atom_site_label
  _atom_site_symmetry_multiplicity
  _atom_site_fract_x
  _atom_site_fract_y
  _atom_site_fract_z
  _atom_site_occupancy
  Ca  Ca1       1.0  0.33300  0.66700  0.27400  1.0000
  Ca  Ca2       1.0  0.66700  0.33300  0.77400  1.0000
  Cu  Cu1       1.0  0.00000  0.00000  0.00644  1.0000
  Cu  Cu2       1.0  0.00000  0.00000  0.50600  1.0000
  O   O1        1.0  0.00000  0.00000  0.33200  1.0000
  O   O2        1.0  0.00000  0.00000  0.83200  1.0000
  S   S1        1.0  0.66700  0.33300  0.07550  1.0000
  S   S2        1.0  0.33300  0.66700  0.57500  1.0000
