data_image0
_chemical_formula_structural       Ba2Hf2Pd3
_chemical_formula_sum              "Ba2 Hf2 Pd3"
_cell_length_a       9.29564
_cell_length_b       9.29564
_cell_length_c       9.29564
_cell_angle_alpha    31.8687
_cell_angle_beta     31.8687
_cell_angle_gamma    31.8687

_space_group_name_H-M_alt    "P 1"
_space_group_IT_number       1

loop_
  _space_group_symop_operation_xyz
  'x, y, z'

loop_
  _atom_site_type_symbol
  _atom_site_label
  _atom_site_symmetry_multiplicity
  _atom_site_fract_x
  _atom_site_fract_y
  _atom_site_fract_z
  _atom_site_occupancy
  Ba  Ba1       1.0  0.22700  0.22700  0.22700  1.0000
  Ba  Ba2       1.0  0.75800  0.75800  0.75800  1.0000
  Hf  Hf1       1.0  0.55300  0.55300  0.55300  1.0000
  Hf  Hf2       1.0  0.97600  0.97600  0.97600  1.0000
  Pd  Pd1       1.0  0.33900  0.33900  0.33900  1.0000
  Pd  Pd2       1.0  0.64700  0.64700  0.64700  1.0000
  Pd  Pd3       1.0  0.87600  0.87600  0.87600  1.0000
