data_image0
_chemical_formula_structural       Ba2Pd3Ti2
_chemical_formula_sum              "Ba2 Pd3 Ti2"
_cell_length_a       9.16383
_cell_length_b       9.16383
_cell_length_c       9.16383
_cell_angle_alpha    31.6031
_cell_angle_beta     31.6031
_cell_angle_gamma    31.6031

_space_group_name_H-M_alt    "P 1"
_space_group_IT_number       1

loop_
  _space_group_symop_operation_xyz
  'x, y, z'

loop_
  _atom_site_type_symbol
  _atom_site_label
  _atom_site_symmetry_multiplicity
  _atom_site_fract_x
  _atom_site_fract_y
  _atom_site_fract_z
  _atom_site_occupancy
  Ba  Ba1       1.0  0.22200  0.22200  0.22200  1.0000
  Ba  Ba2       1.0  0.75700  0.75700  0.75700  1.0000
  Pd  Pd1       1.0  0.33800  0.33800  0.33800  1.0000
  Pd  Pd2       1.0  0.64600  0.64600  0.64600  1.0000
  Pd  Pd3       1.0  0.88000  0.88000  0.88000  1.0000
  Ti  Ti1       1.0  0.55600  0.55600  0.55600  1.0000
  Ti  Ti2       1.0  0.97500  0.97500  0.97500  1.0000
