data_image0
_chemical_formula_structural       Ba2Hf2Ni3
_chemical_formula_sum              "Ba2 Hf2 Ni3"
_cell_length_a       11.7107
_cell_length_b       11.7107
_cell_length_c       11.7107
_cell_angle_alpha    21.6278
_cell_angle_beta     21.6278
_cell_angle_gamma    21.6278

_space_group_name_H-M_alt    "P 1"
_space_group_IT_number       1

loop_
  _space_group_symop_operation_xyz
  'x, y, z'

loop_
  _atom_site_type_symbol
  _atom_site_label
  _atom_site_symmetry_multiplicity
  _atom_site_fract_x
  _atom_site_fract_y
  _atom_site_fract_z
  _atom_site_occupancy
  Ba  Ba1       1.0  0.18200  0.18200  0.18200  1.0000
  Ba  Ba2       1.0  0.74500  0.74500  0.74500  1.0000
  Hf  Hf1       1.0  0.59300  0.59300  0.59300  1.0000
  Hf  Hf2       1.0  0.98700  0.98700  0.98700  1.0000
  Ni  Ni1       1.0  0.29100  0.29100  0.29100  1.0000
  Ni  Ni2       1.0  0.66400  0.66400  0.66400  1.0000
  Ni  Ni3       1.0  0.91200  0.91200  0.91200  1.0000
