data_image0
_chemical_formula_structural       Li4O5Th2
_chemical_formula_sum              "Li4 O5 Th2"
_cell_length_a       4.47961
_cell_length_b       8.24562
_cell_length_c       4.45816
_cell_angle_alpha    74.3158
_cell_angle_beta     90
_cell_angle_gamma    90

_space_group_name_H-M_alt    "P 1"
_space_group_IT_number       1

loop_
  _space_group_symop_operation_xyz
  'x, y, z'

loop_
  _atom_site_type_symbol
  _atom_site_label
  _atom_site_symmetry_multiplicity
  _atom_site_fract_x
  _atom_site_fract_y
  _atom_site_fract_z
  _atom_site_occupancy
  Li  Li1       1.0  0.00000  0.00000  0.00000  1.0000
  Li  Li2       1.0  0.00000  0.38700  0.30600  1.0000
  Li  Li3       1.0  0.50000  0.00000  0.50000  1.0000
  Li  Li4       1.0  0.00000  0.61300  0.69400  1.0000
  O   O1        1.0  0.50000  0.00000  0.00000  1.0000
  O   O2        1.0  0.00000  0.64000  0.18000  1.0000
  O   O3        1.0  0.50000  0.38400  0.30800  1.0000
  O   O4        1.0  0.50000  0.61600  0.69200  1.0000
  O   O5        1.0  0.00000  0.36000  0.82000  1.0000
  Th  Th1       1.0  0.50000  0.70300  0.14800  1.0000
  Th  Th2       1.0  0.50000  0.29700  0.85200  1.0000
