data_image0
_chemical_formula_structural       K2Nb2Ni3
_chemical_formula_sum              "K2 Nb2 Ni3"
_cell_length_a       12.1458
_cell_length_b       12.1458
_cell_length_c       12.1458
_cell_angle_alpha    20.0494
_cell_angle_beta     20.0494
_cell_angle_gamma    20.0494

_space_group_name_H-M_alt    "P 1"
_space_group_IT_number       1

loop_
  _space_group_symop_operation_xyz
  'x, y, z'

loop_
  _atom_site_type_symbol
  _atom_site_label
  _atom_site_symmetry_multiplicity
  _atom_site_fract_x
  _atom_site_fract_y
  _atom_site_fract_z
  _atom_site_occupancy
  K   K1        1.0  0.18100  0.18100  0.18100  1.0000
  K   K2        1.0  0.74600  0.74600  0.74600  1.0000
  Nb  Nb1       1.0  0.59400  0.59400  0.59400  1.0000
  Nb  Nb2       1.0  0.98600  0.98600  0.98600  1.0000
  Ni  Ni1       1.0  0.29000  0.29000  0.29000  1.0000
  Ni  Ni2       1.0  0.66200  0.66200  0.66200  1.0000
  Ni  Ni3       1.0  0.91600  0.91600  0.91600  1.0000
