data_image0
_chemical_formula_structural       F2La2O2
_chemical_formula_sum              "F2 La2 O2"
_cell_length_a       7.01789
_cell_length_b       7.01789
_cell_length_c       7.01789
_cell_angle_alpha    33.339
_cell_angle_beta     33.339
_cell_angle_gamma    33.339

_space_group_name_H-M_alt    "P 1"
_space_group_IT_number       1

loop_
  _space_group_symop_operation_xyz
  'x, y, z'

loop_
  _atom_site_type_symbol
  _atom_site_label
  _atom_site_symmetry_multiplicity
  _atom_site_fract_x
  _atom_site_fract_y
  _atom_site_fract_z
  _atom_site_occupancy
  F   F1        1.0  0.12900  0.12900  0.12900  1.0000
  F   F2        1.0  0.87100  0.87100  0.87100  1.0000
  La  La1       1.0  0.25800  0.25800  0.25800  1.0000
  La  La2       1.0  0.74200  0.74200  0.74200  1.0000
  O   O1        1.0  0.37700  0.37700  0.37700  1.0000
  O   O2        1.0  0.62300  0.62300  0.62300  1.0000
