data_image0
_chemical_formula_structural       Li4O5Tc2
_chemical_formula_sum              "Li4 O5 Tc2"
_cell_length_a       4.08891
_cell_length_b       6.44501
_cell_length_c       4.11666
_cell_angle_alpha    71.3753
_cell_angle_beta     90
_cell_angle_gamma    90

_space_group_name_H-M_alt    "P 1"
_space_group_IT_number       1

loop_
  _space_group_symop_operation_xyz
  'x, y, z'

loop_
  _atom_site_type_symbol
  _atom_site_label
  _atom_site_symmetry_multiplicity
  _atom_site_fract_x
  _atom_site_fract_y
  _atom_site_fract_z
  _atom_site_occupancy
  Li  Li1       1.0  0.00000  0.00000  0.00000  1.0000
  Li  Li2       1.0  0.00000  0.35500  0.32300  1.0000
  Li  Li3       1.0  0.50000  0.00000  0.50000  1.0000
  Li  Li4       1.0  0.00000  0.64500  0.67700  1.0000
  O   O1        1.0  0.50000  0.00000  0.00000  1.0000
  O   O2        1.0  0.00000  0.67800  0.16100  1.0000
  O   O3        1.0  0.50000  0.30000  0.35000  1.0000
  O   O4        1.0  0.50000  0.70000  0.65000  1.0000
  O   O5        1.0  0.00000  0.32200  0.83900  1.0000
  Tc  Tc1       1.0  0.50000  0.65000  0.17500  1.0000
  Tc  Tc2       1.0  0.50000  0.35000  0.82500  1.0000
