data_image0
_chemical_formula_structural       Li4O5Te2
_chemical_formula_sum              "Li4 O5 Te2"
_cell_length_a       4.30617
_cell_length_b       7.85985
_cell_length_c       4.24247
_cell_angle_alpha    74.3427
_cell_angle_beta     90
_cell_angle_gamma    90

_space_group_name_H-M_alt    "P 1"
_space_group_IT_number       1

loop_
  _space_group_symop_operation_xyz
  'x, y, z'

loop_
  _atom_site_type_symbol
  _atom_site_label
  _atom_site_symmetry_multiplicity
  _atom_site_fract_x
  _atom_site_fract_y
  _atom_site_fract_z
  _atom_site_occupancy
  Li  Li1       1.0  0.00000  0.00000  0.00000  1.0000
  Li  Li2       1.0  0.00000  0.30600  0.34700  1.0000
  Li  Li3       1.0  0.50000  0.00000  0.50000  1.0000
  Li  Li4       1.0  0.00000  0.69400  0.65300  1.0000
  O   O1        1.0  0.50000  0.00000  0.00000  1.0000
  O   O2        1.0  0.00000  0.73000  0.13500  1.0000
  O   O3        1.0  0.50000  0.25100  0.37500  1.0000
  O   O4        1.0  0.50000  0.74900  0.62500  1.0000
  O   O5        1.0  0.00000  0.27000  0.86500  1.0000
  Te  Te1       1.0  0.50000  0.69600  0.15200  1.0000
  Te  Te2       1.0  0.50000  0.30400  0.84800  1.0000
