data_image0
_chemical_formula_structural       Nb2Ni3Rb2
_chemical_formula_sum              "Nb2 Ni3 Rb2"
_cell_length_a       12.6105
_cell_length_b       12.6105
_cell_length_c       12.6105
_cell_angle_alpha    19.4291
_cell_angle_beta     19.4291
_cell_angle_gamma    19.4291

_space_group_name_H-M_alt    "P 1"
_space_group_IT_number       1

loop_
  _space_group_symop_operation_xyz
  'x, y, z'

loop_
  _atom_site_type_symbol
  _atom_site_label
  _atom_site_symmetry_multiplicity
  _atom_site_fract_x
  _atom_site_fract_y
  _atom_site_fract_z
  _atom_site_occupancy
  Nb  Nb1       1.0  0.59600  0.59600  0.59600  1.0000
  Nb  Nb2       1.0  0.98400  0.98400  0.98400  1.0000
  Ni  Ni1       1.0  0.29200  0.29200  0.29200  1.0000
  Ni  Ni2       1.0  0.66000  0.66000  0.66000  1.0000
  Ni  Ni3       1.0  0.91800  0.91800  0.91800  1.0000
  Rb  Rb1       1.0  0.18200  0.18200  0.18200  1.0000
  Rb  Rb2       1.0  0.74300  0.74300  0.74300  1.0000
