data_image0
_chemical_formula_structural       Er4Rh4Si4
_chemical_formula_sum              "Er4 Rh4 Si4"
_cell_length_a       6.84159
_cell_length_b       4.22525
_cell_length_c       7.38405
_cell_angle_alpha    90
_cell_angle_beta     90
_cell_angle_gamma    90

_space_group_name_H-M_alt    "P 1"
_space_group_IT_number       1

loop_
  _space_group_symop_operation_xyz
  'x, y, z'

loop_
  _atom_site_type_symbol
  _atom_site_label
  _atom_site_symmetry_multiplicity
  _atom_site_fract_x
  _atom_site_fract_y
  _atom_site_fract_z
  _atom_site_occupancy
  Er  Er1       1.0  0.00026  0.25000  0.19000  1.0000
  Er  Er2       1.0  0.50000  0.25000  0.31000  1.0000
  Er  Er3       1.0  0.50000  0.75000  0.69000  1.0000
  Er  Er4       1.0  0.00000  0.75000  0.81000  1.0000
  Rh  Rh1       1.0  0.34500  0.75000  0.06950  1.0000
  Rh  Rh2       1.0  0.84500  0.75000  0.43000  1.0000
  Rh  Rh3       1.0  0.15500  0.25000  0.57000  1.0000
  Rh  Rh4       1.0  0.65500  0.25000  0.93000  1.0000
  Si  Si1       1.0  0.70600  0.75000  0.10500  1.0000
  Si  Si2       1.0  0.20600  0.75000  0.39500  1.0000
  Si  Si3       1.0  0.79400  0.25000  0.60500  1.0000
  Si  Si4       1.0  0.29400  0.25000  0.89500  1.0000
