data_image0
_chemical_formula_structural       Co4Ho4Si4
_chemical_formula_sum              "Co4 Ho4 Si4"
_cell_length_a       6.85247
_cell_length_b       4.16054
_cell_length_c       6.89864
_cell_angle_alpha    90
_cell_angle_beta     90
_cell_angle_gamma    90

_space_group_name_H-M_alt    "P 1"
_space_group_IT_number       1

loop_
  _space_group_symop_operation_xyz
  'x, y, z'

loop_
  _atom_site_type_symbol
  _atom_site_label
  _atom_site_symmetry_multiplicity
  _atom_site_fract_x
  _atom_site_fract_y
  _atom_site_fract_z
  _atom_site_occupancy
  Co  Co1       1.0  0.64600  0.25000  0.93400  1.0000
  Co  Co2       1.0  0.35400  0.75000  0.06550  1.0000
  Co  Co3       1.0  0.85400  0.75000  0.43400  1.0000
  Co  Co4       1.0  0.14600  0.25000  0.56600  1.0000
  Ho  Ho1       1.0  0.98300  0.25000  0.18800  1.0000
  Ho  Ho2       1.0  0.48300  0.25000  0.31200  1.0000
  Ho  Ho3       1.0  0.51700  0.75000  0.68800  1.0000
  Ho  Ho4       1.0  0.01690  0.75000  0.81200  1.0000
  Si  Si1       1.0  0.69600  0.75000  0.10600  1.0000
  Si  Si2       1.0  0.19600  0.75000  0.39400  1.0000
  Si  Si3       1.0  0.80400  0.25000  0.60600  1.0000
  Si  Si4       1.0  0.30400  0.25000  0.89400  1.0000
