data_image0
_chemical_formula_structural       Cu4Yb2
_chemical_formula_sum              "Cu4 Yb2"
_cell_length_a       4.24127
_cell_length_b       5.42146
_cell_length_c       5.42146
_cell_angle_alpha    95.4943
_cell_angle_beta     113.026
_cell_angle_gamma    66.9735

_space_group_name_H-M_alt    "P 1"
_space_group_IT_number       1

loop_
  _space_group_symop_operation_xyz
  'x, y, z'

loop_
  _atom_site_type_symbol
  _atom_site_label
  _atom_site_symmetry_multiplicity
  _atom_site_fract_x
  _atom_site_fract_y
  _atom_site_fract_z
  _atom_site_occupancy
  Cu  Cu1       1.0  0.05880  0.10300  0.22100  1.0000
  Cu  Cu2       1.0  0.55900  0.27900  0.39700  1.0000
  Cu  Cu3       1.0  0.44100  0.72100  0.60300  1.0000
  Cu  Cu4       1.0  0.94100  0.89700  0.77900  1.0000
  Yb  Yb1       1.0  0.75000  0.70200  0.20200  1.0000
  Yb  Yb2       1.0  0.25000  0.29800  0.79800  1.0000
