data_image0
_chemical_formula_structural       Mn4Rh4Si4
_chemical_formula_sum              "Mn4 Rh4 Si4"
_cell_length_a       5.98849
_cell_length_b       3.81068
_cell_length_c       7.24417
_cell_angle_alpha    90
_cell_angle_beta     90
_cell_angle_gamma    90

_space_group_name_H-M_alt    "P 1"
_space_group_IT_number       1

loop_
  _space_group_symop_operation_xyz
  'x, y, z'

loop_
  _atom_site_type_symbol
  _atom_site_label
  _atom_site_symmetry_multiplicity
  _atom_site_fract_x
  _atom_site_fract_y
  _atom_site_fract_z
  _atom_site_occupancy
  Mn  Mn1       1.0  0.03120  0.25000  0.18200  1.0000
  Mn  Mn2       1.0  0.53100  0.25000  0.31800  1.0000
  Mn  Mn3       1.0  0.46900  0.75000  0.68200  1.0000
  Mn  Mn4       1.0  0.96900  0.75000  0.81800  1.0000
  Rh  Rh1       1.0  0.33900  0.75000  0.06430  1.0000
  Rh  Rh2       1.0  0.83900  0.75000  0.43600  1.0000
  Rh  Rh3       1.0  0.16100  0.25000  0.56400  1.0000
  Rh  Rh4       1.0  0.66100  0.25000  0.93600  1.0000
  Si  Si1       1.0  0.73700  0.75000  0.12200  1.0000
  Si  Si2       1.0  0.23700  0.75000  0.37800  1.0000
  Si  Si3       1.0  0.76300  0.25000  0.62200  1.0000
  Si  Si4       1.0  0.26300  0.25000  0.87800  1.0000
