data_image0
_chemical_formula_structural       Ni3Rb2Ta2
_chemical_formula_sum              "Ni3 Rb2 Ta2"
_cell_length_a       12.4592
_cell_length_b       12.4592
_cell_length_c       12.4592
_cell_angle_alpha    19.6935
_cell_angle_beta     19.6935
_cell_angle_gamma    19.6935

_space_group_name_H-M_alt    "P 1"
_space_group_IT_number       1

loop_
  _space_group_symop_operation_xyz
  'x, y, z'

loop_
  _atom_site_type_symbol
  _atom_site_label
  _atom_site_symmetry_multiplicity
  _atom_site_fract_x
  _atom_site_fract_y
  _atom_site_fract_z
  _atom_site_occupancy
  Ni  Ni1       1.0  0.29200  0.29200  0.29200  1.0000
  Ni  Ni2       1.0  0.66100  0.66100  0.66100  1.0000
  Ni  Ni3       1.0  0.91700  0.91700  0.91700  1.0000
  Rb  Rb1       1.0  0.18100  0.18100  0.18100  1.0000
  Rb  Rb2       1.0  0.74400  0.74400  0.74400  1.0000
  Ta  Ta1       1.0  0.59600  0.59600  0.59600  1.0000
  Ta  Ta2       1.0  0.98400  0.98400  0.98400  1.0000
