data_image0
_chemical_formula_structural       Fe2O2Pb2S2
_chemical_formula_sum              "Fe2 O2 Pb2 S2"
_cell_length_a       3.87034
_cell_length_b       3.87846
_cell_length_c       12.1833
_cell_angle_alpha    90
_cell_angle_beta     90
_cell_angle_gamma    119.931

_space_group_name_H-M_alt    "P 1"
_space_group_IT_number       1

loop_
  _space_group_symop_operation_xyz
  'x, y, z'

loop_
  _atom_site_type_symbol
  _atom_site_label
  _atom_site_symmetry_multiplicity
  _atom_site_fract_x
  _atom_site_fract_y
  _atom_site_fract_z
  _atom_site_occupancy
  Fe  Fe1       1.0  0.99300  0.98600  0.00170  1.0000
  Fe  Fe2       1.0  0.00692  0.01380  0.50200  1.0000
  O   O1        1.0  0.99600  0.99100  0.34400  1.0000
  O   O2        1.0  0.00426  0.00852  0.84400  1.0000
  Pb  Pb1       1.0  0.33000  0.66100  0.26400  1.0000
  Pb  Pb2       1.0  0.67000  0.33900  0.76400  1.0000
  S   S1        1.0  0.66400  0.32800  0.07830  1.0000
  S   S2        1.0  0.33600  0.67200  0.57800  1.0000
