data_image0
_chemical_formula_structural       Ni4Si4V4
_chemical_formula_sum              "Ni4 Si4 V4"
_cell_length_a       5.97551
_cell_length_b       3.53007
_cell_length_c       6.93191
_cell_angle_alpha    90
_cell_angle_beta     90
_cell_angle_gamma    90

_space_group_name_H-M_alt    "P 1"
_space_group_IT_number       1

loop_
  _space_group_symop_operation_xyz
  'x, y, z'

loop_
  _atom_site_type_symbol
  _atom_site_label
  _atom_site_symmetry_multiplicity
  _atom_site_fract_x
  _atom_site_fract_y
  _atom_site_fract_z
  _atom_site_occupancy
  Ni  Ni1       1.0  0.14700  0.25000  0.06070  1.0000
  Ni  Ni2       1.0  0.64700  0.25000  0.43900  1.0000
  Ni  Ni3       1.0  0.35300  0.75000  0.56100  1.0000
  Ni  Ni4       1.0  0.85300  0.75000  0.93900  1.0000
  Si  Si1       1.0  0.76900  0.25000  0.13000  1.0000
  Si  Si2       1.0  0.26900  0.25000  0.37000  1.0000
  Si  Si3       1.0  0.73100  0.75000  0.63000  1.0000
  Si  Si4       1.0  0.23100  0.75000  0.87000  1.0000
  V   V1        1.0  0.47300  0.75000  0.16600  1.0000
  V   V2        1.0  0.97300  0.75000  0.33400  1.0000
  V   V3        1.0  0.02700  0.25000  0.66600  1.0000
  V   V4        1.0  0.52700  0.25000  0.83400  1.0000
