data_image0
_chemical_formula_structural       Ir4Lu4Si4
_chemical_formula_sum              "Ir4 Lu4 Si4"
_cell_length_a       6.69442
_cell_length_b       4.16826
_cell_length_c       7.43304
_cell_angle_alpha    90
_cell_angle_beta     90
_cell_angle_gamma    90

_space_group_name_H-M_alt    "P 1"
_space_group_IT_number       1

loop_
  _space_group_symop_operation_xyz
  'x, y, z'

loop_
  _atom_site_type_symbol
  _atom_site_label
  _atom_site_symmetry_multiplicity
  _atom_site_fract_x
  _atom_site_fract_y
  _atom_site_fract_z
  _atom_site_occupancy
  Ir  Ir1       1.0  0.84100  0.25000  0.06400  1.0000
  Ir  Ir2       1.0  0.34100  0.25000  0.43600  1.0000
  Ir  Ir3       1.0  0.65900  0.75000  0.56400  1.0000
  Ir  Ir4       1.0  0.15900  0.75000  0.93600  1.0000
  Lu  Lu1       1.0  0.50800  0.75000  0.18700  1.0000
  Lu  Lu2       1.0  0.00753  0.75000  0.31300  1.0000
  Lu  Lu3       1.0  0.99200  0.25000  0.68700  1.0000
  Lu  Lu4       1.0  0.49200  0.25000  0.81300  1.0000
  Si  Si1       1.0  0.20600  0.25000  0.11500  1.0000
  Si  Si2       1.0  0.70600  0.25000  0.38500  1.0000
  Si  Si3       1.0  0.29400  0.75000  0.61500  1.0000
  Si  Si4       1.0  0.79400  0.75000  0.88500  1.0000
