data_image0
_chemical_formula_structural       Hg4Th2
_chemical_formula_sum              "Hg4 Th2"
_cell_length_a       4.91036
_cell_length_b       4.9103
_cell_length_c       7.52844
_cell_angle_alpha    90
_cell_angle_beta     90
_cell_angle_gamma    120

_space_group_name_H-M_alt    "P 1"
_space_group_IT_number       1

loop_
  _space_group_symop_operation_xyz
  'x, y, z'

loop_
  _atom_site_type_symbol
  _atom_site_label
  _atom_site_symmetry_multiplicity
  _atom_site_fract_x
  _atom_site_fract_y
  _atom_site_fract_z
  _atom_site_occupancy
  Hg  Hg1       1.0  0.33300  0.66700  0.04010  1.0000
  Hg  Hg2       1.0  0.33300  0.66700  0.46000  1.0000
  Hg  Hg3       1.0  0.66700  0.33300  0.54000  1.0000
  Hg  Hg4       1.0  0.66700  0.33300  0.96000  1.0000
  Th  Th1       1.0  0.00000  0.00000  0.25000  1.0000
  Th  Th2       1.0  0.00000  0.00001  0.75000  1.0000
