data_image0
_chemical_formula_structural       Rh4Si4Y4
_chemical_formula_sum              "Rh4 Si4 Y4"
_cell_length_a       6.90158
_cell_length_b       4.24324
_cell_length_c       7.44987
_cell_angle_alpha    90
_cell_angle_beta     90
_cell_angle_gamma    90

_space_group_name_H-M_alt    "P 1"
_space_group_IT_number       1

loop_
  _space_group_symop_operation_xyz
  'x, y, z'

loop_
  _atom_site_type_symbol
  _atom_site_label
  _atom_site_symmetry_multiplicity
  _atom_site_fract_x
  _atom_site_fract_y
  _atom_site_fract_z
  _atom_site_occupancy
  Rh  Rh1       1.0  0.34600  0.75000  0.06930  1.0000
  Rh  Rh2       1.0  0.84600  0.75000  0.43100  1.0000
  Rh  Rh3       1.0  0.15400  0.25000  0.56900  1.0000
  Rh  Rh4       1.0  0.65400  0.25000  0.93100  1.0000
  Si  Si1       1.0  0.70300  0.75000  0.10400  1.0000
  Si  Si2       1.0  0.20300  0.75000  0.39600  1.0000
  Si  Si3       1.0  0.79700  0.25000  0.60400  1.0000
  Si  Si4       1.0  0.29700  0.25000  0.89600  1.0000
  Y   Y1        1.0  0.00177  0.25000  0.18900  1.0000
  Y   Y2        1.0  0.50200  0.25000  0.31100  1.0000
  Y   Y3        1.0  0.49800  0.75000  0.68900  1.0000
  Y   Y4        1.0  0.99800  0.75000  0.81100  1.0000
