data_image0
_chemical_formula_structural       Li4O5U2
_chemical_formula_sum              "Li4 O5 U2"
_cell_length_a       4.48581
_cell_length_b       7.664
_cell_length_c       4.54964
_cell_angle_alpha    72.7334
_cell_angle_beta     90
_cell_angle_gamma    90

_space_group_name_H-M_alt    "P 1"
_space_group_IT_number       1

loop_
  _space_group_symop_operation_xyz
  'x, y, z'

loop_
  _atom_site_type_symbol
  _atom_site_label
  _atom_site_symmetry_multiplicity
  _atom_site_fract_x
  _atom_site_fract_y
  _atom_site_fract_z
  _atom_site_occupancy
  Li  Li1       1.0  0.00000  0.00000  0.00000  1.0000
  Li  Li2       1.0  0.00000  0.36400  0.31800  1.0000
  Li  Li3       1.0  0.50000  0.00000  0.50000  1.0000
  Li  Li4       1.0  0.00000  0.63600  0.68200  1.0000
  O   O1        1.0  0.50000  0.00000  0.00000  1.0000
  O   O2        1.0  0.00000  0.65600  0.17200  1.0000
  O   O3        1.0  0.50000  0.35100  0.32500  1.0000
  O   O4        1.0  0.50000  0.64900  0.67500  1.0000
  O   O5        1.0  0.00000  0.34400  0.82800  1.0000
  U   U1        1.0  0.50000  0.68900  0.15500  1.0000
  U   U2        1.0  0.50000  0.31100  0.84500  1.0000
