data_image0
_chemical_formula_structural       Li4O5Yb2
_chemical_formula_sum              "Li4 O5 Yb2"
_cell_length_a       4.32539
_cell_length_b       6.91745
_cell_length_c       4.41864
_cell_angle_alpha    71.3743
_cell_angle_beta     90
_cell_angle_gamma    90

_space_group_name_H-M_alt    "P 1"
_space_group_IT_number       1

loop_
  _space_group_symop_operation_xyz
  'x, y, z'

loop_
  _atom_site_type_symbol
  _atom_site_label
  _atom_site_symmetry_multiplicity
  _atom_site_fract_x
  _atom_site_fract_y
  _atom_site_fract_z
  _atom_site_occupancy
  Li  Li1       1.0  0.00000  0.00000  0.00000  1.0000
  Li  Li2       1.0  0.00000  0.36400  0.31800  1.0000
  Li  Li3       1.0  0.50000  0.00000  0.50000  1.0000
  Li  Li4       1.0  0.00000  0.63600  0.68200  1.0000
  O   O1        1.0  0.50000  0.00000  0.00000  1.0000
  O   O2        1.0  0.00000  0.68000  0.16000  1.0000
  O   O3        1.0  0.50000  0.30900  0.34600  1.0000
  O   O4        1.0  0.50000  0.69100  0.65400  1.0000
  O   O5        1.0  0.00000  0.32000  0.84000  1.0000
  Yb  Yb1       1.0  0.50000  0.67100  0.16400  1.0000
  Yb  Yb2       1.0  0.50000  0.32900  0.83600  1.0000
