data_image0
_chemical_formula_structural       Hf4Ni2
_chemical_formula_sum              "Hf4 Ni2"
_cell_length_a       5.21406
_cell_length_b       5.22514
_cell_length_c       5.22514
_cell_angle_alpha    104.415
_cell_angle_beta     60.0702
_cell_angle_gamma    119.93

_space_group_name_H-M_alt    "P 1"
_space_group_IT_number       1

loop_
  _space_group_symop_operation_xyz
  'x, y, z'

loop_
  _atom_site_type_symbol
  _atom_site_label
  _atom_site_symmetry_multiplicity
  _atom_site_fract_x
  _atom_site_fract_y
  _atom_site_fract_z
  _atom_site_occupancy
  Hf  Hf1       1.0  0.16400  0.50000  0.17100  1.0000
  Hf  Hf2       1.0  0.66400  0.82900  0.50000  1.0000
  Hf  Hf3       1.0  0.33600  0.17100  0.50000  1.0000
  Hf  Hf4       1.0  0.83600  0.50000  0.82900  1.0000
  Ni  Ni1       1.0  0.25000  0.00000  0.00000  1.0000
  Ni  Ni2       1.0  0.75000  0.00000  0.00000  1.0000
