data_image0
_chemical_formula_structural       Ni4Si4U4
_chemical_formula_sum              "Ni4 Si4 U4"
_cell_length_a       3.78069
_cell_length_b       7.29193
_cell_length_c       6.83106
_cell_angle_alpha    90
_cell_angle_beta     90
_cell_angle_gamma    90

_space_group_name_H-M_alt    "P 1"
_space_group_IT_number       1

loop_
  _space_group_symop_operation_xyz
  'x, y, z'

loop_
  _atom_site_type_symbol
  _atom_site_label
  _atom_site_symmetry_multiplicity
  _atom_site_fract_x
  _atom_site_fract_y
  _atom_site_fract_z
  _atom_site_occupancy
  Ni  Ni1       1.0  0.75000  0.37600  0.05950  1.0000
  Ni  Ni2       1.0  0.75000  0.87600  0.44100  1.0000
  Ni  Ni3       1.0  0.25000  0.12400  0.55900  1.0000
  Ni  Ni4       1.0  0.25000  0.62400  0.94100  1.0000
  Si  Si1       1.0  0.75000  0.69700  0.13000  1.0000
  Si  Si2       1.0  0.75000  0.19700  0.37000  1.0000
  Si  Si3       1.0  0.25000  0.80300  0.63000  1.0000
  Si  Si4       1.0  0.25000  0.30300  0.87000  1.0000
  U   U1        1.0  0.25000  0.99800  0.13200  1.0000
  U   U2        1.0  0.25000  0.49800  0.36800  1.0000
  U   U3        1.0  0.75000  0.50200  0.63200  1.0000
  U   U4        1.0  0.75000  0.00203  0.86800  1.0000
