data_image0
_chemical_formula_structural       Ge4Tm2
_chemical_formula_sum              "Ge4 Tm2"
_cell_length_a       3.89312
_cell_length_b       4.02606
_cell_length_c       8.16332
_cell_angle_alpha    75.7239
_cell_angle_beta     90
_cell_angle_gamma    90

_space_group_name_H-M_alt    "P 1"
_space_group_IT_number       1

loop_
  _space_group_symop_operation_xyz
  'x, y, z'

loop_
  _atom_site_type_symbol
  _atom_site_label
  _atom_site_symmetry_multiplicity
  _atom_site_fract_x
  _atom_site_fract_y
  _atom_site_fract_z
  _atom_site_occupancy
  Ge  Ge1       1.0  0.75000  0.44700  0.10600  1.0000
  Ge  Ge2       1.0  0.25000  0.25300  0.49500  1.0000
  Ge  Ge3       1.0  0.75000  0.74700  0.50500  1.0000
  Ge  Ge4       1.0  0.25000  0.55300  0.89400  1.0000
  Tm  Tm1       1.0  0.25000  0.89600  0.20700  1.0000
  Tm  Tm2       1.0  0.75000  0.10400  0.79300  1.0000
