data_image0
_chemical_formula_structural       Al2Si2Y2
_chemical_formula_sum              "Al2 Si2 Y2"
_cell_length_a       4.00312
_cell_length_b       5.53545
_cell_length_c       5.72201
_cell_angle_alpha    90
_cell_angle_beta     90
_cell_angle_gamma    68.8022

_space_group_name_H-M_alt    "P 1"
_space_group_IT_number       1

loop_
  _space_group_symop_operation_xyz
  'x, y, z'

loop_
  _atom_site_type_symbol
  _atom_site_label
  _atom_site_symmetry_multiplicity
  _atom_site_fract_x
  _atom_site_fract_y
  _atom_site_fract_z
  _atom_site_occupancy
  Al  Al1       1.0  0.00000  0.00000  0.00000  1.0000
  Al  Al2       1.0  0.00000  0.00000  0.50000  1.0000
  Si  Si1       1.0  0.40100  0.19800  0.25000  1.0000
  Si  Si2       1.0  0.59900  0.80200  0.75000  1.0000
  Y   Y1        1.0  0.69400  0.61100  0.25000  1.0000
  Y   Y2        1.0  0.30600  0.38900  0.75000  1.0000
