data_image0
_chemical_formula_structural       Hf4Mo4Si4
_chemical_formula_sum              "Hf4 Mo4 Si4"
_cell_length_a       6.9478
_cell_length_b       3.50276
_cell_length_c       8.19023
_cell_angle_alpha    90
_cell_angle_beta     90
_cell_angle_gamma    90

_space_group_name_H-M_alt    "P 1"
_space_group_IT_number       1

loop_
  _space_group_symop_operation_xyz
  'x, y, z'

loop_
  _atom_site_type_symbol
  _atom_site_label
  _atom_site_symmetry_multiplicity
  _atom_site_fract_x
  _atom_site_fract_y
  _atom_site_fract_z
  _atom_site_occupancy
  Hf  Hf1       1.0  0.45700  0.75000  0.16700  1.0000
  Hf  Hf2       1.0  0.95700  0.75000  0.33300  1.0000
  Hf  Hf3       1.0  0.04320  0.25000  0.66700  1.0000
  Hf  Hf4       1.0  0.54300  0.25000  0.83300  1.0000
  Mo  Mo1       1.0  0.13400  0.25000  0.06280  1.0000
  Mo  Mo2       1.0  0.63400  0.25000  0.43700  1.0000
  Mo  Mo3       1.0  0.36600  0.75000  0.56300  1.0000
  Mo  Mo4       1.0  0.86600  0.75000  0.93700  1.0000
  Si  Si1       1.0  0.75700  0.25000  0.13700  1.0000
  Si  Si2       1.0  0.25700  0.25000  0.36300  1.0000
  Si  Si3       1.0  0.74300  0.75000  0.63700  1.0000
  Si  Si4       1.0  0.24300  0.75000  0.86300  1.0000
