data_image0
_chemical_formula_structural       B2Fe4
_chemical_formula_sum              "B2 Fe4"
_cell_length_a       4.1514
_cell_length_b       4.1514
_cell_length_c       4.1514
_cell_angle_alpha    105.052
_cell_angle_beta     118.726
_cell_angle_gamma    105.052

_space_group_name_H-M_alt    "P 1"
_space_group_IT_number       1

loop_
  _space_group_symop_operation_xyz
  'x, y, z'

loop_
  _atom_site_type_symbol
  _atom_site_label
  _atom_site_symmetry_multiplicity
  _atom_site_fract_x
  _atom_site_fract_y
  _atom_site_fract_z
  _atom_site_occupancy
  B   B1        1.0  0.50000  0.50000  0.00000  1.0000
  B   B2        1.0  0.00000  0.50000  0.50000  1.0000
  Fe  Fe1       1.0  0.08360  0.66700  0.08360  1.0000
  Fe  Fe2       1.0  0.41600  0.33300  0.41600  1.0000
  Fe  Fe3       1.0  0.91600  0.00000  0.58400  1.0000
  Fe  Fe4       1.0  0.58400  0.00000  0.91600  1.0000
