data_image0
_chemical_formula_structural       Ge4Mg4N8
_chemical_formula_sum              "Ge4 Mg4 N8"
_cell_length_a       5.50177
_cell_length_b       6.62393
_cell_length_c       5.17373
_cell_angle_alpha    90
_cell_angle_beta     90
_cell_angle_gamma    90

_space_group_name_H-M_alt    "P 1"
_space_group_IT_number       1

loop_
  _space_group_symop_operation_xyz
  'x, y, z'

loop_
  _atom_site_type_symbol
  _atom_site_label
  _atom_site_symmetry_multiplicity
  _atom_site_fract_x
  _atom_site_fract_y
  _atom_site_fract_z
  _atom_site_occupancy
  Ge  Ge1       1.0  0.07390  0.12600  0.00699  1.0000
  Ge  Ge2       1.0  0.57400  0.37400  0.00699  1.0000
  Ge  Ge3       1.0  0.42600  0.62600  0.50700  1.0000
  Ge  Ge4       1.0  0.92600  0.87400  0.50700  1.0000
  Mg  Mg1       1.0  0.08360  0.62400  0.00000  1.0000
  Mg  Mg2       1.0  0.58400  0.87600  0.00000  1.0000
  Mg  Mg3       1.0  0.41600  0.12400  0.50000  1.0000
  Mg  Mg4       1.0  0.91600  0.37600  0.50000  1.0000
  N   N1        1.0  0.06080  0.10800  0.36900  1.0000
  N   N2        1.0  0.56100  0.39200  0.36900  1.0000
  N   N3        1.0  0.09870  0.64200  0.40500  1.0000
  N   N4        1.0  0.59900  0.85800  0.40500  1.0000
  N   N5        1.0  0.43900  0.60800  0.86900  1.0000
  N   N6        1.0  0.93900  0.89200  0.86900  1.0000
  N   N7        1.0  0.40100  0.14200  0.90500  1.0000
  N   N8        1.0  0.90100  0.35800  0.90500  1.0000
