data_image0
_chemical_formula_structural       Lu4Rh4Si4
_chemical_formula_sum              "Lu4 Rh4 Si4"
_cell_length_a       6.73492
_cell_length_b       4.18298
_cell_length_c       7.38895
_cell_angle_alpha    90
_cell_angle_beta     90
_cell_angle_gamma    90

_space_group_name_H-M_alt    "P 1"
_space_group_IT_number       1

loop_
  _space_group_symop_operation_xyz
  'x, y, z'

loop_
  _atom_site_type_symbol
  _atom_site_label
  _atom_site_symmetry_multiplicity
  _atom_site_fract_x
  _atom_site_fract_y
  _atom_site_fract_z
  _atom_site_occupancy
  Lu  Lu1       1.0  0.00406  0.25000  0.19200  1.0000
  Lu  Lu2       1.0  0.50400  0.25000  0.30800  1.0000
  Lu  Lu3       1.0  0.49600  0.75000  0.69200  1.0000
  Lu  Lu4       1.0  0.99600  0.75000  0.80800  1.0000
  Rh  Rh1       1.0  0.34300  0.75000  0.06740  1.0000
  Rh  Rh2       1.0  0.84300  0.75000  0.43300  1.0000
  Rh  Rh3       1.0  0.15700  0.25000  0.56700  1.0000
  Rh  Rh4       1.0  0.65700  0.25000  0.93300  1.0000
  Si  Si1       1.0  0.70900  0.75000  0.10600  1.0000
  Si  Si2       1.0  0.20900  0.75000  0.39400  1.0000
  Si  Si3       1.0  0.79100  0.25000  0.60600  1.0000
  Si  Si4       1.0  0.29100  0.25000  0.89400  1.0000
