data_image0
_chemical_formula_structural       H14Mg6Re2
_chemical_formula_sum              "H14 Mg6 Re2"
_cell_length_a       4.77314
_cell_length_b       4.77316
_cell_length_c       10.541
_cell_angle_alpha    90
_cell_angle_beta     90
_cell_angle_gamma    120

_space_group_name_H-M_alt    "P 1"
_space_group_IT_number       1

loop_
  _space_group_symop_operation_xyz
  'x, y, z'

loop_
  _atom_site_type_symbol
  _atom_site_label
  _atom_site_symmetry_multiplicity
  _atom_site_fract_x
  _atom_site_fract_y
  _atom_site_fract_z
  _atom_site_occupancy
  H   H1        1.0  0.34300  0.17200  0.09910  1.0000
  H   H2        1.0  0.82800  0.17200  0.09910  1.0000
  H   H3        1.0  0.82800  0.65700  0.09910  1.0000
  H   H4        1.0  0.33300  0.66700  0.25000  1.0000
  H   H5        1.0  0.82800  0.65700  0.40100  1.0000
  H   H6        1.0  0.34300  0.17200  0.40100  1.0000
  H   H7        1.0  0.82800  0.17200  0.40100  1.0000
  H   H8        1.0  0.17200  0.82800  0.59900  1.0000
  H   H9        1.0  0.65700  0.82800  0.59900  1.0000
  H   H10       1.0  0.17200  0.34300  0.59900  1.0000
  H   H11       1.0  0.66700  0.33300  0.75000  1.0000
  H   H12       1.0  0.17200  0.34300  0.90100  1.0000
  H   H13       1.0  0.17200  0.82800  0.90100  1.0000
  H   H14       1.0  0.65700  0.82800  0.90100  1.0000
  Mg  Mg1       1.0  0.33300  0.66700  0.06960  1.0000
  Mg  Mg2       1.0  0.00001  0.00001  0.25000  1.0000
  Mg  Mg3       1.0  0.33300  0.66700  0.43000  1.0000
  Mg  Mg4       1.0  0.66700  0.33300  0.57000  1.0000
  Mg  Mg5       1.0  0.00000  0.00000  0.75000  1.0000
  Mg  Mg6       1.0  0.66700  0.33300  0.93000  1.0000
  Re  Re1       1.0  0.00000  0.00000  0.00000  1.0000
  Re  Re2       1.0  0.00000  0.00000  0.50000  1.0000
