data_image0
_chemical_formula_structural       Ce2Cu4
_chemical_formula_sum              "Ce2 Cu4"
_cell_length_a       4.41217
_cell_length_b       5.62827
_cell_length_c       5.62827
_cell_angle_alpha    101.115
_cell_angle_beta     66.9231
_cell_angle_gamma    113.077

_space_group_name_H-M_alt    "P 1"
_space_group_IT_number       1

loop_
  _space_group_symop_operation_xyz
  'x, y, z'

loop_
  _atom_site_type_symbol
  _atom_site_label
  _atom_site_symmetry_multiplicity
  _atom_site_fract_x
  _atom_site_fract_y
  _atom_site_fract_z
  _atom_site_occupancy
  Ce  Ce1       1.0  0.46100  0.21100  0.28900  1.0000
  Ce  Ce2       1.0  0.53900  0.78900  0.71100  1.0000
  Cu  Cu1       1.0  0.83400  0.78400  0.11500  1.0000
  Cu  Cu2       1.0  0.16600  0.61500  0.28400  1.0000
  Cu  Cu3       1.0  0.83400  0.38500  0.71600  1.0000
  Cu  Cu4       1.0  0.16600  0.21600  0.88500  1.0000
