data_image0
_chemical_formula_structural       Fe8Ge8Si8
_chemical_formula_sum              "Fe8 Ge8 Si8"
_cell_length_a       6.44348
_cell_length_b       6.44348
_cell_length_c       8.01373
_cell_angle_alpha    90
_cell_angle_beta     90
_cell_angle_gamma    103.938

_space_group_name_H-M_alt    "P 1"
_space_group_IT_number       1

loop_
  _space_group_symop_operation_xyz
  'x, y, z'

loop_
  _atom_site_type_symbol
  _atom_site_label
  _atom_site_symmetry_multiplicity
  _atom_site_fract_x
  _atom_site_fract_y
  _atom_site_fract_z
  _atom_site_occupancy
  Fe  Fe1       1.0  0.78300  0.21700  0.00000  1.0000
  Fe  Fe2       1.0  0.21700  0.78300  0.00000  1.0000
  Fe  Fe3       1.0  0.19300  0.19300  0.18700  1.0000
  Fe  Fe4       1.0  0.69300  0.69300  0.31300  1.0000
  Fe  Fe5       1.0  0.71700  0.28300  0.50000  1.0000
  Fe  Fe6       1.0  0.28300  0.71700  0.50000  1.0000
  Fe  Fe7       1.0  0.30700  0.30700  0.68700  1.0000
  Fe  Fe8       1.0  0.80700  0.80700  0.81300  1.0000
  Ge  Ge1       1.0  0.85300  0.59700  0.05010  1.0000
  Ge  Ge2       1.0  0.59700  0.85300  0.05010  1.0000
  Ge  Ge3       1.0  0.35300  0.09690  0.45000  1.0000
  Ge  Ge4       1.0  0.09690  0.35300  0.45000  1.0000
  Ge  Ge5       1.0  0.90300  0.64700  0.55000  1.0000
  Ge  Ge6       1.0  0.64700  0.90300  0.55000  1.0000
  Ge  Ge7       1.0  0.40300  0.14700  0.95000  1.0000
  Ge  Ge8       1.0  0.14700  0.40300  0.95000  1.0000
  Si  Si1       1.0  0.58500  0.33200  0.23100  1.0000
  Si  Si2       1.0  0.33200  0.58500  0.23100  1.0000
  Si  Si3       1.0  0.83200  0.08480  0.26900  1.0000
  Si  Si4       1.0  0.08480  0.83200  0.26900  1.0000
  Si  Si5       1.0  0.91500  0.16800  0.73100  1.0000
  Si  Si6       1.0  0.16800  0.91500  0.73100  1.0000
  Si  Si7       1.0  0.66800  0.41500  0.76900  1.0000
  Si  Si8       1.0  0.41500  0.66800  0.76900  1.0000
