data_image0
_chemical_formula_structural       K12Mg2O8
_chemical_formula_sum              "K12 Mg2 O8"
_cell_length_a       8.45502
_cell_length_b       8.45469
_cell_length_c       6.56959
_cell_angle_alpha    90
_cell_angle_beta     90
_cell_angle_gamma    120.001

_space_group_name_H-M_alt    "P 1"
_space_group_IT_number       1

loop_
  _space_group_symop_operation_xyz
  'x, y, z'

loop_
  _atom_site_type_symbol
  _atom_site_label
  _atom_site_symmetry_multiplicity
  _atom_site_fract_x
  _atom_site_fract_y
  _atom_site_fract_z
  _atom_site_occupancy
  K   K1        1.0  0.14200  0.85800  0.99800  1.0000
  K   K2        1.0  0.71500  0.85800  0.99800  1.0000
  K   K3        1.0  0.14200  0.28500  0.99900  1.0000
  K   K4        1.0  0.46400  0.92800  0.32000  1.0000
  K   K5        1.0  0.07180  0.53600  0.32000  1.0000
  K   K6        1.0  0.46400  0.53600  0.32000  1.0000
  K   K7        1.0  0.28500  0.14200  0.49800  1.0000
  K   K8        1.0  0.85800  0.14200  0.49800  1.0000
  K   K9        1.0  0.85800  0.71500  0.49900  1.0000
  K   K10       1.0  0.53600  0.07180  0.82000  1.0000
  K   K11       1.0  0.53600  0.46400  0.82000  1.0000
  K   K12       1.0  0.92800  0.46400  0.82000  1.0000
  Mg  Mg1       1.0  0.66700  0.33300  0.21800  1.0000
  Mg  Mg2       1.0  0.33300  0.66700  0.71800  1.0000
  O   O1        1.0  0.33300  0.66700  0.02280  1.0000
  O   O2        1.0  0.40200  0.20100  0.11600  1.0000
  O   O3        1.0  0.79900  0.20100  0.11600  1.0000
  O   O4        1.0  0.79900  0.59800  0.11600  1.0000
  O   O5        1.0  0.66700  0.33300  0.52300  1.0000
  O   O6        1.0  0.20100  0.40200  0.61600  1.0000
  O   O7        1.0  0.20100  0.79900  0.61600  1.0000
  O   O8        1.0  0.59800  0.79900  0.61600  1.0000
