data_image0
_chemical_formula_structural       Ag3Lu3Si3
_chemical_formula_sum              "Ag3 Lu3 Si3"
_cell_length_a       6.93167
_cell_length_b       6.93167
_cell_length_c       4.1245
_cell_angle_alpha    90
_cell_angle_beta     90
_cell_angle_gamma    120

_space_group_name_H-M_alt    "P 1"
_space_group_IT_number       1

loop_
  _space_group_symop_operation_xyz
  'x, y, z'

loop_
  _atom_site_type_symbol
  _atom_site_label
  _atom_site_symmetry_multiplicity
  _atom_site_fract_x
  _atom_site_fract_y
  _atom_site_fract_z
  _atom_site_occupancy
  Ag  Ag1       1.0  0.25000  0.00001  0.00000  1.0000
  Ag  Ag2       1.0  0.00001  0.25000  0.00000  1.0000
  Ag  Ag3       1.0  0.75000  0.75000  0.00000  1.0000
  Lu  Lu1       1.0  0.57900  0.00002  0.50000  1.0000
  Lu  Lu2       1.0  0.42100  0.42100  0.50000  1.0000
  Lu  Lu3       1.0  0.00002  0.57900  0.50000  1.0000
  Si  Si1       1.0  0.66700  0.33300  0.00000  1.0000
  Si  Si2       1.0  0.33300  0.66700  0.00000  1.0000
  Si  Si3       1.0  0.00001  0.00001  0.50000  1.0000
