data_image0
_chemical_formula_structural       Ge5Pr
_chemical_formula_sum              "Ge5 Pr1"
_cell_length_a       4.02315
_cell_length_b       6.22335
_cell_length_c       6.22335
_cell_angle_alpha    106.317
_cell_angle_beta     108.858
_cell_angle_gamma    108.858

_space_group_name_H-M_alt    "P 1"
_space_group_IT_number       1

loop_
  _space_group_symop_operation_xyz
  'x, y, z'

loop_
  _atom_site_type_symbol
  _atom_site_label
  _atom_site_symmetry_multiplicity
  _atom_site_fract_x
  _atom_site_fract_y
  _atom_site_fract_z
  _atom_site_occupancy
  Ge  Ge1       1.0  0.79600  0.46600  0.12600  1.0000
  Ge  Ge2       1.0  0.79600  0.12600  0.46600  1.0000
  Ge  Ge3       1.0  0.50000  0.50000  0.50000  1.0000
  Ge  Ge4       1.0  0.20400  0.87400  0.53400  1.0000
  Ge  Ge5       1.0  0.20400  0.53400  0.87400  1.0000
  Pr  Pr1       1.0  0.00000  0.00000  0.00000  1.0000
