data_image0
_chemical_formula_structural       Ho4Ru4Si4
_chemical_formula_sum              "Ho4 Ru4 Si4"
_cell_length_a       6.97278
_cell_length_b       4.31697
_cell_length_c       7.1247
_cell_angle_alpha    90
_cell_angle_beta     90
_cell_angle_gamma    90

_space_group_name_H-M_alt    "P 1"
_space_group_IT_number       1

loop_
  _space_group_symop_operation_xyz
  'x, y, z'

loop_
  _atom_site_type_symbol
  _atom_site_label
  _atom_site_symmetry_multiplicity
  _atom_site_fract_x
  _atom_site_fract_y
  _atom_site_fract_z
  _atom_site_occupancy
  Ho  Ho1       1.0  0.98800  0.25000  0.18700  1.0000
  Ho  Ho2       1.0  0.48800  0.25000  0.31300  1.0000
  Ho  Ho3       1.0  0.51200  0.75000  0.68700  1.0000
  Ho  Ho4       1.0  0.01240  0.75000  0.81300  1.0000
  Ru  Ru1       1.0  0.34600  0.75000  0.06620  1.0000
  Ru  Ru2       1.0  0.84600  0.75000  0.43400  1.0000
  Ru  Ru3       1.0  0.15400  0.25000  0.56600  1.0000
  Ru  Ru4       1.0  0.65400  0.25000  0.93400  1.0000
  Si  Si1       1.0  0.69700  0.75000  0.10600  1.0000
  Si  Si2       1.0  0.19700  0.75000  0.39400  1.0000
  Si  Si3       1.0  0.80300  0.25000  0.60600  1.0000
  Si  Si4       1.0  0.30300  0.25000  0.89400  1.0000
