data_image0
_chemical_formula_structural       F8Hf4O4
_chemical_formula_sum              "F8 Hf4 O4"
_cell_length_a       5.12634
_cell_length_b       7.20172
_cell_length_c       5.32201
_cell_angle_alpha    90
_cell_angle_beta     90
_cell_angle_gamma    90

_space_group_name_H-M_alt    "P 1"
_space_group_IT_number       1

loop_
  _space_group_symop_operation_xyz
  'x, y, z'

loop_
  _atom_site_type_symbol
  _atom_site_label
  _atom_site_symmetry_multiplicity
  _atom_site_fract_x
  _atom_site_fract_y
  _atom_site_fract_z
  _atom_site_occupancy
  F   F1        1.0  0.19800  0.40700  0.28200  1.0000
  F   F2        1.0  0.69800  0.59300  0.28200  1.0000
  F   F3        1.0  0.69200  0.27000  0.48100  1.0000
  F   F4        1.0  0.19200  0.73000  0.48100  1.0000
  F   F5        1.0  0.30200  0.40700  0.78200  1.0000
  F   F6        1.0  0.80200  0.59300  0.78200  1.0000
  F   F7        1.0  0.80800  0.27000  0.98100  1.0000
  F   F8        1.0  0.30800  0.73000  0.98100  1.0000
  Hf  Hf1       1.0  0.01810  0.17800  0.29600  1.0000
  Hf  Hf2       1.0  0.51800  0.82200  0.29600  1.0000
  Hf  Hf3       1.0  0.48200  0.17800  0.79600  1.0000
  Hf  Hf4       1.0  0.98200  0.82200  0.79600  1.0000
  O   O1        1.0  0.34800  0.06720  0.12300  1.0000
  O   O2        1.0  0.84800  0.93300  0.12300  1.0000
  O   O3        1.0  0.15200  0.06720  0.62300  1.0000
  O   O4        1.0  0.65200  0.93300  0.62300  1.0000
