data_image0
_chemical_formula_structural       Hg2O2Se2Yb2
_chemical_formula_sum              "Hg2 O2 Se2 Yb2"
_cell_length_a       4.30104
_cell_length_b       4.30104
_cell_length_c       8.89195
_cell_angle_alpha    90
_cell_angle_beta     90
_cell_angle_gamma    90

_space_group_name_H-M_alt    "P 1"
_space_group_IT_number       1

loop_
  _space_group_symop_operation_xyz
  'x, y, z'

loop_
  _atom_site_type_symbol
  _atom_site_label
  _atom_site_symmetry_multiplicity
  _atom_site_fract_x
  _atom_site_fract_y
  _atom_site_fract_z
  _atom_site_occupancy
  Hg  Hg1       1.0  0.75000  0.25000  0.50000  1.0000
  Hg  Hg2       1.0  0.25000  0.75000  0.50000  1.0000
  O   O1        1.0  0.75000  0.25000  0.00000  1.0000
  O   O2        1.0  0.25000  0.75000  0.00000  1.0000
  Se  Se1       1.0  0.75000  0.75000  0.29300  1.0000
  Se  Se2       1.0  0.25000  0.25000  0.70700  1.0000
  Yb  Yb1       1.0  0.25000  0.25000  0.07840  1.0000
  Yb  Yb2       1.0  0.75000  0.75000  0.92200  1.0000
