data_image0
_chemical_formula_structural       Al4Mg4Si4
_chemical_formula_sum              "Al4 Mg4 Si4"
_cell_length_a       6.58527
_cell_length_b       4.00687
_cell_length_c       8.10577
_cell_angle_alpha    90
_cell_angle_beta     90
_cell_angle_gamma    90

_space_group_name_H-M_alt    "P 1"
_space_group_IT_number       1

loop_
  _space_group_symop_operation_xyz
  'x, y, z'

loop_
  _atom_site_type_symbol
  _atom_site_label
  _atom_site_symmetry_multiplicity
  _atom_site_fract_x
  _atom_site_fract_y
  _atom_site_fract_z
  _atom_site_occupancy
  Al  Al1       1.0  0.14200  0.25000  0.06900  1.0000
  Al  Al2       1.0  0.64200  0.25000  0.43100  1.0000
  Al  Al3       1.0  0.35800  0.75000  0.56900  1.0000
  Al  Al4       1.0  0.85800  0.75000  0.93100  1.0000
  Mg  Mg1       1.0  0.46500  0.75000  0.17200  1.0000
  Mg  Mg2       1.0  0.96500  0.75000  0.32800  1.0000
  Mg  Mg3       1.0  0.03520  0.25000  0.67200  1.0000
  Mg  Mg4       1.0  0.53500  0.25000  0.82800  1.0000
  Si  Si1       1.0  0.75900  0.25000  0.12100  1.0000
  Si  Si2       1.0  0.25900  0.25000  0.37900  1.0000
  Si  Si3       1.0  0.74100  0.75000  0.62100  1.0000
  Si  Si4       1.0  0.24100  0.75000  0.87900  1.0000
