data_image0
_chemical_formula_structural       Nb4Pt4Si4
_chemical_formula_sum              "Nb4 Pt4 Si4"
_cell_length_a       6.47993
_cell_length_b       3.84837
_cell_length_c       7.42481
_cell_angle_alpha    90
_cell_angle_beta     90
_cell_angle_gamma    90

_space_group_name_H-M_alt    "P 1"
_space_group_IT_number       1

loop_
  _space_group_symop_operation_xyz
  'x, y, z'

loop_
  _atom_site_type_symbol
  _atom_site_label
  _atom_site_symmetry_multiplicity
  _atom_site_fract_x
  _atom_site_fract_y
  _atom_site_fract_z
  _atom_site_occupancy
  Nb  Nb1       1.0  0.02710  0.25000  0.16500  1.0000
  Nb  Nb2       1.0  0.52700  0.25000  0.33500  1.0000
  Nb  Nb3       1.0  0.47300  0.75000  0.66500  1.0000
  Nb  Nb4       1.0  0.97300  0.75000  0.83500  1.0000
  Pt  Pt1       1.0  0.34900  0.75000  0.06510  1.0000
  Pt  Pt2       1.0  0.84900  0.75000  0.43500  1.0000
  Pt  Pt3       1.0  0.15100  0.25000  0.56500  1.0000
  Pt  Pt4       1.0  0.65100  0.25000  0.93500  1.0000
  Si  Si1       1.0  0.73100  0.75000  0.12600  1.0000
  Si  Si2       1.0  0.23100  0.75000  0.37400  1.0000
  Si  Si3       1.0  0.76900  0.25000  0.62600  1.0000
  Si  Si4       1.0  0.26900  0.25000  0.87400  1.0000
