data_image0
_chemical_formula_structural       O2S2Sn4
_chemical_formula_sum              "O2 S2 Sn4"
_cell_length_a       3.74666
_cell_length_b       3.74608
_cell_length_c       13.8911
_cell_angle_alpha    90
_cell_angle_beta     90
_cell_angle_gamma    120.005

_space_group_name_H-M_alt    "P 1"
_space_group_IT_number       1

loop_
  _space_group_symop_operation_xyz
  'x, y, z'

loop_
  _atom_site_type_symbol
  _atom_site_label
  _atom_site_symmetry_multiplicity
  _atom_site_fract_x
  _atom_site_fract_y
  _atom_site_fract_z
  _atom_site_occupancy
  O   O1        1.0  0.00000  0.00014  0.32200  1.0000
  O   O2        1.0  0.00000  0.00000  0.82200  1.0000
  S   S1        1.0  0.66700  0.33300  0.11700  1.0000
  S   S2        1.0  0.33300  0.66700  0.61700  1.0000
  Sn  Sn1       1.0  0.33300  0.66700  0.25600  1.0000
  Sn  Sn2       1.0  0.00000  0.00000  0.49300  1.0000
  Sn  Sn3       1.0  0.66700  0.33300  0.75600  1.0000
  Sn  Sn4       1.0  0.00000  0.00014  0.99300  1.0000
