data_image0
_chemical_formula_structural       As2Bi2Mg4O12
_chemical_formula_sum              "As2 Bi2 Mg4 O12"
_cell_length_a       5.40041
_cell_length_b       7.24432
_cell_length_c       7.24432
_cell_angle_alpha    65.8993
_cell_angle_beta     90
_cell_angle_gamma    90

_space_group_name_H-M_alt    "P 1"
_space_group_IT_number       1

loop_
  _space_group_symop_operation_xyz
  'x, y, z'

loop_
  _atom_site_type_symbol
  _atom_site_label
  _atom_site_symmetry_multiplicity
  _atom_site_fract_x
  _atom_site_fract_y
  _atom_site_fract_z
  _atom_site_occupancy
  As  As1       1.0  0.25000  0.19800  0.19800  1.0000
  As  As2       1.0  0.75000  0.80200  0.80200  1.0000
  Bi  Bi1       1.0  0.75000  0.40400  0.40400  1.0000
  Bi  Bi2       1.0  0.25000  0.59600  0.59600  1.0000
  Mg  Mg1       1.0  0.25000  0.71500  0.10500  1.0000
  Mg  Mg2       1.0  0.75000  0.89500  0.28500  1.0000
  Mg  Mg3       1.0  0.25000  0.10500  0.71500  1.0000
  Mg  Mg4       1.0  0.75000  0.28500  0.89500  1.0000
  O   O1        1.0  0.25000  0.45300  0.09070  1.0000
  O   O2        1.0  0.50800  0.11500  0.11500  1.0000
  O   O3        1.0  0.99200  0.11500  0.11500  1.0000
  O   O4        1.0  0.00000  0.67000  0.33000  1.0000
  O   O5        1.0  0.50000  0.67000  0.33000  1.0000
  O   O6        1.0  0.25000  0.09070  0.45300  1.0000
  O   O7        1.0  0.75000  0.90900  0.54700  1.0000
  O   O8        1.0  0.00000  0.33000  0.67000  1.0000
  O   O9        1.0  0.50000  0.33000  0.67000  1.0000
  O   O10       1.0  0.00804  0.88500  0.88500  1.0000
  O   O11       1.0  0.49200  0.88500  0.88500  1.0000
  O   O12       1.0  0.75000  0.54700  0.90900  1.0000
