data_image0
_chemical_formula_structural       O2Pb2S2Zn2
_chemical_formula_sum              "O2 Pb2 S2 Zn2"
_cell_length_a       3.82519
_cell_length_b       3.82521
_cell_length_c       12.2655
_cell_angle_alpha    90
_cell_angle_beta     90
_cell_angle_gamma    120

_space_group_name_H-M_alt    "P 1"
_space_group_IT_number       1

loop_
  _space_group_symop_operation_xyz
  'x, y, z'

loop_
  _atom_site_type_symbol
  _atom_site_label
  _atom_site_symmetry_multiplicity
  _atom_site_fract_x
  _atom_site_fract_y
  _atom_site_fract_z
  _atom_site_occupancy
  O   O1        1.0  0.00000  0.00000  0.34400  1.0000
  O   O2        1.0  0.00000  0.00000  0.84400  1.0000
  Pb  Pb1       1.0  0.33300  0.66700  0.26700  1.0000
  Pb  Pb2       1.0  0.66700  0.33300  0.76700  1.0000
  S   S1        1.0  0.66700  0.33300  0.07240  1.0000
  S   S2        1.0  0.33300  0.66700  0.57200  1.0000
  Zn  Zn1       1.0  0.00000  0.00000  0.00419  1.0000
  Zn  Zn2       1.0  0.00000  0.00000  0.50400  1.0000
