data_image0
_chemical_formula_structural       Hf4Mn4Si4
_chemical_formula_sum              "Hf4 Mn4 Si4"
_cell_length_a       6.49584
_cell_length_b       3.66688
_cell_length_c       7.57369
_cell_angle_alpha    90
_cell_angle_beta     90
_cell_angle_gamma    90

_space_group_name_H-M_alt    "P 1"
_space_group_IT_number       1

loop_
  _space_group_symop_operation_xyz
  'x, y, z'

loop_
  _atom_site_type_symbol
  _atom_site_label
  _atom_site_symmetry_multiplicity
  _atom_site_fract_x
  _atom_site_fract_y
  _atom_site_fract_z
  _atom_site_occupancy
  Hf  Hf1       1.0  0.02640  0.25000  0.17900  1.0000
  Hf  Hf2       1.0  0.52600  0.25000  0.32100  1.0000
  Hf  Hf3       1.0  0.47400  0.75000  0.67900  1.0000
  Hf  Hf4       1.0  0.97400  0.75000  0.82100  1.0000
  Mn  Mn1       1.0  0.35800  0.75000  0.06510  1.0000
  Mn  Mn2       1.0  0.85800  0.75000  0.43500  1.0000
  Mn  Mn3       1.0  0.14200  0.25000  0.56500  1.0000
  Mn  Mn4       1.0  0.64200  0.25000  0.93500  1.0000
  Si  Si1       1.0  0.72600  0.75000  0.12300  1.0000
  Si  Si2       1.0  0.22600  0.75000  0.37700  1.0000
  Si  Si3       1.0  0.77400  0.25000  0.62300  1.0000
  Si  Si4       1.0  0.27400  0.25000  0.87700  1.0000
