data_image0
_chemical_formula_structural       Pt4Si4Tb4
_chemical_formula_sum              "Pt4 Si4 Tb4"
_cell_length_a       7.05438
_cell_length_b       4.30488
_cell_length_c       7.4771
_cell_angle_alpha    90
_cell_angle_beta     90
_cell_angle_gamma    90

_space_group_name_H-M_alt    "P 1"
_space_group_IT_number       1

loop_
  _space_group_symop_operation_xyz
  'x, y, z'

loop_
  _atom_site_type_symbol
  _atom_site_label
  _atom_site_symmetry_multiplicity
  _atom_site_fract_x
  _atom_site_fract_y
  _atom_site_fract_z
  _atom_site_occupancy
  Pt  Pt1       1.0  0.19800  0.25000  0.08530  1.0000
  Pt  Pt2       1.0  0.69800  0.25000  0.41500  1.0000
  Pt  Pt3       1.0  0.30200  0.75000  0.58500  1.0000
  Pt  Pt4       1.0  0.80200  0.75000  0.91500  1.0000
  Si  Si1       1.0  0.81400  0.25000  0.08730  1.0000
  Si  Si2       1.0  0.31400  0.25000  0.41300  1.0000
  Si  Si3       1.0  0.68600  0.75000  0.58700  1.0000
  Si  Si4       1.0  0.18600  0.75000  0.91300  1.0000
  Tb  Tb1       1.0  0.50400  0.75000  0.20000  1.0000
  Tb  Tb2       1.0  0.00382  0.75000  0.30000  1.0000
  Tb  Tb3       1.0  0.99600  0.25000  0.70000  1.0000
  Tb  Tb4       1.0  0.49600  0.25000  0.80000  1.0000
