data_image0
_chemical_formula_structural       Mn4O2S2
_chemical_formula_sum              "Mn4 O2 S2"
_cell_length_a       3.58588
_cell_length_b       3.58588
_cell_length_c       11.7493
_cell_angle_alpha    90
_cell_angle_beta     90
_cell_angle_gamma    120

_space_group_name_H-M_alt    "P 1"
_space_group_IT_number       1

loop_
  _space_group_symop_operation_xyz
  'x, y, z'

loop_
  _atom_site_type_symbol
  _atom_site_label
  _atom_site_symmetry_multiplicity
  _atom_site_fract_x
  _atom_site_fract_y
  _atom_site_fract_z
  _atom_site_occupancy
  Mn  Mn1       1.0  0.33300  0.66700  0.26100  1.0000
  Mn  Mn2       1.0  0.00000  0.00000  0.49500  1.0000
  Mn  Mn3       1.0  0.66700  0.33300  0.76100  1.0000
  Mn  Mn4       1.0  0.00000  0.00000  0.99500  1.0000
  O   O1        1.0  0.00000  0.00000  0.32600  1.0000
  O   O2        1.0  0.00000  0.00000  0.82600  1.0000
  S   S1        1.0  0.66700  0.33300  0.10600  1.0000
  S   S2        1.0  0.33300  0.66700  0.60600  1.0000
