data_image0
_chemical_formula_structural       Co4Dy4Si4
_chemical_formula_sum              "Co4 Dy4 Si4"
_cell_length_a       6.89429
_cell_length_b       4.1788
_cell_length_c       6.85757
_cell_angle_alpha    90
_cell_angle_beta     90
_cell_angle_gamma    90

_space_group_name_H-M_alt    "P 1"
_space_group_IT_number       1

loop_
  _space_group_symop_operation_xyz
  'x, y, z'

loop_
  _atom_site_type_symbol
  _atom_site_label
  _atom_site_symmetry_multiplicity
  _atom_site_fract_x
  _atom_site_fract_y
  _atom_site_fract_z
  _atom_site_occupancy
  Co  Co1       1.0  0.14500  0.25000  0.06720  1.0000
  Co  Co2       1.0  0.64500  0.25000  0.43300  1.0000
  Co  Co3       1.0  0.35500  0.75000  0.56700  1.0000
  Co  Co4       1.0  0.85500  0.75000  0.93300  1.0000
  Dy  Dy1       1.0  0.51800  0.75000  0.18700  1.0000
  Dy  Dy2       1.0  0.01830  0.75000  0.31300  1.0000
  Dy  Dy3       1.0  0.98200  0.25000  0.68700  1.0000
  Dy  Dy4       1.0  0.48200  0.25000  0.81300  1.0000
  Si  Si1       1.0  0.80600  0.25000  0.10700  1.0000
  Si  Si2       1.0  0.30600  0.25000  0.39300  1.0000
  Si  Si3       1.0  0.69400  0.75000  0.60700  1.0000
  Si  Si4       1.0  0.19400  0.75000  0.89300  1.0000
