data_image0
_chemical_formula_structural       Er4Mn4Si4
_chemical_formula_sum              "Er4 Mn4 Si4"
_cell_length_a       6.86598
_cell_length_b       4.03081
_cell_length_c       7.61423
_cell_angle_alpha    90
_cell_angle_beta     90
_cell_angle_gamma    90

_space_group_name_H-M_alt    "P 1"
_space_group_IT_number       1

loop_
  _space_group_symop_operation_xyz
  'x, y, z'

loop_
  _atom_site_type_symbol
  _atom_site_label
  _atom_site_symmetry_multiplicity
  _atom_site_fract_x
  _atom_site_fract_y
  _atom_site_fract_z
  _atom_site_occupancy
  Er  Er1       1.0  0.01460  0.25000  0.18600  1.0000
  Er  Er2       1.0  0.51500  0.25000  0.31400  1.0000
  Er  Er3       1.0  0.48500  0.75000  0.68600  1.0000
  Er  Er4       1.0  0.98500  0.75000  0.81400  1.0000
  Mn  Mn1       1.0  0.36000  0.75000  0.06000  1.0000
  Mn  Mn2       1.0  0.86000  0.75000  0.44000  1.0000
  Mn  Mn3       1.0  0.14000  0.25000  0.56000  1.0000
  Mn  Mn4       1.0  0.64000  0.25000  0.94000  1.0000
  Si  Si1       1.0  0.71500  0.75000  0.11100  1.0000
  Si  Si2       1.0  0.21500  0.75000  0.38900  1.0000
  Si  Si3       1.0  0.78500  0.25000  0.61100  1.0000
  Si  Si4       1.0  0.28500  0.25000  0.88900  1.0000
