data_image0
_chemical_formula_structural       Cu4Hf4Si4
_chemical_formula_sum              "Cu4 Hf4 Si4"
_cell_length_a       7.26963
_cell_length_b       6.4421
_cell_length_c       3.88581
_cell_angle_alpha    90
_cell_angle_beta     90
_cell_angle_gamma    90

_space_group_name_H-M_alt    "P 1"
_space_group_IT_number       1

loop_
  _space_group_symop_operation_xyz
  'x, y, z'

loop_
  _atom_site_type_symbol
  _atom_site_label
  _atom_site_symmetry_multiplicity
  _atom_site_fract_x
  _atom_site_fract_y
  _atom_site_fract_z
  _atom_site_occupancy
  Cu  Cu1       1.0  0.57500  0.16600  0.25000  1.0000
  Cu  Cu2       1.0  0.92500  0.66600  0.25000  1.0000
  Cu  Cu3       1.0  0.07550  0.33400  0.75000  1.0000
  Cu  Cu4       1.0  0.42500  0.83400  0.75000  1.0000
  Hf  Hf1       1.0  0.19100  0.01230  0.25000  1.0000
  Hf  Hf2       1.0  0.30900  0.51200  0.25000  1.0000
  Hf  Hf3       1.0  0.69100  0.48800  0.75000  1.0000
  Hf  Hf4       1.0  0.80900  0.98800  0.75000  1.0000
  Si  Si1       1.0  0.89600  0.27700  0.25000  1.0000
  Si  Si2       1.0  0.60400  0.77700  0.25000  1.0000
  Si  Si3       1.0  0.39600  0.22300  0.75000  1.0000
  Si  Si4       1.0  0.10400  0.72300  0.75000  1.0000
