data_image0
_chemical_formula_structural       Cu2Dy2Ge2
_chemical_formula_sum              "Cu2 Dy2 Ge2"
_cell_length_a       4.26498
_cell_length_b       4.26477
_cell_length_c       7.17899
_cell_angle_alpha    90
_cell_angle_beta     90
_cell_angle_gamma    120.002

_space_group_name_H-M_alt    "P 1"
_space_group_IT_number       1

loop_
  _space_group_symop_operation_xyz
  'x, y, z'

loop_
  _atom_site_type_symbol
  _atom_site_label
  _atom_site_symmetry_multiplicity
  _atom_site_fract_x
  _atom_site_fract_y
  _atom_site_fract_z
  _atom_site_occupancy
  Cu  Cu1       1.0  0.33300  0.66700  0.04860  1.0000
  Cu  Cu2       1.0  0.66700  0.33300  0.54900  1.0000
  Dy  Dy1       1.0  0.00000  0.00000  0.25900  1.0000
  Dy  Dy2       1.0  0.00020  0.00040  0.75900  1.0000
  Ge  Ge1       1.0  0.33300  0.66700  0.48500  1.0000
  Ge  Ge2       1.0  0.66700  0.33300  0.98500  1.0000
