data_image0
_chemical_formula_structural       Dy4Mn4Si4
_chemical_formula_sum              "Dy4 Mn4 Si4"
_cell_length_a       6.96433
_cell_length_b       4.08868
_cell_length_c       7.55949
_cell_angle_alpha    90
_cell_angle_beta     90
_cell_angle_gamma    90

_space_group_name_H-M_alt    "P 1"
_space_group_IT_number       1

loop_
  _space_group_symop_operation_xyz
  'x, y, z'

loop_
  _atom_site_type_symbol
  _atom_site_label
  _atom_site_symmetry_multiplicity
  _atom_site_fract_x
  _atom_site_fract_y
  _atom_site_fract_z
  _atom_site_occupancy
  Dy  Dy1       1.0  0.00918  0.25000  0.18600  1.0000
  Dy  Dy2       1.0  0.50900  0.25000  0.31400  1.0000
  Dy  Dy3       1.0  0.49100  0.75000  0.68600  1.0000
  Dy  Dy4       1.0  0.99100  0.75000  0.81400  1.0000
  Mn  Mn1       1.0  0.36200  0.75000  0.05930  1.0000
  Mn  Mn2       1.0  0.86200  0.75000  0.44100  1.0000
  Mn  Mn3       1.0  0.13800  0.25000  0.55900  1.0000
  Mn  Mn4       1.0  0.63800  0.25000  0.94100  1.0000
  Si  Si1       1.0  0.71200  0.75000  0.10900  1.0000
  Si  Si2       1.0  0.21200  0.75000  0.39100  1.0000
  Si  Si3       1.0  0.78800  0.25000  0.60900  1.0000
  Si  Si4       1.0  0.28800  0.25000  0.89100  1.0000
