data_image0
_chemical_formula_structural       Au2Na4
_chemical_formula_sum              "Au2 Na4"
_cell_length_a       5.59285
_cell_length_b       5.86195
_cell_length_c       5.86195
_cell_angle_alpha    103.154
_cell_angle_beta     61.5073
_cell_angle_gamma    118.493

_space_group_name_H-M_alt    "P 1"
_space_group_IT_number       1

loop_
  _space_group_symop_operation_xyz
  'x, y, z'

loop_
  _atom_site_type_symbol
  _atom_site_label
  _atom_site_symmetry_multiplicity
  _atom_site_fract_x
  _atom_site_fract_y
  _atom_site_fract_z
  _atom_site_occupancy
  Au  Au1       1.0  0.25000  0.00000  0.00000  1.0000
  Au  Au2       1.0  0.75000  0.00000  0.00000  1.0000
  Na  Na1       1.0  0.16800  0.50000  0.16300  1.0000
  Na  Na2       1.0  0.33200  0.16300  0.50000  1.0000
  Na  Na3       1.0  0.66800  0.83700  0.50000  1.0000
  Na  Na4       1.0  0.83200  0.50000  0.83700  1.0000
