data_image0
_chemical_formula_structural       Hg4O2S2
_chemical_formula_sum              "Hg4 O2 S2"
_cell_length_a       3.85919
_cell_length_b       3.85967
_cell_length_c       12.419
_cell_angle_alpha    90
_cell_angle_beta     90
_cell_angle_gamma    119.996

_space_group_name_H-M_alt    "P 1"
_space_group_IT_number       1

loop_
  _space_group_symop_operation_xyz
  'x, y, z'

loop_
  _atom_site_type_symbol
  _atom_site_label
  _atom_site_symmetry_multiplicity
  _atom_site_fract_x
  _atom_site_fract_y
  _atom_site_fract_z
  _atom_site_occupancy
  Hg  Hg1       1.0  0.33300  0.66700  0.25800  1.0000
  Hg  Hg2       1.0  0.00000  0.00000  0.49800  1.0000
  Hg  Hg3       1.0  0.66700  0.33300  0.75800  1.0000
  Hg  Hg4       1.0  0.00000  0.00000  0.99800  1.0000
  O   O1        1.0  0.00000  0.00000  0.32200  1.0000
  O   O2        1.0  0.00000  0.00000  0.82200  1.0000
  S   S1        1.0  0.66700  0.33300  0.10900  1.0000
  S   S2        1.0  0.33300  0.66700  0.60900  1.0000
