data_image0
_chemical_formula_structural       Co2O2S2Sn2
_chemical_formula_sum              "Co2 O2 S2 Sn2"
_cell_length_a       3.42665
_cell_length_b       3.42666
_cell_length_c       12.6903
_cell_angle_alpha    90
_cell_angle_beta     90
_cell_angle_gamma    120

_space_group_name_H-M_alt    "P 1"
_space_group_IT_number       1

loop_
  _space_group_symop_operation_xyz
  'x, y, z'

loop_
  _atom_site_type_symbol
  _atom_site_label
  _atom_site_symmetry_multiplicity
  _atom_site_fract_x
  _atom_site_fract_y
  _atom_site_fract_z
  _atom_site_occupancy
  Co  Co1       1.0  0.33300  0.66700  0.25500  1.0000
  Co  Co2       1.0  0.66700  0.33300  0.75500  1.0000
  O   O1        1.0  0.00000  0.00000  0.31500  1.0000
  O   O2        1.0  0.00000  0.00000  0.81500  1.0000
  S   S1        1.0  0.66700  0.33300  0.13300  1.0000
  S   S2        1.0  0.33300  0.66700  0.63300  1.0000
  Sn  Sn1       1.0  0.00000  0.00000  0.48500  1.0000
  Sn  Sn2       1.0  0.00000  0.00000  0.98500  1.0000
