data_image0
_chemical_formula_structural       Ca2Mn2O2S2
_chemical_formula_sum              "Ca2 Mn2 O2 S2"
_cell_length_a       3.72044
_cell_length_b       3.71337
_cell_length_c       12.3326
_cell_angle_alpha    90
_cell_angle_beta     90
_cell_angle_gamma    120.063

_space_group_name_H-M_alt    "P 1"
_space_group_IT_number       1

loop_
  _space_group_symop_operation_xyz
  'x, y, z'

loop_
  _atom_site_type_symbol
  _atom_site_label
  _atom_site_symmetry_multiplicity
  _atom_site_fract_x
  _atom_site_fract_y
  _atom_site_fract_z
  _atom_site_occupancy
  Ca  Ca1       1.0  0.00090  0.00181  0.49400  1.0000
  Ca  Ca2       1.0  0.99900  0.99800  0.99400  1.0000
  Mn  Mn1       1.0  0.33300  0.66600  0.25500  1.0000
  Mn  Mn2       1.0  0.66700  0.33400  0.75500  1.0000
  O   O1        1.0  0.00064  0.00128  0.32000  1.0000
  O   O2        1.0  0.99900  0.99900  0.82000  1.0000
  S   S1        1.0  0.66500  0.33100  0.11800  1.0000
  S   S2        1.0  0.33500  0.66900  0.61800  1.0000
