data_image0
_chemical_formula_structural       Ir2La2P2
_chemical_formula_sum              "Ir2 La2 P2"
_cell_length_a       4.16528
_cell_length_b       4.16528
_cell_length_c       7.75346
_cell_angle_alpha    105.581
_cell_angle_beta     105.581
_cell_angle_gamma    90

_space_group_name_H-M_alt    "P 1"
_space_group_IT_number       1

loop_
  _space_group_symop_operation_xyz
  'x, y, z'

loop_
  _atom_site_type_symbol
  _atom_site_label
  _atom_site_symmetry_multiplicity
  _atom_site_fract_x
  _atom_site_fract_y
  _atom_site_fract_z
  _atom_site_occupancy
  Ir  Ir1       1.0  0.66200  0.16200  0.32500  1.0000
  Ir  Ir2       1.0  0.41200  0.41200  0.82500  1.0000
  La  La1       1.0  0.00006  0.00006  0.00011  1.0000
  La  La2       1.0  0.25000  0.75000  0.50000  1.0000
  P   P1        1.0  0.58000  0.58000  0.16000  1.0000
  P   P2        1.0  0.83000  0.33000  0.66000  1.0000
