data_image0
_chemical_formula_structural       Ba4F4O2
_chemical_formula_sum              "Ba4 F4 O2"
_cell_length_a       7.59593
_cell_length_b       7.59593
_cell_length_c       8.29779
_cell_angle_alpha    117.239
_cell_angle_beta     117.239
_cell_angle_gamma    90

_space_group_name_H-M_alt    "P 1"
_space_group_IT_number       1

loop_
  _space_group_symop_operation_xyz
  'x, y, z'

loop_
  _atom_site_type_symbol
  _atom_site_label
  _atom_site_symmetry_multiplicity
  _atom_site_fract_x
  _atom_site_fract_y
  _atom_site_fract_z
  _atom_site_occupancy
  Ba  Ba1       1.0  0.00000  0.00000  0.00000  1.0000
  Ba  Ba2       1.0  0.00000  0.50000  0.00000  1.0000
  Ba  Ba3       1.0  0.00000  0.00000  0.50000  1.0000
  Ba  Ba4       1.0  0.50000  0.00000  0.50000  1.0000
  F   F1        1.0  0.61500  0.86500  0.23000  1.0000
  F   F2        1.0  0.13500  0.38500  0.27000  1.0000
  F   F3        1.0  0.86500  0.61500  0.73000  1.0000
  F   F4        1.0  0.38500  0.13500  0.77000  1.0000
  O   O1        1.0  0.12500  0.87500  0.25000  1.0000
  O   O2        1.0  0.87500  0.12500  0.75000  1.0000
