data_image0
_chemical_formula_structural       F4Fe4O2
_chemical_formula_sum              "F4 Fe4 O2"
_cell_length_a       5.81073
_cell_length_b       5.81073
_cell_length_c       6.43949
_cell_angle_alpha    116.819
_cell_angle_beta     116.819
_cell_angle_gamma    90

_space_group_name_H-M_alt    "P 1"
_space_group_IT_number       1

loop_
  _space_group_symop_operation_xyz
  'x, y, z'

loop_
  _atom_site_type_symbol
  _atom_site_label
  _atom_site_symmetry_multiplicity
  _atom_site_fract_x
  _atom_site_fract_y
  _atom_site_fract_z
  _atom_site_occupancy
  F   F1        1.0  0.60900  0.85900  0.21900  1.0000
  F   F2        1.0  0.14100  0.39100  0.28100  1.0000
  F   F3        1.0  0.85900  0.60900  0.71900  1.0000
  F   F4        1.0  0.39100  0.14100  0.78100  1.0000
  Fe  Fe1       1.0  0.00000  0.00000  0.00000  1.0000
  Fe  Fe2       1.0  0.00000  0.50000  0.00000  1.0000
  Fe  Fe3       1.0  0.00000  0.00000  0.50000  1.0000
  Fe  Fe4       1.0  0.50000  0.00000  0.50000  1.0000
  O   O1        1.0  0.12500  0.87500  0.25000  1.0000
  O   O2        1.0  0.87500  0.12500  0.75000  1.0000
