data_image0
_chemical_formula_structural       As6Ca6Pt6
_chemical_formula_sum              "As6 Ca6 Pt6"
_cell_length_a       4.19199
_cell_length_b       4.19199
_cell_length_c       22.4098
_cell_angle_alpha    95.3667
_cell_angle_beta     95.3667
_cell_angle_gamma    90

_space_group_name_H-M_alt    "P 1"
_space_group_IT_number       1

loop_
  _space_group_symop_operation_xyz
  'x, y, z'

loop_
  _atom_site_type_symbol
  _atom_site_label
  _atom_site_symmetry_multiplicity
  _atom_site_fract_x
  _atom_site_fract_y
  _atom_site_fract_z
  _atom_site_occupancy
  As  As1       1.0  0.52700  0.52700  0.05400  1.0000
  As  As2       1.0  0.61000  0.11000  0.22000  1.0000
  As  As3       1.0  0.69300  0.69300  0.38700  1.0000
  As  As4       1.0  0.77700  0.27700  0.55400  1.0000
  As  As5       1.0  0.36000  0.36000  0.72000  1.0000
  As  As6       1.0  0.94300  0.44300  0.88700  1.0000
  Ca  Ca1       1.0  0.00000  0.00000  0.99900  1.0000
  Ca  Ca2       1.0  0.08300  0.58300  0.16600  1.0000
  Ca  Ca3       1.0  0.16600  0.16600  0.33200  1.0000
  Ca  Ca4       1.0  0.25000  0.75000  0.49900  1.0000
  Ca  Ca5       1.0  0.83300  0.83300  0.66600  1.0000
  Ca  Ca6       1.0  0.41600  0.91600  0.83200  1.0000
  Pt  Pt1       1.0  0.55500  0.05470  0.10900  1.0000
  Pt  Pt2       1.0  0.63800  0.63800  0.27700  1.0000
  Pt  Pt3       1.0  0.72200  0.22200  0.44400  1.0000
  Pt  Pt4       1.0  0.30500  0.30500  0.60900  1.0000
  Pt  Pt5       1.0  0.88800  0.38800  0.77700  1.0000
  Pt  Pt6       1.0  0.47200  0.47200  0.94400  1.0000
