data_image0
_chemical_formula_structural       As2Ti2Zr2
_chemical_formula_sum              "As2 Ti2 Zr2"
_cell_length_a       3.78255
_cell_length_b       3.78255
_cell_length_c       7.91941
_cell_angle_alpha    103.817
_cell_angle_beta     103.817
_cell_angle_gamma    90

_space_group_name_H-M_alt    "P 1"
_space_group_IT_number       1

loop_
  _space_group_symop_operation_xyz
  'x, y, z'

loop_
  _atom_site_type_symbol
  _atom_site_label
  _atom_site_symmetry_multiplicity
  _atom_site_fract_x
  _atom_site_fract_y
  _atom_site_fract_z
  _atom_site_occupancy
  As  As1       1.0  0.12900  0.12900  0.25900  1.0000
  As  As2       1.0  0.87100  0.87100  0.74100  1.0000
  Ti  Ti1       1.0  0.50000  0.00000  0.00000  1.0000
  Ti  Ti2       1.0  0.00000  0.50000  0.00000  1.0000
  Zr  Zr1       1.0  0.67900  0.67900  0.35800  1.0000
  Zr  Zr2       1.0  0.32100  0.32100  0.64200  1.0000
