data_image0
_chemical_formula_structural       F4O2Sn4
_chemical_formula_sum              "F4 O2 Sn4"
_cell_length_a       5.0355
_cell_length_b       5.90341
_cell_length_c       5.90341
_cell_angle_alpha    80.6064
_cell_angle_beta     83.186
_cell_angle_gamma    83.186

_space_group_name_H-M_alt    "P 1"
_space_group_IT_number       1

loop_
  _space_group_symop_operation_xyz
  'x, y, z'

loop_
  _atom_site_type_symbol
  _atom_site_label
  _atom_site_symmetry_multiplicity
  _atom_site_fract_x
  _atom_site_fract_y
  _atom_site_fract_z
  _atom_site_occupancy
  F   F1        1.0  0.20500  0.51600  0.13200  1.0000
  F   F2        1.0  0.79500  0.86800  0.48400  1.0000
  F   F3        1.0  0.20500  0.13200  0.51600  1.0000
  F   F4        1.0  0.79500  0.48400  0.86800  1.0000
  O   O1        1.0  0.69700  0.38700  0.38700  1.0000
  O   O2        1.0  0.30300  0.61300  0.61300  1.0000
  Sn  Sn1       1.0  0.99200  0.20100  0.20100  1.0000
  Sn  Sn2       1.0  0.50000  0.71800  0.28200  1.0000
  Sn  Sn3       1.0  0.50000  0.28200  0.71800  1.0000
  Sn  Sn4       1.0  0.00787  0.79900  0.79900  1.0000
