data_image0
_chemical_formula_structural       F8O4Sm8
_chemical_formula_sum              "F8 O4 Sm8"
_cell_length_a       7.89553
_cell_length_b       7.89553
_cell_length_c       5.54516
_cell_angle_alpha    90
_cell_angle_beta     90
_cell_angle_gamma    90

_space_group_name_H-M_alt    "P 1"
_space_group_IT_number       1

loop_
  _space_group_symop_operation_xyz
  'x, y, z'

loop_
  _atom_site_type_symbol
  _atom_site_label
  _atom_site_symmetry_multiplicity
  _atom_site_fract_x
  _atom_site_fract_y
  _atom_site_fract_z
  _atom_site_occupancy
  F   F1        1.0  0.50100  0.00115  0.25000  1.0000
  F   F2        1.0  0.99900  0.00115  0.25000  1.0000
  F   F3        1.0  0.50100  0.49900  0.25000  1.0000
  F   F4        1.0  0.99900  0.49900  0.25000  1.0000
  F   F5        1.0  0.00115  0.50100  0.75000  1.0000
  F   F6        1.0  0.49900  0.50100  0.75000  1.0000
  F   F7        1.0  0.00115  0.99900  0.75000  1.0000
  F   F8        1.0  0.49900  0.99900  0.75000  1.0000
  O   O1        1.0  0.75000  0.75000  0.24900  1.0000
  O   O2        1.0  0.25000  0.25000  0.25100  1.0000
  O   O3        1.0  0.75000  0.75000  0.74900  1.0000
  O   O4        1.0  0.25000  0.25000  0.75100  1.0000
  Sm  Sm1       1.0  0.25000  0.01560  0.00180  1.0000
  Sm  Sm2       1.0  0.25000  0.48400  0.00180  1.0000
  Sm  Sm3       1.0  0.51600  0.75000  0.49800  1.0000
  Sm  Sm4       1.0  0.98400  0.75000  0.49800  1.0000
  Sm  Sm5       1.0  0.01560  0.25000  0.50200  1.0000
  Sm  Sm6       1.0  0.48400  0.25000  0.50200  1.0000
  Sm  Sm7       1.0  0.75000  0.51600  0.99800  1.0000
  Sm  Sm8       1.0  0.75000  0.98400  0.99800  1.0000
