data_image0
_chemical_formula_structural       Eu4F4O2
_chemical_formula_sum              "Eu4 F4 O2"
_cell_length_a       6.84798
_cell_length_b       6.84798
_cell_length_c       7.57836
_cell_angle_alpha    116.86
_cell_angle_beta     116.86
_cell_angle_gamma    90

_space_group_name_H-M_alt    "P 1"
_space_group_IT_number       1

loop_
  _space_group_symop_operation_xyz
  'x, y, z'

loop_
  _atom_site_type_symbol
  _atom_site_label
  _atom_site_symmetry_multiplicity
  _atom_site_fract_x
  _atom_site_fract_y
  _atom_site_fract_z
  _atom_site_occupancy
  Eu  Eu1       1.0  0.00000  0.00000  0.00000  1.0000
  Eu  Eu2       1.0  0.00000  0.50000  0.00000  1.0000
  Eu  Eu3       1.0  0.00000  0.00000  0.50000  1.0000
  Eu  Eu4       1.0  0.50000  0.00000  0.50000  1.0000
  F   F1        1.0  0.61800  0.86800  0.23700  1.0000
  F   F2        1.0  0.13200  0.38200  0.26300  1.0000
  F   F3        1.0  0.86800  0.61800  0.73700  1.0000
  F   F4        1.0  0.38200  0.13200  0.76300  1.0000
  O   O1        1.0  0.12500  0.87500  0.25000  1.0000
  O   O2        1.0  0.87500  0.12500  0.75000  1.0000
