data_image0
_chemical_formula_structural       F4Ni4O2
_chemical_formula_sum              "F4 Ni4 O2"
_cell_length_a       5.61864
_cell_length_b       5.61864
_cell_length_c       6.17517
_cell_angle_alpha    117.061
_cell_angle_beta     117.061
_cell_angle_gamma    90

_space_group_name_H-M_alt    "P 1"
_space_group_IT_number       1

loop_
  _space_group_symop_operation_xyz
  'x, y, z'

loop_
  _atom_site_type_symbol
  _atom_site_label
  _atom_site_symmetry_multiplicity
  _atom_site_fract_x
  _atom_site_fract_y
  _atom_site_fract_z
  _atom_site_occupancy
  F   F1        1.0  0.60000  0.85000  0.20100  1.0000
  F   F2        1.0  0.15000  0.40000  0.29900  1.0000
  F   F3        1.0  0.85000  0.60000  0.70100  1.0000
  F   F4        1.0  0.40000  0.15000  0.79900  1.0000
  Ni  Ni1       1.0  0.00000  0.00000  0.00000  1.0000
  Ni  Ni2       1.0  0.00000  0.50000  0.00000  1.0000
  Ni  Ni3       1.0  0.00000  0.00000  0.50000  1.0000
  Ni  Ni4       1.0  0.50000  0.00000  0.50000  1.0000
  O   O1        1.0  0.12500  0.87500  0.25000  1.0000
  O   O2        1.0  0.87500  0.12500  0.75000  1.0000
