data_image0
_chemical_formula_structural       CeCu2LiP2
_chemical_formula_sum              "Ce1 Cu2 Li1 P2"
_cell_length_a       4.04066
_cell_length_b       4.04066
_cell_length_c       6.77961
_cell_angle_alpha    90
_cell_angle_beta     90.0006
_cell_angle_gamma    120

_space_group_name_H-M_alt    "P 1"
_space_group_IT_number       1

loop_
  _space_group_symop_operation_xyz
  'x, y, z'

loop_
  _atom_site_type_symbol
  _atom_site_label
  _atom_site_symmetry_multiplicity
  _atom_site_fract_x
  _atom_site_fract_y
  _atom_site_fract_z
  _atom_site_occupancy
  Ce  Ce1       1.0  0.00000  0.00000  0.00000  1.0000
  Cu  Cu1       1.0  0.66700  0.33300  0.34300  1.0000
  Cu  Cu2       1.0  0.33300  0.66700  0.65700  1.0000
  Li  Li1       1.0  0.00000  0.00000  0.50000  1.0000
  P   P1        1.0  0.33300  0.66700  0.27600  1.0000
  P   P2        1.0  0.66700  0.33300  0.72400  1.0000
