data_image0
_chemical_formula_structural       F4O2Pt4
_chemical_formula_sum              "F4 O2 Pt4"
_cell_length_a       6.16401
_cell_length_b       6.16401
_cell_length_c       6.59096
_cell_angle_alpha    117.879
_cell_angle_beta     117.879
_cell_angle_gamma    90

_space_group_name_H-M_alt    "P 1"
_space_group_IT_number       1

loop_
  _space_group_symop_operation_xyz
  'x, y, z'

loop_
  _atom_site_type_symbol
  _atom_site_label
  _atom_site_symmetry_multiplicity
  _atom_site_fract_x
  _atom_site_fract_y
  _atom_site_fract_z
  _atom_site_occupancy
  F   F1        1.0  0.61300  0.86300  0.22500  1.0000
  F   F2        1.0  0.13700  0.38700  0.27500  1.0000
  F   F3        1.0  0.86300  0.61300  0.72500  1.0000
  F   F4        1.0  0.38700  0.13700  0.77500  1.0000
  O   O1        1.0  0.12500  0.87500  0.25000  1.0000
  O   O2        1.0  0.87500  0.12500  0.75000  1.0000
  Pt  Pt1       1.0  0.00000  0.00000  0.00000  1.0000
  Pt  Pt2       1.0  0.00000  0.50000  0.00000  1.0000
  Pt  Pt3       1.0  0.00000  0.00000  0.50000  1.0000
  Pt  Pt4       1.0  0.50000  0.00000  0.50000  1.0000
