data_image0
_chemical_formula_structural       Co4F4O2
_chemical_formula_sum              "Co4 F4 O2"
_cell_length_a       5.71905
_cell_length_b       5.71905
_cell_length_c       6.3297
_cell_angle_alpha    116.857
_cell_angle_beta     116.857
_cell_angle_gamma    90

_space_group_name_H-M_alt    "P 1"
_space_group_IT_number       1

loop_
  _space_group_symop_operation_xyz
  'x, y, z'

loop_
  _atom_site_type_symbol
  _atom_site_label
  _atom_site_symmetry_multiplicity
  _atom_site_fract_x
  _atom_site_fract_y
  _atom_site_fract_z
  _atom_site_occupancy
  Co  Co1       1.0  0.00000  0.00000  0.00000  1.0000
  Co  Co2       1.0  0.00000  0.50000  0.00000  1.0000
  Co  Co3       1.0  0.00000  0.00000  0.50000  1.0000
  Co  Co4       1.0  0.50000  0.00000  0.50000  1.0000
  F   F1        1.0  0.60600  0.85600  0.21300  1.0000
  F   F2        1.0  0.14400  0.39400  0.28700  1.0000
  F   F3        1.0  0.85600  0.60600  0.71300  1.0000
  F   F4        1.0  0.39400  0.14400  0.78700  1.0000
  O   O1        1.0  0.12500  0.87500  0.25000  1.0000
  O   O2        1.0  0.87500  0.12500  0.75000  1.0000
