data_image0
_chemical_formula_structural       Gd4Ir2Mg2O12
_chemical_formula_sum              "Gd4 Ir2 Mg2 O12"
_cell_length_a       5.31932
_cell_length_b       5.69463
_cell_length_c       7.65687
_cell_angle_alpha    90
_cell_angle_beta     89.6334
_cell_angle_gamma    90

_space_group_name_H-M_alt    "P 1"
_space_group_IT_number       1

loop_
  _space_group_symop_operation_xyz
  'x, y, z'

loop_
  _atom_site_type_symbol
  _atom_site_label
  _atom_site_symmetry_multiplicity
  _atom_site_fract_x
  _atom_site_fract_y
  _atom_site_fract_z
  _atom_site_occupancy
  Gd  Gd1       1.0  0.02260  0.57300  0.24900  1.0000
  Gd  Gd2       1.0  0.47700  0.07270  0.25100  1.0000
  Gd  Gd3       1.0  0.52300  0.92700  0.74900  1.0000
  Gd  Gd4       1.0  0.97700  0.42700  0.75100  1.0000
  Ir  Ir1       1.0  0.50000  0.50000  0.00000  1.0000
  Ir  Ir2       1.0  0.00000  0.00000  0.50000  1.0000
  Mg  Mg1       1.0  0.00000  0.00000  0.00000  1.0000
  Mg  Mg2       1.0  0.50000  0.50000  0.50000  1.0000
  O   O1        1.0  0.19000  0.30300  0.05670  1.0000
  O   O2        1.0  0.31400  0.80300  0.05730  1.0000
  O   O3        1.0  0.61500  0.46100  0.24900  1.0000
  O   O4        1.0  0.88500  0.96100  0.25100  1.0000
  O   O5        1.0  0.18600  0.30300  0.44300  1.0000
  O   O6        1.0  0.31000  0.80300  0.44300  1.0000
  O   O7        1.0  0.69000  0.19700  0.55700  1.0000
  O   O8        1.0  0.81400  0.69700  0.55700  1.0000
  O   O9        1.0  0.11500  0.03860  0.74900  1.0000
  O   O10       1.0  0.38500  0.53900  0.75100  1.0000
  O   O11       1.0  0.68600  0.19700  0.94300  1.0000
  O   O12       1.0  0.81000  0.69700  0.94300  1.0000
