data_image0
_chemical_formula_structural       Ca4F4O2
_chemical_formula_sum              "Ca4 F4 O2"
_cell_length_a       6.45385
_cell_length_b       6.45385
_cell_length_c       7.33253
_cell_angle_alpha    116.109
_cell_angle_beta     116.109
_cell_angle_gamma    90

_space_group_name_H-M_alt    "P 1"
_space_group_IT_number       1

loop_
  _space_group_symop_operation_xyz
  'x, y, z'

loop_
  _atom_site_type_symbol
  _atom_site_label
  _atom_site_symmetry_multiplicity
  _atom_site_fract_x
  _atom_site_fract_y
  _atom_site_fract_z
  _atom_site_occupancy
  Ca  Ca1       1.0  0.00000  0.00000  0.00000  1.0000
  Ca  Ca2       1.0  0.00000  0.50000  0.00000  1.0000
  Ca  Ca3       1.0  0.00000  0.00000  0.50000  1.0000
  Ca  Ca4       1.0  0.50000  0.00000  0.50000  1.0000
  F   F1        1.0  0.61600  0.86600  0.23300  1.0000
  F   F2        1.0  0.13400  0.38400  0.26700  1.0000
  F   F3        1.0  0.86600  0.61600  0.73300  1.0000
  F   F4        1.0  0.38400  0.13400  0.76700  1.0000
  O   O1        1.0  0.12500  0.87500  0.25000  1.0000
  O   O2        1.0  0.87500  0.12500  0.75000  1.0000
