data_image0
_chemical_formula_structural       F8Ge8O4
_chemical_formula_sum              "F8 Ge8 O4"
_cell_length_a       7.22585
_cell_length_b       7.22585
_cell_length_c       5.30038
_cell_angle_alpha    90
_cell_angle_beta     90
_cell_angle_gamma    90

_space_group_name_H-M_alt    "P 1"
_space_group_IT_number       1

loop_
  _space_group_symop_operation_xyz
  'x, y, z'

loop_
  _atom_site_type_symbol
  _atom_site_label
  _atom_site_symmetry_multiplicity
  _atom_site_fract_x
  _atom_site_fract_y
  _atom_site_fract_z
  _atom_site_occupancy
  F   F1        1.0  0.55900  0.05870  0.25000  1.0000
  F   F2        1.0  0.94100  0.05870  0.25000  1.0000
  F   F3        1.0  0.55900  0.44100  0.25000  1.0000
  F   F4        1.0  0.94100  0.44100  0.25000  1.0000
  F   F5        1.0  0.05870  0.55900  0.75000  1.0000
  F   F6        1.0  0.44100  0.55900  0.75000  1.0000
  F   F7        1.0  0.05870  0.94100  0.75000  1.0000
  F   F8        1.0  0.44100  0.94100  0.75000  1.0000
  Ge  Ge1       1.0  0.25000  0.01890  0.05590  1.0000
  Ge  Ge2       1.0  0.25000  0.48100  0.05590  1.0000
  Ge  Ge3       1.0  0.51900  0.75000  0.44400  1.0000
  Ge  Ge4       1.0  0.98100  0.75000  0.44400  1.0000
  Ge  Ge5       1.0  0.01890  0.25000  0.55600  1.0000
  Ge  Ge6       1.0  0.48100  0.25000  0.55600  1.0000
  Ge  Ge7       1.0  0.75000  0.51900  0.94400  1.0000
  Ge  Ge8       1.0  0.75000  0.98100  0.94400  1.0000
  O   O1        1.0  0.75000  0.75000  0.10900  1.0000
  O   O2        1.0  0.25000  0.25000  0.39100  1.0000
  O   O3        1.0  0.75000  0.75000  0.60900  1.0000
  O   O4        1.0  0.25000  0.25000  0.89100  1.0000
