data_image0
_chemical_formula_structural       Mg4Ni8P4
_chemical_formula_sum              "Mg4 Ni8 P4"
_cell_length_a       6.43867
_cell_length_b       6.35117
_cell_length_c       5.01042
_cell_angle_alpha    90
_cell_angle_beta     90
_cell_angle_gamma    90

_space_group_name_H-M_alt    "P 1"
_space_group_IT_number       1

loop_
  _space_group_symop_operation_xyz
  'x, y, z'

loop_
  _atom_site_type_symbol
  _atom_site_label
  _atom_site_symmetry_multiplicity
  _atom_site_fract_x
  _atom_site_fract_y
  _atom_site_fract_z
  _atom_site_occupancy
  Mg  Mg1       1.0  0.48200  0.75000  0.12600  1.0000
  Mg  Mg2       1.0  0.98200  0.75000  0.37400  1.0000
  Mg  Mg3       1.0  0.01840  0.25000  0.62600  1.0000
  Mg  Mg4       1.0  0.51800  0.25000  0.87400  1.0000
  Ni  Ni1       1.0  0.17600  0.05270  0.10100  1.0000
  Ni  Ni2       1.0  0.17600  0.44700  0.10100  1.0000
  Ni  Ni3       1.0  0.67600  0.05270  0.39900  1.0000
  Ni  Ni4       1.0  0.67600  0.44700  0.39900  1.0000
  Ni  Ni5       1.0  0.32400  0.55300  0.60100  1.0000
  Ni  Ni6       1.0  0.32400  0.94700  0.60100  1.0000
  Ni  Ni7       1.0  0.82400  0.55300  0.89900  1.0000
  Ni  Ni8       1.0  0.82400  0.94700  0.89900  1.0000
  P   P1        1.0  0.87400  0.25000  0.12300  1.0000
  P   P2        1.0  0.37400  0.25000  0.37700  1.0000
  P   P3        1.0  0.62600  0.75000  0.62300  1.0000
  P   P4        1.0  0.12600  0.75000  0.87700  1.0000
