data_image0
_chemical_formula_structural       N2O2Sc2Zn2
_chemical_formula_sum              "N2 O2 Sc2 Zn2"
_cell_length_a       3.50264
_cell_length_b       5.12182
_cell_length_c       5.71327
_cell_angle_alpha    90
_cell_angle_beta     90
_cell_angle_gamma    90

_space_group_name_H-M_alt    "P 1"
_space_group_IT_number       1

loop_
  _space_group_symop_operation_xyz
  'x, y, z'

loop_
  _atom_site_type_symbol
  _atom_site_label
  _atom_site_symmetry_multiplicity
  _atom_site_fract_x
  _atom_site_fract_y
  _atom_site_fract_z
  _atom_site_occupancy
  N   N1        1.0  0.00000  0.89500  0.33200  1.0000
  N   N2        1.0  0.00000  0.39500  0.66800  1.0000
  O   O1        1.0  0.50000  0.39100  0.16000  1.0000
  O   O2        1.0  0.50000  0.89100  0.84000  1.0000
  Sc  Sc1       1.0  0.00000  0.48700  0.31800  1.0000
  Sc  Sc2       1.0  0.00000  0.98700  0.68200  1.0000
  Zn  Zn1       1.0  0.50000  0.98000  0.19200  1.0000
  Zn  Zn2       1.0  0.50000  0.48000  0.80800  1.0000
