data_image0
_chemical_formula_structural       Bi2N2Ni2O2
_chemical_formula_sum              "Bi2 N2 Ni2 O2"
_cell_length_a       3.61239
_cell_length_b       5.87555
_cell_length_c       5.59553
_cell_angle_alpha    90
_cell_angle_beta     90
_cell_angle_gamma    90

_space_group_name_H-M_alt    "P 1"
_space_group_IT_number       1

loop_
  _space_group_symop_operation_xyz
  'x, y, z'

loop_
  _atom_site_type_symbol
  _atom_site_label
  _atom_site_symmetry_multiplicity
  _atom_site_fract_x
  _atom_site_fract_y
  _atom_site_fract_z
  _atom_site_occupancy
  Bi  Bi1       1.0  0.00000  0.52600  0.26500  1.0000
  Bi  Bi2       1.0  0.00000  0.02570  0.73500  1.0000
  N   N1        1.0  0.00000  0.91500  0.36200  1.0000
  N   N2        1.0  0.00000  0.41500  0.63800  1.0000
  Ni  Ni1       1.0  0.50000  0.99400  0.21600  1.0000
  Ni  Ni2       1.0  0.50000  0.49400  0.78400  1.0000
  O   O1        1.0  0.50000  0.31900  0.09810  1.0000
  O   O2        1.0  0.50000  0.81900  0.90200  1.0000
