data_image0
_chemical_formula_structural       In2N2O2Zn2
_chemical_formula_sum              "In2 N2 O2 Zn2"
_cell_length_a       3.44657
_cell_length_b       5.49962
_cell_length_c       5.85084
_cell_angle_alpha    90
_cell_angle_beta     90
_cell_angle_gamma    90

_space_group_name_H-M_alt    "P 1"
_space_group_IT_number       1

loop_
  _space_group_symop_operation_xyz
  'x, y, z'

loop_
  _atom_site_type_symbol
  _atom_site_label
  _atom_site_symmetry_multiplicity
  _atom_site_fract_x
  _atom_site_fract_y
  _atom_site_fract_z
  _atom_site_occupancy
  In  In1       1.0  0.00000  0.50400  0.33600  1.0000
  In  In2       1.0  0.00000  0.00407  0.66400  1.0000
  N   N1        1.0  0.00000  0.89000  0.31500  1.0000
  N   N2        1.0  0.00000  0.39000  0.68500  1.0000
  O   O1        1.0  0.50000  0.37000  0.15800  1.0000
  O   O2        1.0  0.50000  0.87000  0.84200  1.0000
  Zn  Zn1       1.0  0.50000  0.99000  0.17500  1.0000
  Zn  Zn2       1.0  0.50000  0.49000  0.82500  1.0000
