data_image0
_chemical_formula_structural       La2Mn2N2O2
_chemical_formula_sum              "La2 Mn2 N2 O2"
_cell_length_a       3.98258
_cell_length_b       5.51492
_cell_length_c       5.95871
_cell_angle_alpha    90
_cell_angle_beta     90
_cell_angle_gamma    90

_space_group_name_H-M_alt    "P 1"
_space_group_IT_number       1

loop_
  _space_group_symop_operation_xyz
  'x, y, z'

loop_
  _atom_site_type_symbol
  _atom_site_label
  _atom_site_symmetry_multiplicity
  _atom_site_fract_x
  _atom_site_fract_y
  _atom_site_fract_z
  _atom_site_occupancy
  La  La1       1.0  0.00000  0.48200  0.28200  1.0000
  La  La2       1.0  0.00000  0.98200  0.71800  1.0000
  Mn  Mn1       1.0  0.50000  0.98400  0.21100  1.0000
  Mn  Mn2       1.0  0.50000  0.48400  0.78900  1.0000
  N   N1        1.0  0.00000  0.93400  0.32300  1.0000
  N   N2        1.0  0.00000  0.43400  0.67700  1.0000
  O   O1        1.0  0.50000  0.35300  0.12200  1.0000
  O   O2        1.0  0.50000  0.85300  0.87800  1.0000
