data_image0
_chemical_formula_structural       Fe2N2O2Tl2
_chemical_formula_sum              "Fe2 N2 O2 Tl2"
_cell_length_a       3.5186
_cell_length_b       5.7386
_cell_length_c       6.00815
_cell_angle_alpha    90
_cell_angle_beta     90
_cell_angle_gamma    90

_space_group_name_H-M_alt    "P 1"
_space_group_IT_number       1

loop_
  _space_group_symop_operation_xyz
  'x, y, z'

loop_
  _atom_site_type_symbol
  _atom_site_label
  _atom_site_symmetry_multiplicity
  _atom_site_fract_x
  _atom_site_fract_y
  _atom_site_fract_z
  _atom_site_occupancy
  Fe  Fe1       1.0  0.50000  0.99300  0.14800  1.0000
  Fe  Fe2       1.0  0.50000  0.49300  0.85200  1.0000
  N   N1        1.0  0.00000  0.89800  0.29200  1.0000
  N   N2        1.0  0.00000  0.39800  0.70800  1.0000
  O   O1        1.0  0.50000  0.34700  0.15700  1.0000
  O   O2        1.0  0.50000  0.84700  0.84300  1.0000
  Tl  Tl1       1.0  0.00000  0.51600  0.35200  1.0000
  Tl  Tl2       1.0  0.00000  0.01580  0.64800  1.0000
