data_image0
_chemical_formula_structural       H2Rb2S2
_chemical_formula_sum              "H2 Rb2 S2"
_cell_length_a       4.54759
_cell_length_b       5.1503
_cell_length_c       6.88937
_cell_angle_alpha    90
_cell_angle_beta     101.88
_cell_angle_gamma    90

_space_group_name_H-M_alt    "P 1"
_space_group_IT_number       1

loop_
  _space_group_symop_operation_xyz
  'x, y, z'

loop_
  _atom_site_type_symbol
  _atom_site_label
  _atom_site_symmetry_multiplicity
  _atom_site_fract_x
  _atom_site_fract_y
  _atom_site_fract_z
  _atom_site_occupancy
  H   H1        1.0  0.52400  0.25000  0.39500  1.0000
  H   H2        1.0  0.47600  0.75000  0.60500  1.0000
  Rb  Rb1       1.0  0.76800  0.75000  0.23700  1.0000
  Rb  Rb2       1.0  0.23200  0.25000  0.76300  1.0000
  S   S1        1.0  0.26400  0.25000  0.25800  1.0000
  S   S2        1.0  0.73600  0.75000  0.74200  1.0000
