data_image0
_chemical_formula_structural       F4Mn4O2
_chemical_formula_sum              "F4 Mn4 O2"
_cell_length_a       5.8721
_cell_length_b       5.8721
_cell_length_c       6.66578
_cell_angle_alpha    116.134
_cell_angle_beta     116.134
_cell_angle_gamma    90

_space_group_name_H-M_alt    "P 1"
_space_group_IT_number       1

loop_
  _space_group_symop_operation_xyz
  'x, y, z'

loop_
  _atom_site_type_symbol
  _atom_site_label
  _atom_site_symmetry_multiplicity
  _atom_site_fract_x
  _atom_site_fract_y
  _atom_site_fract_z
  _atom_site_occupancy
  F   F1        1.0  0.60600  0.85600  0.21200  1.0000
  F   F2        1.0  0.14400  0.39400  0.28800  1.0000
  F   F3        1.0  0.85600  0.60600  0.71200  1.0000
  F   F4        1.0  0.39400  0.14400  0.78800  1.0000
  Mn  Mn1       1.0  0.00000  0.00000  0.00000  1.0000
  Mn  Mn2       1.0  0.00000  0.50000  0.00000  1.0000
  Mn  Mn3       1.0  0.50000  0.00000  0.50000  1.0000
  Mn  Mn4       1.0  0.00000  0.00000  0.50000  1.0000
  O   O1        1.0  0.12500  0.87500  0.25000  1.0000
  O   O2        1.0  0.87500  0.12500  0.75000  1.0000
