data_image0
_chemical_formula_structural       Bi2Fe2N2O2
_chemical_formula_sum              "Bi2 Fe2 N2 O2"
_cell_length_a       3.68653
_cell_length_b       5.86296
_cell_length_c       5.62037
_cell_angle_alpha    90
_cell_angle_beta     90
_cell_angle_gamma    90

_space_group_name_H-M_alt    "P 1"
_space_group_IT_number       1

loop_
  _space_group_symop_operation_xyz
  'x, y, z'

loop_
  _atom_site_type_symbol
  _atom_site_label
  _atom_site_symmetry_multiplicity
  _atom_site_fract_x
  _atom_site_fract_y
  _atom_site_fract_z
  _atom_site_occupancy
  Bi  Bi1       1.0  0.00000  0.52400  0.25700  1.0000
  Bi  Bi2       1.0  0.00000  0.02450  0.74300  1.0000
  Fe  Fe1       1.0  0.50000  0.99100  0.23500  1.0000
  Fe  Fe2       1.0  0.50000  0.49100  0.76500  1.0000
  N   N1        1.0  0.00000  0.91900  0.36900  1.0000
  N   N2        1.0  0.00000  0.41900  0.63100  1.0000
  O   O1        1.0  0.50000  0.31900  0.10600  1.0000
  O   O2        1.0  0.50000  0.81900  0.89400  1.0000
