data_image0
_chemical_formula_structural       Fe2N2O2Sr2
_chemical_formula_sum              "Fe2 N2 O2 Sr2"
_cell_length_a       3.56066
_cell_length_b       5.73347
_cell_length_c       5.9706
_cell_angle_alpha    90
_cell_angle_beta     90
_cell_angle_gamma    90

_space_group_name_H-M_alt    "P 1"
_space_group_IT_number       1

loop_
  _space_group_symop_operation_xyz
  'x, y, z'

loop_
  _atom_site_type_symbol
  _atom_site_label
  _atom_site_symmetry_multiplicity
  _atom_site_fract_x
  _atom_site_fract_y
  _atom_site_fract_z
  _atom_site_occupancy
  Fe  Fe1       1.0  0.00000  0.50200  0.29200  1.0000
  Fe  Fe2       1.0  0.00000  0.00158  0.70800  1.0000
  N   N1        1.0  0.00000  0.76400  0.48400  1.0000
  N   N2        1.0  0.00000  0.26400  0.51600  1.0000
  O   O1        1.0  0.50000  0.47100  0.14200  1.0000
  O   O2        1.0  0.50000  0.97100  0.85800  1.0000
  Sr  Sr1       1.0  0.50000  0.01760  0.26600  1.0000
  Sr  Sr2       1.0  0.50000  0.51800  0.73400  1.0000
