data_image0
_chemical_formula_structural       Ba2N2O2Y2
_chemical_formula_sum              "Ba2 N2 O2 Y2"
_cell_length_a       3.98223
_cell_length_b       6.14935
_cell_length_c       7.14142
_cell_angle_alpha    90
_cell_angle_beta     90
_cell_angle_gamma    90

_space_group_name_H-M_alt    "P 1"
_space_group_IT_number       1

loop_
  _space_group_symop_operation_xyz
  'x, y, z'

loop_
  _atom_site_type_symbol
  _atom_site_label
  _atom_site_symmetry_multiplicity
  _atom_site_fract_x
  _atom_site_fract_y
  _atom_site_fract_z
  _atom_site_occupancy
  Ba  Ba1       1.0  0.50000  0.98700  0.17700  1.0000
  Ba  Ba2       1.0  0.50000  0.48700  0.82300  1.0000
  N   N1        1.0  0.00000  0.84800  0.37100  1.0000
  N   N2        1.0  0.00000  0.34800  0.62900  1.0000
  O   O1        1.0  0.50000  0.42600  0.20000  1.0000
  O   O2        1.0  0.50000  0.92600  0.80000  1.0000
  Y   Y1        1.0  0.00000  0.49200  0.34600  1.0000
  Y   Y2        1.0  0.00000  0.99200  0.65400  1.0000
