data_image0
_chemical_formula_structural       Ca2Cr2N2O2
_chemical_formula_sum              "Ca2 Cr2 N2 O2"
_cell_length_a       3.56151
_cell_length_b       4.631
_cell_length_c       6.73402
_cell_angle_alpha    90
_cell_angle_beta     90
_cell_angle_gamma    90

_space_group_name_H-M_alt    "P 1"
_space_group_IT_number       1

loop_
  _space_group_symop_operation_xyz
  'x, y, z'

loop_
  _atom_site_type_symbol
  _atom_site_label
  _atom_site_symmetry_multiplicity
  _atom_site_fract_x
  _atom_site_fract_y
  _atom_site_fract_z
  _atom_site_occupancy
  Ca  Ca1       1.0  0.50000  0.94700  0.16800  1.0000
  Ca  Ca2       1.0  0.50000  0.44700  0.83200  1.0000
  Cr  Cr1       1.0  0.00000  0.45900  0.36100  1.0000
  Cr  Cr2       1.0  1.00000  0.95900  0.63900  1.0000
  N   N1        1.0  0.00000  0.90500  0.37000  1.0000
  N   N2        1.0  0.00000  0.40500  0.63000  1.0000
  O   O1        1.0  0.50000  0.44300  0.17400  1.0000
  O   O2        1.0  0.50000  0.94300  0.82600  1.0000
