data_image0
_chemical_formula_structural       Fe2N2O2V2
_chemical_formula_sum              "Fe2 N2 O2 V2"
_cell_length_a       3.43632
_cell_length_b       5.00753
_cell_length_c       5.83787
_cell_angle_alpha    90
_cell_angle_beta     90
_cell_angle_gamma    90

_space_group_name_H-M_alt    "P 1"
_space_group_IT_number       1

loop_
  _space_group_symop_operation_xyz
  'x, y, z'

loop_
  _atom_site_type_symbol
  _atom_site_label
  _atom_site_symmetry_multiplicity
  _atom_site_fract_x
  _atom_site_fract_y
  _atom_site_fract_z
  _atom_site_occupancy
  Fe  Fe1       1.0  0.50000  0.98200  0.17900  1.0000
  Fe  Fe2       1.0  0.50000  0.48200  0.82100  1.0000
  N   N1        1.0  0.00000  0.88300  0.34500  1.0000
  N   N2        1.0  0.00000  0.38300  0.65500  1.0000
  O   O1        1.0  0.50000  0.40700  0.16000  1.0000
  O   O2        1.0  0.50000  0.90700  0.84000  1.0000
  V   V1        1.0  0.00000  0.48200  0.33400  1.0000
  V   V2        1.0  0.00000  0.98200  0.66600  1.0000
