data_image0
_chemical_formula_structural       La2Ru2Si2
_chemical_formula_sum              "La2 Ru2 Si2"
_cell_length_a       4.25942
_cell_length_b       4.25942
_cell_length_c       7.11731
_cell_angle_alpha    90
_cell_angle_beta     90
_cell_angle_gamma    90

_space_group_name_H-M_alt    "P 1"
_space_group_IT_number       1

loop_
  _space_group_symop_operation_xyz
  'x, y, z'

loop_
  _atom_site_type_symbol
  _atom_site_label
  _atom_site_symmetry_multiplicity
  _atom_site_fract_x
  _atom_site_fract_y
  _atom_site_fract_z
  _atom_site_occupancy
  La  La1       1.0  0.75000  0.75000  0.31800  1.0000
  La  La2       1.0  0.25000  0.25000  0.68200  1.0000
  Ru  Ru1       1.0  0.75000  0.25000  0.00000  1.0000
  Ru  Ru2       1.0  0.25000  0.75000  0.00000  1.0000
  Si  Si1       1.0  0.25000  0.25000  0.16800  1.0000
  Si  Si2       1.0  0.75000  0.75000  0.83200  1.0000
