data_image0
_chemical_formula_structural       Fe2Mn2N2O2
_chemical_formula_sum              "Fe2 Mn2 N2 O2"
_cell_length_a       3.32146
_cell_length_b       5.3496
_cell_length_c       5.79231
_cell_angle_alpha    90
_cell_angle_beta     90
_cell_angle_gamma    90

_space_group_name_H-M_alt    "P 1"
_space_group_IT_number       1

loop_
  _space_group_symop_operation_xyz
  'x, y, z'

loop_
  _atom_site_type_symbol
  _atom_site_label
  _atom_site_symmetry_multiplicity
  _atom_site_fract_x
  _atom_site_fract_y
  _atom_site_fract_z
  _atom_site_occupancy
  Fe  Fe1       1.0  0.00000  0.49900  0.34400  1.0000
  Fe  Fe2       1.0  0.00000  0.99900  0.65600  1.0000
  Mn  Mn1       1.0  0.50000  0.99700  0.17500  1.0000
  Mn  Mn2       1.0  0.50000  0.49700  0.82500  1.0000
  N   N1        1.0  0.00000  0.86400  0.33900  1.0000
  N   N2        1.0  0.00000  0.36400  0.66100  1.0000
  O   O1        1.0  0.50000  0.39500  0.17700  1.0000
  O   O2        1.0  0.50000  0.89500  0.82300  1.0000
