data_image0
_chemical_formula_structural       Ce2O2P2Zn2
_chemical_formula_sum              "Ce2 O2 P2 Zn2"
_cell_length_a       4.02925
_cell_length_b       4.02925
_cell_length_c       10.7391
_cell_angle_alpha    100.813
_cell_angle_beta     90
_cell_angle_gamma    60

_space_group_name_H-M_alt    "P 1"
_space_group_IT_number       1

loop_
  _space_group_symop_operation_xyz
  'x, y, z'

loop_
  _atom_site_type_symbol
  _atom_site_label
  _atom_site_symmetry_multiplicity
  _atom_site_fract_x
  _atom_site_fract_y
  _atom_site_fract_z
  _atom_site_occupancy
  Ce  Ce1       1.0  0.61800  0.76400  0.14600  1.0000
  Ce  Ce2       1.0  0.38200  0.23600  0.85400  1.0000
  O   O1        1.0  0.30500  0.39000  0.08530  1.0000
  O   O2        1.0  0.69500  0.61000  0.91500  1.0000
  P   P1        1.0  0.88500  0.23100  0.34600  1.0000
  P   P2        1.0  0.11500  0.76900  0.65400  1.0000
  Zn  Zn1       1.0  0.19600  0.60800  0.41200  1.0000
  Zn  Zn2       1.0  0.80400  0.39200  0.58800  1.0000
