data_image0
_chemical_formula_structural       Bi2N2O2Pb2
_chemical_formula_sum              "Bi2 N2 O2 Pb2"
_cell_length_a       4.26185
_cell_length_b       5.68939
_cell_length_c       6.90566
_cell_angle_alpha    90
_cell_angle_beta     90
_cell_angle_gamma    90

_space_group_name_H-M_alt    "P 1"
_space_group_IT_number       1

loop_
  _space_group_symop_operation_xyz
  'x, y, z'

loop_
  _atom_site_type_symbol
  _atom_site_label
  _atom_site_symmetry_multiplicity
  _atom_site_fract_x
  _atom_site_fract_y
  _atom_site_fract_z
  _atom_site_occupancy
  Bi  Bi1       1.0  0.00000  0.49200  0.33000  1.0000
  Bi  Bi2       1.0  1.00000  0.99200  0.67000  1.0000
  N   N1        1.0  0.00000  0.89300  0.35700  1.0000
  N   N2        1.0  0.00000  0.39300  0.64300  1.0000
  O   O1        1.0  0.50000  0.38800  0.20600  1.0000
  O   O2        1.0  0.50000  0.88800  0.79400  1.0000
  Pb  Pb1       1.0  0.50000  0.98200  0.17800  1.0000
  Pb  Pb2       1.0  0.50000  0.48200  0.82200  1.0000
