data_image0
_chemical_formula_structural       H14Li2Mg4Ru2
_chemical_formula_sum              "H14 Li2 Mg4 Ru2"
_cell_length_a       4.63244
_cell_length_b       4.63245
_cell_length_c       10.5237
_cell_angle_alpha    90
_cell_angle_beta     90
_cell_angle_gamma    120

_space_group_name_H-M_alt    "P 1"
_space_group_IT_number       1

loop_
  _space_group_symop_operation_xyz
  'x, y, z'

loop_
  _atom_site_type_symbol
  _atom_site_label
  _atom_site_symmetry_multiplicity
  _atom_site_fract_x
  _atom_site_fract_y
  _atom_site_fract_z
  _atom_site_occupancy
  H   H1        1.0  0.33700  0.16900  0.09710  1.0000
  H   H2        1.0  0.83100  0.16900  0.09710  1.0000
  H   H3        1.0  0.83100  0.66300  0.09710  1.0000
  H   H4        1.0  0.33300  0.66700  0.25000  1.0000
  H   H5        1.0  0.83100  0.66300  0.40300  1.0000
  H   H6        1.0  0.33700  0.16900  0.40300  1.0000
  H   H7        1.0  0.83100  0.16900  0.40300  1.0000
  H   H8        1.0  0.16900  0.83100  0.59700  1.0000
  H   H9        1.0  0.66300  0.83100  0.59700  1.0000
  H   H10       1.0  0.16900  0.33700  0.59700  1.0000
  H   H11       1.0  0.66700  0.33300  0.75000  1.0000
  H   H12       1.0  0.16900  0.33700  0.90300  1.0000
  H   H13       1.0  0.16900  0.83100  0.90300  1.0000
  H   H14       1.0  0.66300  0.83100  0.90300  1.0000
  Li  Li1       1.0  0.00000  0.00000  0.25000  1.0000
  Li  Li2       1.0  0.00000  0.00000  0.75000  1.0000
  Mg  Mg1       1.0  0.33300  0.66700  0.07570  1.0000
  Mg  Mg2       1.0  0.33300  0.66700  0.42400  1.0000
  Mg  Mg3       1.0  0.66700  0.33300  0.57600  1.0000
  Mg  Mg4       1.0  0.66700  0.33300  0.92400  1.0000
  Ru  Ru1       1.0  0.00000  0.00000  0.00000  1.0000
  Ru  Ru2       1.0  0.00000  0.00000  0.50000  1.0000
