data_image0
_chemical_formula_structural       Cr2Zr4
_chemical_formula_sum              "Cr2 Zr4"
_cell_length_a       5.4304
_cell_length_b       5.4304
_cell_length_c       4.78121
_cell_angle_alpha    90
_cell_angle_beta     90
_cell_angle_gamma    60.0008

_space_group_name_H-M_alt    "P 1"
_space_group_IT_number       1

loop_
  _space_group_symop_operation_xyz
  'x, y, z'

loop_
  _atom_site_type_symbol
  _atom_site_label
  _atom_site_symmetry_multiplicity
  _atom_site_fract_x
  _atom_site_fract_y
  _atom_site_fract_z
  _atom_site_occupancy
  Cr  Cr1       1.0  0.00000  0.00000  0.00000  1.0000
  Cr  Cr2       1.0  0.33300  0.33300  0.00000  1.0000
  Zr  Zr1       1.0  0.66700  0.66700  0.00000  1.0000
  Zr  Zr2       1.0  0.66700  0.02890  0.50000  1.0000
  Zr  Zr3       1.0  0.02890  0.30400  0.50000  1.0000
  Zr  Zr4       1.0  0.30400  0.66700  0.50000  1.0000
