data_image0
_chemical_formula_structural       O2P2Pr2Zn2
_chemical_formula_sum              "O2 P2 Pr2 Zn2"
_cell_length_a       4.0032
_cell_length_b       4.0032
_cell_length_c       10.6629
_cell_angle_alpha    100.82
_cell_angle_beta     100.82
_cell_angle_gamma    60

_space_group_name_H-M_alt    "P 1"
_space_group_IT_number       1

loop_
  _space_group_symop_operation_xyz
  'x, y, z'

loop_
  _atom_site_type_symbol
  _atom_site_label
  _atom_site_symmetry_multiplicity
  _atom_site_fract_x
  _atom_site_fract_y
  _atom_site_fract_z
  _atom_site_occupancy
  O   O1        1.0  0.69500  0.69500  0.08520  1.0000
  O   O2        1.0  0.30500  0.30500  0.91500  1.0000
  P   P1        1.0  0.11500  0.11500  0.34400  1.0000
  P   P2        1.0  0.88500  0.88500  0.65600  1.0000
  Pr  Pr1       1.0  0.38200  0.38200  0.14500  1.0000
  Pr  Pr2       1.0  0.61800  0.61800  0.85500  1.0000
  Zn  Zn1       1.0  0.80400  0.80400  0.41200  1.0000
  Zn  Zn2       1.0  0.19600  0.19600  0.58800  1.0000
