data_image0
_chemical_formula_structural       Pd4Yb4Zn4
_chemical_formula_sum              "Pd4 Yb4 Zn4"
_cell_length_a       7.03827
_cell_length_b       4.22668
_cell_length_c       7.9264
_cell_angle_alpha    90
_cell_angle_beta     90
_cell_angle_gamma    90

_space_group_name_H-M_alt    "P 1"
_space_group_IT_number       1

loop_
  _space_group_symop_operation_xyz
  'x, y, z'

loop_
  _atom_site_type_symbol
  _atom_site_label
  _atom_site_symmetry_multiplicity
  _atom_site_fract_x
  _atom_site_fract_y
  _atom_site_fract_z
  _atom_site_occupancy
  Pd  Pd1       1.0  0.77300  0.25000  0.11700  1.0000
  Pd  Pd2       1.0  0.27300  0.25000  0.38300  1.0000
  Pd  Pd3       1.0  0.72700  0.75000  0.61700  1.0000
  Pd  Pd4       1.0  0.22700  0.75000  0.88300  1.0000
  Yb  Yb1       1.0  0.47600  0.75000  0.18700  1.0000
  Yb  Yb2       1.0  0.97600  0.75000  0.31300  1.0000
  Yb  Yb3       1.0  0.02400  0.25000  0.68700  1.0000
  Yb  Yb4       1.0  0.52400  0.25000  0.81300  1.0000
  Zn  Zn1       1.0  0.15100  0.25000  0.06890  1.0000
  Zn  Zn2       1.0  0.65100  0.25000  0.43100  1.0000
  Zn  Zn3       1.0  0.34900  0.75000  0.56900  1.0000
  Zn  Zn4       1.0  0.84900  0.75000  0.93100  1.0000
