data_image0
_chemical_formula_structural       Mg2N2O2Tl2
_chemical_formula_sum              "Mg2 N2 O2 Tl2"
_cell_length_a       3.52945
_cell_length_b       5.65429
_cell_length_c       6.01186
_cell_angle_alpha    90
_cell_angle_beta     90
_cell_angle_gamma    90

_space_group_name_H-M_alt    "P 1"
_space_group_IT_number       1

loop_
  _space_group_symop_operation_xyz
  'x, y, z'

loop_
  _atom_site_type_symbol
  _atom_site_label
  _atom_site_symmetry_multiplicity
  _atom_site_fract_x
  _atom_site_fract_y
  _atom_site_fract_z
  _atom_site_occupancy
  Mg  Mg1       1.0  0.50000  0.99900  0.15800  1.0000
  Mg  Mg2       1.0  0.50000  0.49900  0.84200  1.0000
  N   N1        1.0  0.00000  0.89300  0.30800  1.0000
  N   N2        1.0  1.00000  0.39300  0.69200  1.0000
  O   O1        1.0  0.50000  0.35300  0.14400  1.0000
  O   O2        1.0  0.50000  0.85300  0.85600  1.0000
  Tl  Tl1       1.0  0.00000  0.50900  0.34400  1.0000
  Tl  Tl2       1.0  0.00000  0.00865  0.65600  1.0000
