data_image0
_chemical_formula_structural       N2O2Pb2V2
_chemical_formula_sum              "N2 O2 Pb2 V2"
_cell_length_a       3.48956
_cell_length_b       5.21705
_cell_length_c       7.31713
_cell_angle_alpha    90
_cell_angle_beta     90
_cell_angle_gamma    90

_space_group_name_H-M_alt    "P 1"
_space_group_IT_number       1

loop_
  _space_group_symop_operation_xyz
  'x, y, z'

loop_
  _atom_site_type_symbol
  _atom_site_label
  _atom_site_symmetry_multiplicity
  _atom_site_fract_x
  _atom_site_fract_y
  _atom_site_fract_z
  _atom_site_occupancy
  N   N1        1.0  0.00000  0.87900  0.36500  1.0000
  N   N2        1.0  0.00000  0.37900  0.63500  1.0000
  O   O1        1.0  0.50000  0.41000  0.27100  1.0000
  O   O2        1.0  0.50000  0.91000  0.72900  1.0000
  Pb  Pb1       1.0  0.50000  0.97700  0.17200  1.0000
  Pb  Pb2       1.0  0.50000  0.47700  0.82800  1.0000
  V   V1        1.0  0.00000  0.48900  0.38400  1.0000
  V   V2        1.0  0.00000  0.98900  0.61600  1.0000
