data_image0
_chemical_formula_structural       As2Eu2O2Sr2
_chemical_formula_sum              "As2 Eu2 O2 Sr2"
_cell_length_a       4.99124
_cell_length_b       4.99124
_cell_length_c       8.44061
_cell_angle_alpha    88.8364
_cell_angle_beta     88.8364
_cell_angle_gamma    89.0109

_space_group_name_H-M_alt    "P 1"
_space_group_IT_number       1

loop_
  _space_group_symop_operation_xyz
  'x, y, z'

loop_
  _atom_site_type_symbol
  _atom_site_label
  _atom_site_symmetry_multiplicity
  _atom_site_fract_x
  _atom_site_fract_y
  _atom_site_fract_z
  _atom_site_occupancy
  As  As1       1.0  0.85600  0.85600  0.27800  1.0000
  As  As2       1.0  0.33800  0.33800  0.68200  1.0000
  Eu  Eu1       1.0  0.16400  0.16400  0.01940  1.0000
  Eu  Eu2       1.0  0.64800  0.64800  0.97500  1.0000
  O   O1        1.0  0.66700  0.14100  0.03750  1.0000
  O   O2        1.0  0.14100  0.66700  0.03750  1.0000
  Sr  Sr1       1.0  0.84200  0.34400  0.48500  1.0000
  Sr  Sr2       1.0  0.34400  0.84200  0.48500  1.0000
