data_image0
_chemical_formula_structural       O2P2Sn2V2
_chemical_formula_sum              "O2 P2 Sn2 V2"
_cell_length_a       3.98634
_cell_length_b       3.98634
_cell_length_c       9.16203
_cell_angle_alpha    90
_cell_angle_beta     90
_cell_angle_gamma    90

_space_group_name_H-M_alt    "P 1"
_space_group_IT_number       1

loop_
  _space_group_symop_operation_xyz
  'x, y, z'

loop_
  _atom_site_type_symbol
  _atom_site_label
  _atom_site_symmetry_multiplicity
  _atom_site_fract_x
  _atom_site_fract_y
  _atom_site_fract_z
  _atom_site_occupancy
  O   O1        1.0  0.75000  0.25000  0.00000  1.0000
  O   O2        1.0  0.25000  0.75000  0.00000  1.0000
  P   P1        1.0  0.75000  0.75000  0.34500  1.0000
  P   P2        1.0  0.25000  0.25000  0.65500  1.0000
  Sn  Sn1       1.0  0.25000  0.25000  0.12200  1.0000
  Sn  Sn2       1.0  0.75000  0.75000  0.87800  1.0000
  V   V1        1.0  0.75000  0.25000  0.50000  1.0000
  V   V2        1.0  0.25000  0.75000  0.50000  1.0000
