data_image0
_chemical_formula_structural       As2Au2Na4
_chemical_formula_sum              "As2 Au2 Na4"
_cell_length_a       5.66074
_cell_length_b       5.66074
_cell_length_c       5.75927
_cell_angle_alpha    90
_cell_angle_beta     90
_cell_angle_gamma    102.323

_space_group_name_H-M_alt    "P 1"
_space_group_IT_number       1

loop_
  _space_group_symop_operation_xyz
  'x, y, z'

loop_
  _atom_site_type_symbol
  _atom_site_label
  _atom_site_symmetry_multiplicity
  _atom_site_fract_x
  _atom_site_fract_y
  _atom_site_fract_z
  _atom_site_occupancy
  As  As1       1.0  0.20600  0.20600  0.25000  1.0000
  As  As2       1.0  0.79400  0.79400  0.75000  1.0000
  Au  Au1       1.0  0.50000  0.50000  0.00000  1.0000
  Au  Au2       1.0  0.50000  0.50000  0.50000  1.0000
  Na  Na1       1.0  0.66700  0.02800  0.25000  1.0000
  Na  Na2       1.0  0.02800  0.66700  0.25000  1.0000
  Na  Na3       1.0  0.97200  0.33300  0.75000  1.0000
  Na  Na4       1.0  0.33300  0.97200  0.75000  1.0000
