data_image0
_chemical_formula_structural       As2Ca2F2Mg2O8
_chemical_formula_sum              "As2 Ca2 F2 Mg2 O8"
_cell_length_a       5.56901
_cell_length_b       5.56901
_cell_length_c       7.01518
_cell_angle_alpha    103.765
_cell_angle_beta     103.765
_cell_angle_gamma    106.478

_space_group_name_H-M_alt    "P 1"
_space_group_IT_number       1

loop_
  _space_group_symop_operation_xyz
  'x, y, z'

loop_
  _atom_site_type_symbol
  _atom_site_label
  _atom_site_symmetry_multiplicity
  _atom_site_fract_x
  _atom_site_fract_y
  _atom_site_fract_z
  _atom_site_occupancy
  As  As1       1.0  0.67900  0.82100  0.25000  1.0000
  As  As2       1.0  0.32100  0.17900  0.75000  1.0000
  Ca  Ca1       1.0  0.33300  0.16700  0.25000  1.0000
  Ca  Ca2       1.0  0.66700  0.83300  0.75000  1.0000
  F   F1        1.0  0.08190  0.41800  0.25000  1.0000
  F   F2        1.0  0.91800  0.58200  0.75000  1.0000
  Mg  Mg1       1.0  0.00000  0.50000  0.00000  1.0000
  Mg  Mg2       1.0  0.00000  0.50000  0.50000  1.0000
  O   O1        1.0  0.38100  0.76000  0.07050  1.0000
  O   O2        1.0  0.90200  0.83000  0.11800  1.0000
  O   O3        1.0  0.67000  0.59800  0.38200  1.0000
  O   O4        1.0  0.74000  0.11900  0.42900  1.0000
  O   O5        1.0  0.26000  0.88100  0.57100  1.0000
  O   O6        1.0  0.33000  0.40200  0.61800  1.0000
  O   O7        1.0  0.09750  0.17000  0.88200  1.0000
  O   O8        1.0  0.61900  0.24000  0.92900  1.0000
