data_image0
_chemical_formula_structural       H14Mg6Tc2
_chemical_formula_sum              "H14 Mg6 Tc2"
_cell_length_a       4.76375
_cell_length_b       4.76376
_cell_length_c       10.4439
_cell_angle_alpha    90
_cell_angle_beta     90
_cell_angle_gamma    120

_space_group_name_H-M_alt    "P 1"
_space_group_IT_number       1

loop_
  _space_group_symop_operation_xyz
  'x, y, z'

loop_
  _atom_site_type_symbol
  _atom_site_label
  _atom_site_symmetry_multiplicity
  _atom_site_fract_x
  _atom_site_fract_y
  _atom_site_fract_z
  _atom_site_occupancy
  H   H1        1.0  0.34200  0.17100  0.09930  1.0000
  H   H2        1.0  0.82900  0.17100  0.09930  1.0000
  H   H3        1.0  0.82900  0.65800  0.09930  1.0000
  H   H4        1.0  0.33300  0.66700  0.25000  1.0000
  H   H5        1.0  0.82900  0.65800  0.40100  1.0000
  H   H6        1.0  0.34200  0.17100  0.40100  1.0000
  H   H7        1.0  0.82900  0.17100  0.40100  1.0000
  H   H8        1.0  0.17100  0.82900  0.59900  1.0000
  H   H9        1.0  0.65800  0.82900  0.59900  1.0000
  H   H10       1.0  0.17100  0.34200  0.59900  1.0000
  H   H11       1.0  0.66700  0.33300  0.75000  1.0000
  H   H12       1.0  0.17100  0.34200  0.90100  1.0000
  H   H13       1.0  0.17100  0.82900  0.90100  1.0000
  H   H14       1.0  0.65800  0.82900  0.90100  1.0000
  Mg  Mg1       1.0  0.33300  0.66700  0.06840  1.0000
  Mg  Mg2       1.0  0.00000  0.00001  0.25000  1.0000
  Mg  Mg3       1.0  0.33300  0.66700  0.43200  1.0000
  Mg  Mg4       1.0  0.66700  0.33300  0.56800  1.0000
  Mg  Mg5       1.0  0.00000  0.00000  0.75000  1.0000
  Mg  Mg6       1.0  0.66700  0.33300  0.93200  1.0000
  Tc  Tc1       1.0  0.00000  0.00000  0.00000  1.0000
  Tc  Tc2       1.0  0.00000  0.00000  0.50000  1.0000
