data_image0
_chemical_formula_structural       Co2N2O2Tl2
_chemical_formula_sum              "Co2 N2 O2 Tl2"
_cell_length_a       3.42375
_cell_length_b       5.69362
_cell_length_c       6.00195
_cell_angle_alpha    90
_cell_angle_beta     90
_cell_angle_gamma    90

_space_group_name_H-M_alt    "P 1"
_space_group_IT_number       1

loop_
  _space_group_symop_operation_xyz
  'x, y, z'

loop_
  _atom_site_type_symbol
  _atom_site_label
  _atom_site_symmetry_multiplicity
  _atom_site_fract_x
  _atom_site_fract_y
  _atom_site_fract_z
  _atom_site_occupancy
  Co  Co1       1.0  0.50000  0.99400  0.16100  1.0000
  Co  Co2       1.0  0.50000  0.49400  0.83900  1.0000
  N   N1        1.0  0.00000  0.90000  0.30300  1.0000
  N   N2        1.0  0.00000  0.40000  0.69700  1.0000
  O   O1        1.0  0.50000  0.34800  0.14200  1.0000
  O   O2        1.0  0.50000  0.84800  0.85800  1.0000
  Tl  Tl1       1.0  0.00000  0.51200  0.34000  1.0000
  Tl  Tl2       1.0  0.00000  0.01220  0.66000  1.0000
