data_image0
_chemical_formula_structural       Cd3Sn3Yb3
_chemical_formula_sum              "Cd3 Sn3 Yb3"
_cell_length_a       7.64243
_cell_length_b       7.64243
_cell_length_c       4.65095
_cell_angle_alpha    90
_cell_angle_beta     90
_cell_angle_gamma    120.001

_space_group_name_H-M_alt    "P 1"
_space_group_IT_number       1

loop_
  _space_group_symop_operation_xyz
  'x, y, z'

loop_
  _atom_site_type_symbol
  _atom_site_label
  _atom_site_symmetry_multiplicity
  _atom_site_fract_x
  _atom_site_fract_y
  _atom_site_fract_z
  _atom_site_occupancy
  Cd  Cd1       1.0  0.25300  0.00001  0.00000  1.0000
  Cd  Cd2       1.0  0.00001  0.25300  0.00000  1.0000
  Cd  Cd3       1.0  0.74700  0.74700  0.00000  1.0000
  Sn  Sn1       1.0  0.66700  0.33300  0.00000  1.0000
  Sn  Sn2       1.0  0.33300  0.66700  0.00000  1.0000
  Sn  Sn3       1.0  0.00000  0.00000  0.50000  1.0000
  Yb  Yb1       1.0  0.57400  0.00002  0.50000  1.0000
  Yb  Yb2       1.0  0.42600  0.42600  0.50000  1.0000
  Yb  Yb3       1.0  0.00002  0.57400  0.50000  1.0000
