data_image0
_chemical_formula_structural       Cs4H2O8Ta2
_chemical_formula_sum              "Cs4 H2 O8 Ta2"
_cell_length_a       6.92636
_cell_length_b       6.92636
_cell_length_c       8.44038
_cell_angle_alpha    90
_cell_angle_beta     90
_cell_angle_gamma    48.7834

_space_group_name_H-M_alt    "P 1"
_space_group_IT_number       1

loop_
  _space_group_symop_operation_xyz
  'x, y, z'

loop_
  _atom_site_type_symbol
  _atom_site_label
  _atom_site_symmetry_multiplicity
  _atom_site_fract_x
  _atom_site_fract_y
  _atom_site_fract_z
  _atom_site_occupancy
  Cs  Cs1       1.0  0.04210  0.04210  0.10300  1.0000
  Cs  Cs2       1.0  0.61500  0.61500  0.42000  1.0000
  Cs  Cs3       1.0  0.95800  0.95800  0.60300  1.0000
  Cs  Cs4       1.0  0.38500  0.38500  0.92000  1.0000
  H   H1        1.0  0.83900  0.83900  0.27400  1.0000
  H   H2        1.0  0.16100  0.16100  0.77400  1.0000
  O   O1        1.0  0.61900  0.61900  0.07130  1.0000
  O   O2        1.0  0.63100  0.05970  0.27900  1.0000
  O   O3        1.0  0.05970  0.63100  0.27900  1.0000
  O   O4        1.0  0.16500  0.16500  0.41300  1.0000
  O   O5        1.0  0.38100  0.38100  0.57100  1.0000
  O   O6        1.0  0.94000  0.36900  0.77900  1.0000
  O   O7        1.0  0.36900  0.94000  0.77900  1.0000
  O   O8        1.0  0.83500  0.83500  0.91300  1.0000
  Ta  Ta1       1.0  0.30900  0.30900  0.38200  1.0000
  Ta  Ta2       1.0  0.69100  0.69100  0.88200  1.0000
