data_image0
_chemical_formula_structural       Cs2H4O8Ta2
_chemical_formula_sum              "Cs2 H4 O8 Ta2"
_cell_length_a       6.93865
_cell_length_b       6.93865
_cell_length_c       7.06638
_cell_angle_alpha    108.512
_cell_angle_beta     108.512
_cell_angle_gamma    110.69

_space_group_name_H-M_alt    "P 1"
_space_group_IT_number       1

loop_
  _space_group_symop_operation_xyz
  'x, y, z'

loop_
  _atom_site_type_symbol
  _atom_site_label
  _atom_site_symmetry_multiplicity
  _atom_site_fract_x
  _atom_site_fract_y
  _atom_site_fract_z
  _atom_site_occupancy
  Cs  Cs1       1.0  0.50800  0.50800  0.00000  1.0000
  Cs  Cs2       1.0  0.25800  0.75800  0.50000  1.0000
  H   H1        1.0  0.36100  0.96400  0.06100  1.0000
  H   H2        1.0  0.05030  0.15300  0.43900  1.0000
  H   H3        1.0  0.71400  0.61100  0.56100  1.0000
  H   H4        1.0  0.90300  0.30000  0.93900  1.0000
  O   O1        1.0  0.03660  0.30300  0.06360  1.0000
  O   O2        1.0  0.01770  0.95700  0.24600  1.0000
  O   O3        1.0  0.52100  0.96000  0.25400  1.0000
  O   O4        1.0  0.72300  0.48900  0.43600  1.0000
  O   O5        1.0  0.05260  0.28700  0.56400  1.0000
  O   O6        1.0  0.70700  0.26800  0.74600  1.0000
  O   O7        1.0  0.71000  0.77100  0.75400  1.0000
  O   O8        1.0  0.23900  0.97300  0.93600  1.0000
  Ta  Ta1       1.0  0.99800  0.99800  0.00000  1.0000
  Ta  Ta2       1.0  0.74800  0.24800  0.50000  1.0000
