data_image0
_chemical_formula_structural       Ba2Cr2N2O2
_chemical_formula_sum              "Ba2 Cr2 N2 O2"
_cell_length_a       3.80008
_cell_length_b       5.96376
_cell_length_c       6.02954
_cell_angle_alpha    89.9977
_cell_angle_beta     90
_cell_angle_gamma    90

_space_group_name_H-M_alt    "P 1"
_space_group_IT_number       1

loop_
  _space_group_symop_operation_xyz
  'x, y, z'

loop_
  _atom_site_type_symbol
  _atom_site_label
  _atom_site_symmetry_multiplicity
  _atom_site_fract_x
  _atom_site_fract_y
  _atom_site_fract_z
  _atom_site_occupancy
  Ba  Ba1       1.0  0.50000  0.00150  0.24600  1.0000
  Ba  Ba2       1.0  0.50000  0.50200  0.75400  1.0000
  Cr  Cr1       1.0  0.00000  0.50100  0.30700  1.0000
  Cr  Cr2       1.0  0.00000  0.00097  0.69300  1.0000
  N   N1        1.0  0.00000  0.75100  0.50000  1.0000
  N   N2        1.0  0.00000  0.25100  0.50000  1.0000
  O   O1        1.0  0.50000  0.50000  0.19400  1.0000
  O   O2        1.0  0.50000  0.00032  0.80600  1.0000
