data_image0
_chemical_formula_structural       Ba2Ga2N2O2
_chemical_formula_sum              "Ba2 Ga2 N2 O2"
_cell_length_a       3.49283
_cell_length_b       6.07119
_cell_length_c       6.39349
_cell_angle_alpha    90
_cell_angle_beta     90
_cell_angle_gamma    90

_space_group_name_H-M_alt    "P 1"
_space_group_IT_number       1

loop_
  _space_group_symop_operation_xyz
  'x, y, z'

loop_
  _atom_site_type_symbol
  _atom_site_label
  _atom_site_symmetry_multiplicity
  _atom_site_fract_x
  _atom_site_fract_y
  _atom_site_fract_z
  _atom_site_occupancy
  Ba  Ba1       1.0  0.50000  0.00599  0.24900  1.0000
  Ba  Ba2       1.0  0.50000  0.50600  0.75100  1.0000
  Ga  Ga1       1.0  0.00000  0.50000  0.32900  1.0000
  Ga  Ga2       1.0  0.00000  0.00000  0.67100  1.0000
  N   N1        1.0  0.00000  0.75900  0.48700  1.0000
  N   N2        1.0  0.00000  0.25900  0.51300  1.0000
  O   O1        1.0  0.50000  0.48900  0.17000  1.0000
  O   O2        1.0  0.50000  0.98900  0.83000  1.0000
