data_image0
_chemical_formula_structural       Cs2H4Nb2O8
_chemical_formula_sum              "Cs2 H4 Nb2 O8"
_cell_length_a       7.37751
_cell_length_b       7.37751
_cell_length_c       7.37751
_cell_angle_alpha    116.017
_cell_angle_beta     97.0493
_cell_angle_gamma    116.017

_space_group_name_H-M_alt    "P 1"
_space_group_IT_number       1

loop_
  _space_group_symop_operation_xyz
  'x, y, z'

loop_
  _atom_site_type_symbol
  _atom_site_label
  _atom_site_symmetry_multiplicity
  _atom_site_fract_x
  _atom_site_fract_y
  _atom_site_fract_z
  _atom_site_occupancy
  Cs  Cs1       1.0  0.50000  0.00000  0.50000  1.0000
  Cs  Cs2       1.0  0.25000  0.50000  0.75000  1.0000
  H   H1        1.0  0.55700  0.50000  0.05680  1.0000
  H   H2        1.0  0.19300  0.00000  0.19300  1.0000
  H   H3        1.0  0.94300  0.50000  0.44300  1.0000
  H   H4        1.0  0.80700  0.00000  0.80700  1.0000
  Nb  Nb1       1.0  0.00000  0.00000  0.00000  1.0000
  Nb  Nb2       1.0  0.75000  0.50000  0.25000  1.0000
  O   O1        1.0  0.60100  0.65500  0.26000  1.0000
  O   O2        1.0  0.14900  0.15900  0.30400  1.0000
  O   O3        1.0  0.74000  0.34100  0.39500  1.0000
  O   O4        1.0  0.05410  0.65900  0.39900  1.0000
  O   O5        1.0  0.00960  0.15500  0.85100  1.0000
  O   O6        1.0  0.69600  0.84500  0.85500  1.0000
  O   O7        1.0  0.60500  0.34500  0.94600  1.0000
  O   O8        1.0  0.14500  0.84100  0.99000  1.0000
