data_image0
_chemical_formula_structural       Cs8H8O28V8
_chemical_formula_sum              "Cs8 H8 O28 V8"
_cell_length_a       5.64366
_cell_length_b       17.9654
_cell_length_c       8.96128
_cell_angle_alpha    90
_cell_angle_beta     90
_cell_angle_gamma    90

_space_group_name_H-M_alt    "P 1"
_space_group_IT_number       1

loop_
  _space_group_symop_operation_xyz
  'x, y, z'

loop_
  _atom_site_type_symbol
  _atom_site_label
  _atom_site_symmetry_multiplicity
  _atom_site_fract_x
  _atom_site_fract_y
  _atom_site_fract_z
  _atom_site_occupancy
  Cs  Cs1       1.0  0.59200  0.03150  0.25000  1.0000
  Cs  Cs2       1.0  0.58800  0.29900  0.25000  1.0000
  Cs  Cs3       1.0  0.40800  0.53200  0.25000  1.0000
  Cs  Cs4       1.0  0.41200  0.79900  0.25000  1.0000
  Cs  Cs5       1.0  0.58800  0.20100  0.75000  1.0000
  Cs  Cs6       1.0  0.59200  0.46800  0.75000  1.0000
  Cs  Cs7       1.0  0.41200  0.70100  0.75000  1.0000
  Cs  Cs8       1.0  0.40800  0.96800  0.75000  1.0000
  H   H1        1.0  0.97600  0.43500  0.16400  1.0000
  H   H2        1.0  0.02400  0.93500  0.16400  1.0000
  H   H3        1.0  0.97600  0.43500  0.33600  1.0000
  H   H4        1.0  0.02400  0.93500  0.33600  1.0000
  H   H5        1.0  0.97600  0.06480  0.66400  1.0000
  H   H6        1.0  0.02400  0.56500  0.66400  1.0000
  H   H7        1.0  0.97600  0.06480  0.83600  1.0000
  H   H8        1.0  0.02400  0.56500  0.83600  1.0000
  O   O1        1.0  0.22300  0.25000  0.00000  1.0000
  O   O2        1.0  0.77700  0.75000  0.00000  1.0000
  O   O3        1.0  0.22200  0.40600  0.05000  1.0000
  O   O4        1.0  0.77800  0.90600  0.05000  1.0000
  O   O5        1.0  0.81800  0.15900  0.05640  1.0000
  O   O6        1.0  0.18200  0.65900  0.05640  1.0000
  O   O7        1.0  0.22000  0.14700  0.25000  1.0000
  O   O8        1.0  0.87400  0.44900  0.25000  1.0000
  O   O9        1.0  0.78000  0.64700  0.25000  1.0000
  O   O10       1.0  0.12600  0.94900  0.25000  1.0000
  O   O11       1.0  0.81800  0.15900  0.44400  1.0000
  O   O12       1.0  0.18200  0.65900  0.44400  1.0000
  O   O13       1.0  0.22200  0.40600  0.45000  1.0000
  O   O14       1.0  0.77800  0.90600  0.45000  1.0000
  O   O15       1.0  0.22300  0.25000  0.50000  1.0000
  O   O16       1.0  0.77700  0.75000  0.50000  1.0000
  O   O17       1.0  0.22200  0.09380  0.55000  1.0000
  O   O18       1.0  0.77800  0.59400  0.55000  1.0000
  O   O19       1.0  0.81800  0.34100  0.55600  1.0000
  O   O20       1.0  0.18200  0.84100  0.55600  1.0000
  O   O21       1.0  0.87400  0.05130  0.75000  1.0000
  O   O22       1.0  0.22000  0.35300  0.75000  1.0000
  O   O23       1.0  0.12600  0.55100  0.75000  1.0000
  O   O24       1.0  0.78000  0.85300  0.75000  1.0000
  O   O25       1.0  0.81800  0.34100  0.94400  1.0000
  O   O26       1.0  0.18200  0.84100  0.94400  1.0000
  O   O27       1.0  0.22200  0.09380  0.95000  1.0000
  O   O28       1.0  0.77800  0.59400  0.95000  1.0000
  V   V1        1.0  0.11100  0.16000  0.06130  1.0000
  V   V2        1.0  0.88900  0.66000  0.06130  1.0000
  V   V3        1.0  0.11100  0.16000  0.43900  1.0000
  V   V4        1.0  0.88900  0.66000  0.43900  1.0000
  V   V5        1.0  0.11100  0.34000  0.56100  1.0000
  V   V6        1.0  0.88900  0.84000  0.56100  1.0000
  V   V7        1.0  0.11100  0.34000  0.93900  1.0000
  V   V8        1.0  0.88900  0.84000  0.93900  1.0000
