data_image0
_chemical_formula_structural       Cs4H2O8V2
_chemical_formula_sum              "Cs4 H2 O8 V2"
_cell_length_a       6.80199
_cell_length_b       6.80199
_cell_length_c       8.38881
_cell_angle_alpha    90
_cell_angle_beta     90
_cell_angle_gamma    47.5876

_space_group_name_H-M_alt    "P 1"
_space_group_IT_number       1

loop_
  _space_group_symop_operation_xyz
  'x, y, z'

loop_
  _atom_site_type_symbol
  _atom_site_label
  _atom_site_symmetry_multiplicity
  _atom_site_fract_x
  _atom_site_fract_y
  _atom_site_fract_z
  _atom_site_occupancy
  Cs  Cs1       1.0  0.04680  0.04680  0.10300  1.0000
  Cs  Cs2       1.0  0.62200  0.62200  0.42800  1.0000
  Cs  Cs3       1.0  0.95300  0.95300  0.60300  1.0000
  Cs  Cs4       1.0  0.37800  0.37800  0.92800  1.0000
  H   H1        1.0  0.84800  0.84800  0.28100  1.0000
  H   H2        1.0  0.15200  0.15200  0.78100  1.0000
  O   O1        1.0  0.62300  0.62300  0.06190  1.0000
  O   O2        1.0  0.63300  0.07860  0.28200  1.0000
  O   O3        1.0  0.07860  0.63300  0.28200  1.0000
  O   O4        1.0  0.18200  0.18200  0.40300  1.0000
  O   O5        1.0  0.37700  0.37700  0.56200  1.0000
  O   O6        1.0  0.92100  0.36700  0.78200  1.0000
  O   O7        1.0  0.36700  0.92100  0.78200  1.0000
  O   O8        1.0  0.81800  0.81800  0.90300  1.0000
  V   V1        1.0  0.31700  0.31700  0.38000  1.0000
  V   V2        1.0  0.68300  0.68300  0.88000  1.0000
