data_image0
_chemical_formula_structural       Cs4H2Nb2O8
_chemical_formula_sum              "Cs4 H2 Nb2 O8"
_cell_length_a       6.97449
_cell_length_b       6.97449
_cell_length_c       8.34646
_cell_angle_alpha    90
_cell_angle_beta     90
_cell_angle_gamma    48.1247

_space_group_name_H-M_alt    "P 1"
_space_group_IT_number       1

loop_
  _space_group_symop_operation_xyz
  'x, y, z'

loop_
  _atom_site_type_symbol
  _atom_site_label
  _atom_site_symmetry_multiplicity
  _atom_site_fract_x
  _atom_site_fract_y
  _atom_site_fract_z
  _atom_site_occupancy
  Cs  Cs1       1.0  0.04120  0.04120  0.10200  1.0000
  Cs  Cs2       1.0  0.61700  0.61700  0.42300  1.0000
  Cs  Cs3       1.0  0.95900  0.95900  0.60200  1.0000
  Cs  Cs4       1.0  0.38300  0.38300  0.92300  1.0000
  H   H1        1.0  0.84400  0.84400  0.27300  1.0000
  H   H2        1.0  0.15600  0.15600  0.77300  1.0000
  Nb  Nb1       1.0  0.31200  0.31200  0.38300  1.0000
  Nb  Nb2       1.0  0.68800  0.68800  0.88300  1.0000
  O   O1        1.0  0.61800  0.61800  0.07610  1.0000
  O   O2        1.0  0.63600  0.06440  0.27700  1.0000
  O   O3        1.0  0.06440  0.63600  0.27700  1.0000
  O   O4        1.0  0.16800  0.16800  0.41000  1.0000
  O   O5        1.0  0.38200  0.38200  0.57600  1.0000
  O   O6        1.0  0.93600  0.36400  0.77700  1.0000
  O   O7        1.0  0.36400  0.93600  0.77700  1.0000
  O   O8        1.0  0.83200  0.83200  0.91000  1.0000
