data_image0
_chemical_formula_structural       Ga2N2Ni2O2
_chemical_formula_sum              "Ga2 N2 Ni2 O2"
_cell_length_a       3.15477
_cell_length_b       5.20572
_cell_length_c       5.65952
_cell_angle_alpha    90
_cell_angle_beta     90
_cell_angle_gamma    90

_space_group_name_H-M_alt    "P 1"
_space_group_IT_number       1

loop_
  _space_group_symop_operation_xyz
  'x, y, z'

loop_
  _atom_site_type_symbol
  _atom_site_label
  _atom_site_symmetry_multiplicity
  _atom_site_fract_x
  _atom_site_fract_y
  _atom_site_fract_z
  _atom_site_occupancy
  Ga  Ga1       1.0  0.00000  0.50800  0.35700  1.0000
  Ga  Ga2       1.0  0.00000  0.00802  0.64300  1.0000
  N   N1        1.0  0.00000  0.87100  0.33400  1.0000
  N   N2        1.0  0.00000  0.37100  0.66600  1.0000
  Ni  Ni1       1.0  0.50000  0.99400  0.16300  1.0000
  Ni  Ni2       1.0  0.50000  0.49400  0.83700  1.0000
  O   O1        1.0  0.50000  0.38100  0.18600  1.0000
  O   O2        1.0  0.50000  0.88100  0.81400  1.0000
