data_image0
_chemical_formula_structural       Cr2Cs2H2O8
_chemical_formula_sum              "Cr2 Cs2 H2 O8"
_cell_length_a       7.19997
_cell_length_b       5.8433
_cell_length_c       5.44722
_cell_angle_alpha    90
_cell_angle_beta     102.161
_cell_angle_gamma    90

_space_group_name_H-M_alt    "P 1"
_space_group_IT_number       1

loop_
  _space_group_symop_operation_xyz
  'x, y, z'

loop_
  _atom_site_type_symbol
  _atom_site_label
  _atom_site_symmetry_multiplicity
  _atom_site_fract_x
  _atom_site_fract_y
  _atom_site_fract_z
  _atom_site_occupancy
  Cr  Cr1       1.0  0.25800  0.75000  0.46100  1.0000
  Cr  Cr2       1.0  0.74200  0.25000  0.53900  1.0000
  Cs  Cs1       1.0  0.73800  0.75000  0.02000  1.0000
  Cs  Cs2       1.0  0.26200  0.25000  0.98000  1.0000
  H   H1        1.0  0.00000  0.00000  0.50000  1.0000
  H   H2        1.0  0.00000  0.50000  0.50000  1.0000
  O   O1        1.0  0.67800  0.25000  0.23500  1.0000
  O   O2        1.0  0.43800  0.75000  0.32700  1.0000
  O   O3        1.0  0.11700  0.51700  0.37100  1.0000
  O   O4        1.0  0.11700  0.98300  0.37100  1.0000
  O   O5        1.0  0.88300  0.01670  0.62900  1.0000
  O   O6        1.0  0.88300  0.48300  0.62900  1.0000
  O   O7        1.0  0.56200  0.25000  0.67300  1.0000
  O   O8        1.0  0.32200  0.75000  0.76500  1.0000
