data_image0
_chemical_formula_structural       Co2La2N2O2
_chemical_formula_sum              "Co2 La2 N2 O2"
_cell_length_a       3.66546
_cell_length_b       5.42445
_cell_length_c       5.49501
_cell_angle_alpha    90
_cell_angle_beta     90
_cell_angle_gamma    90

_space_group_name_H-M_alt    "P 1"
_space_group_IT_number       1

loop_
  _space_group_symop_operation_xyz
  'x, y, z'

loop_
  _atom_site_type_symbol
  _atom_site_label
  _atom_site_symmetry_multiplicity
  _atom_site_fract_x
  _atom_site_fract_y
  _atom_site_fract_z
  _atom_site_occupancy
  Co  Co1       1.0  0.50000  0.99800  0.29200  1.0000
  Co  Co2       1.0  0.50000  0.49800  0.70800  1.0000
  La  La1       1.0  0.00000  0.50200  0.21100  1.0000
  La  La2       1.0  0.00000  0.00197  0.78900  1.0000
  N   N1        1.0  0.00000  0.99200  0.34500  1.0000
  N   N2        1.0  0.00000  0.49200  0.65500  1.0000
  O   O1        1.0  0.50000  0.26200  0.01530  1.0000
  O   O2        1.0  0.50000  0.76200  0.98500  1.0000
