data_image0
_chemical_formula_structural       Cs4H4Mo4O16
_chemical_formula_sum              "Cs4 H4 Mo4 O16"
_cell_length_a       7.82843
_cell_length_b       8.19852
_cell_length_c       8.01589
_cell_angle_alpha    90
_cell_angle_beta     106.522
_cell_angle_gamma    90

_space_group_name_H-M_alt    "P 1"
_space_group_IT_number       1

loop_
  _space_group_symop_operation_xyz
  'x, y, z'

loop_
  _atom_site_type_symbol
  _atom_site_label
  _atom_site_symmetry_multiplicity
  _atom_site_fract_x
  _atom_site_fract_y
  _atom_site_fract_z
  _atom_site_occupancy
  Cs  Cs1       1.0  0.22800  0.87400  0.18600  1.0000
  Cs  Cs2       1.0  0.77200  0.37400  0.31400  1.0000
  Cs  Cs3       1.0  0.22800  0.62600  0.68600  1.0000
  Cs  Cs4       1.0  0.77200  0.12600  0.81400  1.0000
  H   H1        1.0  0.66300  0.65100  0.00757  1.0000
  H   H2        1.0  0.33700  0.15100  0.49200  1.0000
  H   H3        1.0  0.66300  0.84900  0.50800  1.0000
  H   H4        1.0  0.33700  0.34900  0.99200  1.0000
  Mo  Mo1       1.0  0.24300  0.36700  0.21400  1.0000
  Mo  Mo2       1.0  0.75700  0.86700  0.28600  1.0000
  Mo  Mo3       1.0  0.24300  0.13300  0.71400  1.0000
  Mo  Mo4       1.0  0.75700  0.63300  0.78600  1.0000
  O   O1        1.0  0.33900  0.44200  0.07010  1.0000
  O   O2        1.0  0.03750  0.24600  0.09640  1.0000
  O   O3        1.0  0.60000  0.73400  0.13400  1.0000
  O   O4        1.0  0.81500  0.04850  0.17600  1.0000
  O   O5        1.0  0.18500  0.54800  0.32400  1.0000
  O   O6        1.0  0.40000  0.23400  0.36600  1.0000
  O   O7        1.0  0.96300  0.74600  0.40400  1.0000
  O   O8        1.0  0.66100  0.94200  0.43000  1.0000
  O   O9        1.0  0.33900  0.05820  0.57000  1.0000
  O   O10       1.0  0.03750  0.25400  0.59600  1.0000
  O   O11       1.0  0.60000  0.76600  0.63400  1.0000
  O   O12       1.0  0.81500  0.45200  0.67600  1.0000
  O   O13       1.0  0.18500  0.95200  0.82400  1.0000
  O   O14       1.0  0.40000  0.26600  0.86600  1.0000
  O   O15       1.0  0.96300  0.75400  0.90400  1.0000
  O   O16       1.0  0.66100  0.55800  0.93000  1.0000
