data_image0
_chemical_formula_structural       Cs8H8O28Ta8
_chemical_formula_sum              "Cs8 H8 O28 Ta8"
_cell_length_a       5.61243
_cell_length_b       18.4644
_cell_length_c       9.46903
_cell_angle_alpha    90
_cell_angle_beta     90
_cell_angle_gamma    90

_space_group_name_H-M_alt    "P 1"
_space_group_IT_number       1

loop_
  _space_group_symop_operation_xyz
  'x, y, z'

loop_
  _atom_site_type_symbol
  _atom_site_label
  _atom_site_symmetry_multiplicity
  _atom_site_fract_x
  _atom_site_fract_y
  _atom_site_fract_z
  _atom_site_occupancy
  Cs  Cs1       1.0  0.59800  0.02820  0.25000  1.0000
  Cs  Cs2       1.0  0.59600  0.30400  0.25000  1.0000
  Cs  Cs3       1.0  0.40200  0.52800  0.25000  1.0000
  Cs  Cs4       1.0  0.40400  0.80400  0.25000  1.0000
  Cs  Cs5       1.0  0.59600  0.19600  0.75000  1.0000
  Cs  Cs6       1.0  0.59800  0.47200  0.75000  1.0000
  Cs  Cs7       1.0  0.40400  0.69600  0.75000  1.0000
  Cs  Cs8       1.0  0.40200  0.97200  0.75000  1.0000
  H   H1        1.0  0.97600  0.43800  0.16900  1.0000
  H   H2        1.0  0.02420  0.93800  0.16900  1.0000
  H   H3        1.0  0.97600  0.43800  0.33100  1.0000
  H   H4        1.0  0.02420  0.93800  0.33100  1.0000
  H   H5        1.0  0.97600  0.06160  0.66900  1.0000
  H   H6        1.0  0.02420  0.56200  0.66900  1.0000
  H   H7        1.0  0.97600  0.06160  0.83100  1.0000
  H   H8        1.0  0.02420  0.56200  0.83100  1.0000
  O   O1        1.0  0.23200  0.25000  0.00000  1.0000
  O   O2        1.0  0.76800  0.75000  0.00000  1.0000
  O   O3        1.0  0.79300  0.15800  0.05420  1.0000
  O   O4        1.0  0.20700  0.65800  0.05420  1.0000
  O   O5        1.0  0.21600  0.41200  0.06310  1.0000
  O   O6        1.0  0.78400  0.91200  0.06310  1.0000
  O   O7        1.0  0.21800  0.13800  0.25000  1.0000
  O   O8        1.0  0.86900  0.44900  0.25000  1.0000
  O   O9        1.0  0.78200  0.63800  0.25000  1.0000
  O   O10       1.0  0.13100  0.94900  0.25000  1.0000
  O   O11       1.0  0.21600  0.41200  0.43700  1.0000
  O   O12       1.0  0.78400  0.91200  0.43700  1.0000
  O   O13       1.0  0.79300  0.15800  0.44600  1.0000
  O   O14       1.0  0.20700  0.65800  0.44600  1.0000
  O   O15       1.0  0.23200  0.25000  0.50000  1.0000
  O   O16       1.0  0.76800  0.75000  0.50000  1.0000
  O   O17       1.0  0.79300  0.34200  0.55400  1.0000
  O   O18       1.0  0.20700  0.84200  0.55400  1.0000
  O   O19       1.0  0.21600  0.08760  0.56300  1.0000
  O   O20       1.0  0.78400  0.58800  0.56300  1.0000
  O   O21       1.0  0.86900  0.05070  0.75000  1.0000
  O   O22       1.0  0.21800  0.36200  0.75000  1.0000
  O   O23       1.0  0.13100  0.55100  0.75000  1.0000
  O   O24       1.0  0.78200  0.86200  0.75000  1.0000
  O   O25       1.0  0.21600  0.08760  0.93700  1.0000
  O   O26       1.0  0.78400  0.58800  0.93700  1.0000
  O   O27       1.0  0.79300  0.34200  0.94600  1.0000
  O   O28       1.0  0.20700  0.84200  0.94600  1.0000
  Ta  Ta1       1.0  0.11300  0.15600  0.05870  1.0000
  Ta  Ta2       1.0  0.88700  0.65600  0.05870  1.0000
  Ta  Ta3       1.0  0.11300  0.15600  0.44100  1.0000
  Ta  Ta4       1.0  0.88700  0.65600  0.44100  1.0000
  Ta  Ta5       1.0  0.11300  0.34400  0.55900  1.0000
  Ta  Ta6       1.0  0.88700  0.84400  0.55900  1.0000
  Ta  Ta7       1.0  0.11300  0.34400  0.94100  1.0000
  Ta  Ta8       1.0  0.88700  0.84400  0.94100  1.0000
