data_image0
_chemical_formula_structural       O2P2Y2Zn2
_chemical_formula_sum              "O2 P2 Y2 Zn2"
_cell_length_a       3.88568
_cell_length_b       3.88568
_cell_length_c       10.3475
_cell_angle_alpha    90
_cell_angle_beta     100.822
_cell_angle_gamma    60

_space_group_name_H-M_alt    "P 1"
_space_group_IT_number       1

loop_
  _space_group_symop_operation_xyz
  'x, y, z'

loop_
  _atom_site_type_symbol
  _atom_site_label
  _atom_site_symmetry_multiplicity
  _atom_site_fract_x
  _atom_site_fract_y
  _atom_site_fract_z
  _atom_site_occupancy
  O   O1        1.0  0.39000  0.30500  0.08440  1.0000
  O   O2        1.0  0.61000  0.69500  0.91600  1.0000
  P   P1        1.0  0.22400  0.88800  0.33600  1.0000
  P   P2        1.0  0.77600  0.11200  0.66400  1.0000
  Y   Y1        1.0  0.76000  0.62000  0.14000  1.0000
  Y   Y2        1.0  0.24000  0.38000  0.86000  1.0000
  Zn  Zn1       1.0  0.60800  0.19600  0.41100  1.0000
  Zn  Zn2       1.0  0.39200  0.80400  0.58900  1.0000
