data_image0
_chemical_formula_structural       Cs2H4O8V2
_chemical_formula_sum              "Cs2 H4 O8 V2"
_cell_length_a       6.77009
_cell_length_b       6.77009
_cell_length_c       6.95264
_cell_angle_alpha    108.382
_cell_angle_beta     108.382
_cell_angle_gamma    110.628

_space_group_name_H-M_alt    "P 1"
_space_group_IT_number       1

loop_
  _space_group_symop_operation_xyz
  'x, y, z'

loop_
  _atom_site_type_symbol
  _atom_site_label
  _atom_site_symmetry_multiplicity
  _atom_site_fract_x
  _atom_site_fract_y
  _atom_site_fract_z
  _atom_site_occupancy
  Cs  Cs1       1.0  0.50600  0.50600  0.00000  1.0000
  Cs  Cs2       1.0  0.25600  0.75600  0.50000  1.0000
  H   H1        1.0  0.35400  0.97500  0.06670  1.0000
  H   H2        1.0  0.03760  0.15900  0.43300  1.0000
  H   H3        1.0  0.72500  0.60400  0.56700  1.0000
  H   H4        1.0  0.90900  0.28800  0.93300  1.0000
  O   O1        1.0  0.03680  0.29300  0.06400  1.0000
  O   O2        1.0  0.01740  0.95500  0.23000  1.0000
  O   O3        1.0  0.53800  0.97600  0.27000  1.0000
  O   O4        1.0  0.72300  0.47900  0.43600  1.0000
  O   O5        1.0  0.04280  0.28700  0.56400  1.0000
  O   O6        1.0  0.70500  0.26700  0.73000  1.0000
  O   O7        1.0  0.72600  0.78800  0.77000  1.0000
  O   O8        1.0  0.22900  0.97300  0.93600  1.0000
  V   V1        1.0  0.99700  0.99700  0.00000  1.0000
  V   V2        1.0  0.74700  0.24700  0.50000  1.0000
