data_image0
_chemical_formula_structural       O2P2Sm2Zn2
_chemical_formula_sum              "O2 P2 Sm2 Zn2"
_cell_length_a       3.94498
_cell_length_b       3.94498
_cell_length_c       10.5008
_cell_angle_alpha    100.827
_cell_angle_beta     100.827
_cell_angle_gamma    60

_space_group_name_H-M_alt    "P 1"
_space_group_IT_number       1

loop_
  _space_group_symop_operation_xyz
  'x, y, z'

loop_
  _atom_site_type_symbol
  _atom_site_label
  _atom_site_symmetry_multiplicity
  _atom_site_fract_x
  _atom_site_fract_y
  _atom_site_fract_z
  _atom_site_occupancy
  O   O1        1.0  0.69500  0.69500  0.08480  1.0000
  O   O2        1.0  0.30500  0.30500  0.91500  1.0000
  P   P1        1.0  0.11300  0.11300  0.34000  1.0000
  P   P2        1.0  0.88700  0.88700  0.66000  1.0000
  Sm  Sm1       1.0  0.38100  0.38100  0.14300  1.0000
  Sm  Sm2       1.0  0.61900  0.61900  0.85700  1.0000
  Zn  Zn1       1.0  0.80400  0.80400  0.41100  1.0000
  Zn  Zn2       1.0  0.19600  0.19600  0.58900  1.0000
