data_image0
_chemical_formula_structural       Ir2Mg2Nd4O12
_chemical_formula_sum              "Ir2 Mg2 Nd4 O12"
_cell_length_a       5.45031
_cell_length_b       5.68113
_cell_length_c       7.7966
_cell_angle_alpha    90
_cell_angle_beta     89.9508
_cell_angle_gamma    90

_space_group_name_H-M_alt    "P 1"
_space_group_IT_number       1

loop_
  _space_group_symop_operation_xyz
  'x, y, z'

loop_
  _atom_site_type_symbol
  _atom_site_label
  _atom_site_symmetry_multiplicity
  _atom_site_fract_x
  _atom_site_fract_y
  _atom_site_fract_z
  _atom_site_occupancy
  Ir  Ir1       1.0  0.50000  0.50000  0.00000  1.0000
  Ir  Ir2       1.0  0.00000  0.00000  0.50000  1.0000
  Mg  Mg1       1.0  0.00000  0.00000  0.00000  1.0000
  Mg  Mg2       1.0  0.50000  0.50000  0.50000  1.0000
  Nd  Nd1       1.0  0.01620  0.56000  0.24900  1.0000
  Nd  Nd2       1.0  0.48400  0.06050  0.25100  1.0000
  Nd  Nd3       1.0  0.51600  0.94000  0.74900  1.0000
  Nd  Nd4       1.0  0.98400  0.44000  0.75100  1.0000
  O   O1        1.0  0.20100  0.29700  0.04980  1.0000
  O   O2        1.0  0.30300  0.79500  0.04990  1.0000
  O   O3        1.0  0.59500  0.47400  0.25000  1.0000
  O   O4        1.0  0.90500  0.97400  0.25000  1.0000
  O   O5        1.0  0.19700  0.29500  0.45000  1.0000
  O   O6        1.0  0.29900  0.79700  0.45000  1.0000
  O   O7        1.0  0.70100  0.20300  0.55000  1.0000
  O   O8        1.0  0.80300  0.70500  0.55000  1.0000
  O   O9        1.0  0.09520  0.02590  0.75000  1.0000
  O   O10       1.0  0.40500  0.52600  0.75000  1.0000
  O   O11       1.0  0.69700  0.20500  0.95000  1.0000
  O   O12       1.0  0.79900  0.70300  0.95000  1.0000
