data_image0
_chemical_formula_structural       As2Fe2Lu2O2
_chemical_formula_sum              "As2 Fe2 Lu2 O2"
_cell_length_a       3.84803
_cell_length_b       3.84803
_cell_length_c       8.89349
_cell_angle_alpha    90
_cell_angle_beta     90
_cell_angle_gamma    89.9995

_space_group_name_H-M_alt    "P 1"
_space_group_IT_number       1

loop_
  _space_group_symop_operation_xyz
  'x, y, z'

loop_
  _atom_site_type_symbol
  _atom_site_label
  _atom_site_symmetry_multiplicity
  _atom_site_fract_x
  _atom_site_fract_y
  _atom_site_fract_z
  _atom_site_occupancy
  As  As1       1.0  0.75000  0.75000  0.31100  1.0000
  As  As2       1.0  0.25000  0.25000  0.68900  1.0000
  Fe  Fe1       1.0  0.75000  0.25000  0.50000  1.0000
  Fe  Fe2       1.0  0.25000  0.75000  0.50000  1.0000
  Lu  Lu1       1.0  0.25000  0.25000  0.11800  1.0000
  Lu  Lu2       1.0  0.75000  0.75000  0.88200  1.0000
  O   O1        1.0  0.75000  0.25000  0.00000  1.0000
  O   O2        1.0  0.25000  0.75000  0.00000  1.0000
