data_image0
_chemical_formula_structural       As2Co2Fe2O2
_chemical_formula_sum              "As2 Co2 Fe2 O2"
_cell_length_a       4.4499
_cell_length_b       4.4499
_cell_length_c       5.68623
_cell_angle_alpha    92.4537
_cell_angle_beta     92.4537
_cell_angle_gamma    91.633

_space_group_name_H-M_alt    "P 1"
_space_group_IT_number       1

loop_
  _space_group_symop_operation_xyz
  'x, y, z'

loop_
  _atom_site_type_symbol
  _atom_site_label
  _atom_site_symmetry_multiplicity
  _atom_site_fract_x
  _atom_site_fract_y
  _atom_site_fract_z
  _atom_site_occupancy
  As  As1       1.0  0.23200  0.23200  0.45700  1.0000
  As  As2       1.0  0.75000  0.75000  0.95400  1.0000
  Co  Co1       1.0  0.74800  0.31800  0.62900  1.0000
  Co  Co2       1.0  0.31800  0.74800  0.62900  1.0000
  Fe  Fe1       1.0  0.79200  0.79200  0.39700  1.0000
  Fe  Fe2       1.0  0.24600  0.24600  0.99300  1.0000
  O   O1        1.0  0.74700  0.16800  0.97000  1.0000
  O   O2        1.0  0.16800  0.74700  0.97000  1.0000
