data_image0
_chemical_formula_structural       Mg2O10Ti4
_chemical_formula_sum              "Mg2 O10 Ti4"
_cell_length_a       3.75196
_cell_length_b       5.20989
_cell_length_c       9.96234
_cell_angle_alpha    90
_cell_angle_beta     90
_cell_angle_gamma    68.8948

_space_group_name_H-M_alt    "P 1"
_space_group_IT_number       1

loop_
  _space_group_symop_operation_xyz
  'x, y, z'

loop_
  _atom_site_type_symbol
  _atom_site_label
  _atom_site_symmetry_multiplicity
  _atom_site_fract_x
  _atom_site_fract_y
  _atom_site_fract_z
  _atom_site_occupancy
  Mg  Mg1       1.0  0.80200  0.39700  0.25000  1.0000
  Mg  Mg2       1.0  0.19800  0.60300  0.75000  1.0000
  O   O1        1.0  0.68600  0.62700  0.06250  1.0000
  O   O2        1.0  0.95200  0.09520  0.11500  1.0000
  O   O3        1.0  0.21900  0.56200  0.25000  1.0000
  O   O4        1.0  0.95200  0.09520  0.38500  1.0000
  O   O5        1.0  0.68600  0.62700  0.43800  1.0000
  O   O6        1.0  0.31400  0.37300  0.56200  1.0000
  O   O7        1.0  0.04760  0.90500  0.61500  1.0000
  O   O8        1.0  0.78100  0.43800  0.75000  1.0000
  O   O9        1.0  0.04760  0.90500  0.88500  1.0000
  O   O10       1.0  0.31400  0.37300  0.93800  1.0000
  Ti  Ti1       1.0  0.13400  0.73200  0.06610  1.0000
  Ti  Ti2       1.0  0.13400  0.73200  0.43400  1.0000
  Ti  Ti3       1.0  0.86600  0.26800  0.56600  1.0000
  Ti  Ti4       1.0  0.86600  0.26800  0.93400  1.0000
