data_image0
_chemical_formula_structural       B8Mg2Os6
_chemical_formula_sum              "B8 Mg2 Os6"
_cell_length_a       2.91944
_cell_length_b       6.11653
_cell_length_c       9.7848
_cell_angle_alpha    90
_cell_angle_beta     90
_cell_angle_gamma    76.193

_space_group_name_H-M_alt    "P 1"
_space_group_IT_number       1

loop_
  _space_group_symop_operation_xyz
  'x, y, z'

loop_
  _atom_site_type_symbol
  _atom_site_label
  _atom_site_symmetry_multiplicity
  _atom_site_fract_x
  _atom_site_fract_y
  _atom_site_fract_z
  _atom_site_occupancy
  B   B1        1.0  0.15900  0.68300  0.11000  1.0000
  B   B2        1.0  0.37600  0.24900  0.25000  1.0000
  B   B3        1.0  0.65300  0.69300  0.25000  1.0000
  B   B4        1.0  0.15900  0.68300  0.39000  1.0000
  B   B5        1.0  0.84100  0.31700  0.61000  1.0000
  B   B6        1.0  0.34700  0.30700  0.75000  1.0000
  B   B7        1.0  0.62400  0.75200  0.75000  1.0000
  B   B8        1.0  0.84100  0.31700  0.89000  1.0000
  Mg  Mg1       1.0  0.50000  0.00000  0.00000  1.0000
  Mg  Mg2       1.0  0.50000  0.00000  0.50000  1.0000
  Os  Os1       1.0  0.80000  0.40000  0.10700  1.0000
  Os  Os2       1.0  0.01560  0.96900  0.25000  1.0000
  Os  Os3       1.0  0.80000  0.40000  0.39300  1.0000
  Os  Os4       1.0  0.20000  0.60000  0.60700  1.0000
  Os  Os5       1.0  0.98400  0.03110  0.75000  1.0000
  Os  Os6       1.0  0.20000  0.60000  0.89300  1.0000
