data_image0
_chemical_formula_structural       H16Mg6V
_chemical_formula_sum              "H16 Mg6 V1"
_cell_length_a       6.52008
_cell_length_b       6.52008
_cell_length_c       6.52008
_cell_angle_alpha    120
_cell_angle_beta     90
_cell_angle_gamma    120

_space_group_name_H-M_alt    "P 1"
_space_group_IT_number       1

loop_
  _space_group_symop_operation_xyz
  'x, y, z'

loop_
  _atom_site_type_symbol
  _atom_site_label
  _atom_site_symmetry_multiplicity
  _atom_site_fract_x
  _atom_site_fract_y
  _atom_site_fract_z
  _atom_site_occupancy
  H   H1        1.0  0.35900  0.71700  0.07590  1.0000
  H   H2        1.0  0.88900  0.77800  0.11100  1.0000
  H   H3        1.0  0.33200  0.22200  0.11100  1.0000
  H   H4        1.0  0.88900  0.22200  0.11100  1.0000
  H   H5        1.0  0.11100  0.22200  0.33200  1.0000
  H   H6        1.0  0.64100  0.28300  0.35900  1.0000
  H   H7        1.0  0.07590  0.71700  0.35900  1.0000
  H   H8        1.0  0.64100  0.71700  0.35900  1.0000
  H   H9        1.0  0.35900  0.28300  0.64100  1.0000
  H   H10       1.0  0.35900  0.71700  0.64100  1.0000
  H   H11       1.0  0.92400  0.28300  0.64100  1.0000
  H   H12       1.0  0.88900  0.77800  0.66800  1.0000
  H   H13       1.0  0.11100  0.22200  0.88900  1.0000
  H   H14       1.0  0.11100  0.77800  0.88900  1.0000
  H   H15       1.0  0.66800  0.77800  0.88900  1.0000
  H   H16       1.0  0.64100  0.28300  0.92400  1.0000
  Mg  Mg1       1.0  0.50000  0.00000  0.00000  1.0000
  Mg  Mg2       1.0  0.00000  0.50000  0.00000  1.0000
  Mg  Mg3       1.0  0.50000  0.50000  0.00000  1.0000
  Mg  Mg4       1.0  0.00000  0.00000  0.50000  1.0000
  Mg  Mg5       1.0  0.00000  0.50000  0.50000  1.0000
  Mg  Mg6       1.0  0.50000  0.50000  0.50000  1.0000
  V   V1        1.0  0.00000  0.00000  0.00000  1.0000
