data_image0
_chemical_formula_structural       B4Mg6O12
_chemical_formula_sum              "B4 Mg6 O12"
_cell_length_a       4.48824
_cell_length_b       5.35507
_cell_length_c       8.38321
_cell_angle_alpha    90
_cell_angle_beta     90
_cell_angle_gamma    90

_space_group_name_H-M_alt    "P 1"
_space_group_IT_number       1

loop_
  _space_group_symop_operation_xyz
  'x, y, z'

loop_
  _atom_site_type_symbol
  _atom_site_label
  _atom_site_symmetry_multiplicity
  _atom_site_fract_x
  _atom_site_fract_y
  _atom_site_fract_z
  _atom_site_occupancy
  B   B1        1.0  0.54700  0.25700  0.00000  1.0000
  B   B2        1.0  0.45300  0.74300  0.00000  1.0000
  B   B3        1.0  0.04740  0.24300  0.50000  1.0000
  B   B4        1.0  0.95300  0.75700  0.50000  1.0000
  Mg  Mg1       1.0  0.00000  0.00000  0.00000  1.0000
  Mg  Mg2       1.0  0.00000  0.50000  0.18700  1.0000
  Mg  Mg3       1.0  0.50000  0.00000  0.31300  1.0000
  Mg  Mg4       1.0  0.50000  0.50000  0.50000  1.0000
  Mg  Mg5       1.0  0.50000  0.00000  0.68700  1.0000
  Mg  Mg6       1.0  0.00000  0.50000  0.81300  1.0000
  O   O1        1.0  0.25000  0.32300  0.00000  1.0000
  O   O2        1.0  0.75000  0.67700  0.00000  1.0000
  O   O3        1.0  0.70400  0.20400  0.14000  1.0000
  O   O4        1.0  0.29600  0.79600  0.14000  1.0000
  O   O5        1.0  0.20400  0.29600  0.36000  1.0000
  O   O6        1.0  0.79600  0.70400  0.36000  1.0000
  O   O7        1.0  0.75000  0.17700  0.50000  1.0000
  O   O8        1.0  0.25000  0.82300  0.50000  1.0000
  O   O9        1.0  0.20400  0.29600  0.64000  1.0000
  O   O10       1.0  0.79600  0.70400  0.64000  1.0000
  O   O11       1.0  0.70400  0.20400  0.86000  1.0000
  O   O12       1.0  0.29600  0.79600  0.86000  1.0000
