data_image0
_chemical_formula_structural       B18Mg2N2
_chemical_formula_sum              "B18 Mg2 N2"
_cell_length_a       5.48919
_cell_length_b       5.48918
_cell_length_c       7.38345
_cell_angle_alpha    111.822
_cell_angle_beta     68.1781
_cell_angle_gamma    120

_space_group_name_H-M_alt    "P 1"
_space_group_IT_number       1

loop_
  _space_group_symop_operation_xyz
  'x, y, z'

loop_
  _atom_site_type_symbol
  _atom_site_label
  _atom_site_symmetry_multiplicity
  _atom_site_fract_x
  _atom_site_fract_y
  _atom_site_fract_z
  _atom_site_occupancy
  B   B1        1.0  0.17600  0.14200  0.10800  1.0000
  B   B2        1.0  0.85800  0.14200  0.10800  1.0000
  B   B3        1.0  0.85800  0.82400  0.10800  1.0000
  B   B4        1.0  0.35200  0.32500  0.29700  1.0000
  B   B5        1.0  0.67500  0.32500  0.29700  1.0000
  B   B6        1.0  0.67500  0.64800  0.29700  1.0000
  B   B7        1.0  0.33900  0.13000  0.45200  1.0000
  B   B8        1.0  0.33900  0.66100  0.45200  1.0000
  B   B9        1.0  0.87000  0.66100  0.45200  1.0000
  B   B10       1.0  0.13000  0.33900  0.54800  1.0000
  B   B11       1.0  0.66100  0.33900  0.54800  1.0000
  B   B12       1.0  0.66100  0.87000  0.54800  1.0000
  B   B13       1.0  0.32500  0.35200  0.70300  1.0000
  B   B14       1.0  0.32500  0.67500  0.70300  1.0000
  B   B15       1.0  0.64800  0.67500  0.70300  1.0000
  B   B16       1.0  0.14200  0.17600  0.89200  1.0000
  B   B17       1.0  0.14200  0.85800  0.89200  1.0000
  B   B18       1.0  0.82400  0.85800  0.89200  1.0000
  Mg  Mg1       1.0  0.30400  0.69600  0.08680  1.0000
  Mg  Mg2       1.0  0.69600  0.30400  0.91300  1.0000
  N   N1        1.0  0.20000  0.80000  0.40100  1.0000
  N   N2        1.0  0.80000  0.20000  0.59900  1.0000
