data_image0
_chemical_formula_structural       K4Mg2P4Se12
_chemical_formula_sum              "K4 Mg2 P4 Se12"
_cell_length_a       6.57644
_cell_length_b       12.8163
_cell_length_c       7.80838
_cell_angle_alpha    90
_cell_angle_beta     102.702
_cell_angle_gamma    90

_space_group_name_H-M_alt    "P 1"
_space_group_IT_number       1

loop_
  _space_group_symop_operation_xyz
  'x, y, z'

loop_
  _atom_site_type_symbol
  _atom_site_label
  _atom_site_symmetry_multiplicity
  _atom_site_fract_x
  _atom_site_fract_y
  _atom_site_fract_z
  _atom_site_occupancy
  K   K1        1.0  0.72100  0.19400  0.04370  1.0000
  K   K2        1.0  0.77900  0.69400  0.45600  1.0000
  K   K3        1.0  0.22100  0.30600  0.54400  1.0000
  K   K4        1.0  0.27900  0.80600  0.95600  1.0000
  Mg  Mg1       1.0  0.00000  0.50000  0.00000  1.0000
  Mg  Mg2       1.0  0.50000  0.00000  0.50000  1.0000
  P   P1        1.0  0.48600  0.46900  0.13400  1.0000
  P   P2        1.0  0.01380  0.96900  0.36600  1.0000
  P   P3        1.0  0.98600  0.03100  0.63400  1.0000
  P   P4        1.0  0.51400  0.53100  0.86600  1.0000
  Se  Se1       1.0  0.28400  0.33000  0.07880  1.0000
  Se  Se2       1.0  0.68700  0.94400  0.23200  1.0000
  Se  Se3       1.0  0.31800  0.59100  0.24800  1.0000
  Se  Se4       1.0  0.18200  0.09060  0.25200  1.0000
  Se  Se5       1.0  0.81300  0.44400  0.26800  1.0000
  Se  Se6       1.0  0.21600  0.83000  0.42100  1.0000
  Se  Se7       1.0  0.78400  0.17000  0.57900  1.0000
  Se  Se8       1.0  0.18700  0.55600  0.73200  1.0000
  Se  Se9       1.0  0.81800  0.90900  0.74800  1.0000
  Se  Se10      1.0  0.68200  0.40900  0.75200  1.0000
  Se  Se11      1.0  0.31300  0.05590  0.76800  1.0000
  Se  Se12      1.0  0.71600  0.67000  0.92100  1.0000
