data_image0
_chemical_formula_structural       Al2F14Mg2Na4
_chemical_formula_sum              "Al2 F14 Mg2 Na4"
_cell_length_a       6.92744
_cell_length_b       7.00291
_cell_length_c       7.00291
_cell_angle_alpha    118.496
_cell_angle_beta     60.3559
_cell_angle_gamma    119.644

_space_group_name_H-M_alt    "P 1"
_space_group_IT_number       1

loop_
  _space_group_symop_operation_xyz
  'x, y, z'

loop_
  _atom_site_type_symbol
  _atom_site_label
  _atom_site_symmetry_multiplicity
  _atom_site_fract_x
  _atom_site_fract_y
  _atom_site_fract_z
  _atom_site_occupancy
  Al  Al1       1.0  0.75000  0.50000  0.00060  1.0000
  Al  Al2       1.0  0.25000  0.00060  0.50000  1.0000
  F   F1        1.0  0.44600  0.32000  0.04710  1.0000
  F   F2        1.0  0.82600  0.32000  0.04710  1.0000
  F   F3        1.0  0.00000  0.11900  0.11900  1.0000
  F   F4        1.0  0.66100  0.63600  0.31500  1.0000
  F   F5        1.0  0.17400  0.04710  0.32000  1.0000
  F   F6        1.0  0.55400  0.04710  0.32000  1.0000
  F   F7        1.0  0.16200  0.68600  0.36300  1.0000
  F   F8        1.0  0.33900  0.31500  0.63600  1.0000
  F   F9        1.0  0.32600  0.95400  0.68100  1.0000
  F   F10       1.0  0.94700  0.95400  0.68100  1.0000
  F   F11       1.0  0.83800  0.36300  0.68600  1.0000
  F   F12       1.0  0.50000  0.88200  0.88200  1.0000
  F   F13       1.0  0.05280  0.68100  0.95400  1.0000
  F   F14       1.0  0.67400  0.68100  0.95400  1.0000
  Mg  Mg1       1.0  0.25000  0.00033  0.00033  1.0000
  Mg  Mg2       1.0  0.75000  0.00033  0.00033  1.0000
  Na  Na1       1.0  0.24900  0.50000  0.50000  1.0000
  Na  Na2       1.0  0.75100  0.50000  0.50000  1.0000
  Na  Na3       1.0  0.74800  0.99900  0.50300  1.0000
  Na  Na4       1.0  0.25200  0.50300  0.99900  1.0000
