data_image0
_chemical_formula_structural       Ba2Mg2O14Te4
_chemical_formula_sum              "Ba2 Mg2 O14 Te4"
_cell_length_a       5.581
_cell_length_b       7.30734
_cell_length_c       8.39308
_cell_angle_alpha    64.1944
_cell_angle_beta     90
_cell_angle_gamma    90

_space_group_name_H-M_alt    "P 1"
_space_group_IT_number       1

loop_
  _space_group_symop_operation_xyz
  'x, y, z'

loop_
  _atom_site_type_symbol
  _atom_site_label
  _atom_site_symmetry_multiplicity
  _atom_site_fract_x
  _atom_site_fract_y
  _atom_site_fract_z
  _atom_site_occupancy
  Ba  Ba1       1.0  0.75000  0.66400  0.41600  1.0000
  Ba  Ba2       1.0  0.25000  0.07960  0.58400  1.0000
  Mg  Mg1       1.0  0.75000  0.24000  0.23800  1.0000
  Mg  Mg2       1.0  0.25000  0.47800  0.76200  1.0000
  O   O1        1.0  0.00000  0.99200  0.00000  1.0000
  O   O2        1.0  0.50000  0.99200  0.00000  1.0000
  O   O3        1.0  0.25000  0.32400  0.02800  1.0000
  O   O4        1.0  0.25000  0.72900  0.27900  1.0000
  O   O5        1.0  0.50800  0.41600  0.28800  1.0000
  O   O6        1.0  0.99200  0.41600  0.28800  1.0000
  O   O7        1.0  0.00346  0.02400  0.31600  1.0000
  O   O8        1.0  0.49700  0.02400  0.31600  1.0000
  O   O9        1.0  0.50300  0.34000  0.68400  1.0000
  O   O10       1.0  0.99700  0.34000  0.68400  1.0000
  O   O11       1.0  0.00791  0.70500  0.71200  1.0000
  O   O12       1.0  0.49200  0.70500  0.71200  1.0000
  O   O13       1.0  0.75000  0.00810  0.72100  1.0000
  O   O14       1.0  0.75000  0.35200  0.97200  1.0000
  Te  Te1       1.0  0.25000  0.55500  0.14400  1.0000
  Te  Te2       1.0  0.25000  0.03050  0.15900  1.0000
  Te  Te3       1.0  0.75000  0.18900  0.84100  1.0000
  Te  Te4       1.0  0.75000  0.69800  0.85600  1.0000
