data_image0
_chemical_formula_structural       H14Mg3Yb4
_chemical_formula_sum              "H14 Mg3 Yb4"
_cell_length_a       6.11004
_cell_length_b       6.11004
_cell_length_c       6.69968
_cell_angle_alpha    90
_cell_angle_beta     90
_cell_angle_gamma    120

_space_group_name_H-M_alt    "P 1"
_space_group_IT_number       1

loop_
  _space_group_symop_operation_xyz
  'x, y, z'

loop_
  _atom_site_type_symbol
  _atom_site_label
  _atom_site_symmetry_multiplicity
  _atom_site_fract_x
  _atom_site_fract_y
  _atom_site_fract_z
  _atom_site_occupancy
  H   H1        1.0  0.22800  0.00001  0.00000  1.0000
  H   H2        1.0  0.00001  0.22800  0.00000  1.0000
  H   H3        1.0  0.66700  0.33300  0.00000  1.0000
  H   H4        1.0  0.33300  0.66700  0.00000  1.0000
  H   H5        1.0  0.77200  0.77200  0.00000  1.0000
  H   H6        1.0  0.38600  0.38600  0.28000  1.0000
  H   H7        1.0  0.61400  0.00001  0.28000  1.0000
  H   H8        1.0  0.00001  0.61400  0.28000  1.0000
  H   H9        1.0  0.26600  0.00001  0.50000  1.0000
  H   H10       1.0  0.00001  0.26600  0.50000  1.0000
  H   H11       1.0  0.73400  0.73400  0.50000  1.0000
  H   H12       1.0  0.61400  0.00001  0.72000  1.0000
  H   H13       1.0  0.38600  0.38600  0.72000  1.0000
  H   H14       1.0  0.00001  0.61400  0.72000  1.0000
  Mg  Mg1       1.0  0.56200  0.00001  0.00000  1.0000
  Mg  Mg2       1.0  0.43800  0.43800  0.00000  1.0000
  Mg  Mg3       1.0  0.00001  0.56200  0.00000  1.0000
  Yb  Yb1       1.0  0.00001  0.00001  0.26900  1.0000
  Yb  Yb2       1.0  0.66700  0.33300  0.50000  1.0000
  Yb  Yb3       1.0  0.33300  0.66700  0.50000  1.0000
  Yb  Yb4       1.0  0.00001  0.00001  0.73100  1.0000
