data_image0
_chemical_formula_structural       F2KMg2NaO10Si4
_chemical_formula_sum              "F2 K1 Mg2 Na1 O10 Si4"
_cell_length_a       5.24502
_cell_length_b       5.24502
_cell_length_c       10.0247
_cell_angle_alpha    95.4803
_cell_angle_beta     95.4803
_cell_angle_gamma    119.71

_space_group_name_H-M_alt    "P 1"
_space_group_IT_number       1

loop_
  _space_group_symop_operation_xyz
  'x, y, z'

loop_
  _atom_site_type_symbol
  _atom_site_label
  _atom_site_symmetry_multiplicity
  _atom_site_fract_x
  _atom_site_fract_y
  _atom_site_fract_z
  _atom_site_occupancy
  F   F1        1.0  0.59000  0.59000  0.38600  1.0000
  F   F2        1.0  0.41000  0.41000  0.61400  1.0000
  K   K1        1.0  0.50000  0.50000  0.00000  1.0000
  Mg  Mg1       1.0  0.66500  0.33500  0.50000  1.0000
  Mg  Mg2       1.0  0.33500  0.66500  0.50000  1.0000
  Na  Na1       1.0  0.00000  0.00000  0.50000  1.0000
  O   O1        1.0  0.55400  0.06220  0.15200  1.0000
  O   O2        1.0  0.06220  0.55400  0.15200  1.0000
  O   O3        1.0  0.04770  0.04770  0.16200  1.0000
  O   O4        1.0  0.95700  0.32100  0.38200  1.0000
  O   O5        1.0  0.32100  0.95700  0.38200  1.0000
  O   O6        1.0  0.67900  0.04280  0.61800  1.0000
  O   O7        1.0  0.04280  0.67900  0.61800  1.0000
  O   O8        1.0  0.95200  0.95200  0.83800  1.0000
  O   O9        1.0  0.93800  0.44600  0.84800  1.0000
  O   O10       1.0  0.44600  0.93800  0.84800  1.0000
  Si  Si1       1.0  0.91000  0.25000  0.22100  1.0000
  Si  Si2       1.0  0.25000  0.91000  0.22100  1.0000
  Si  Si3       1.0  0.75000  0.09050  0.77900  1.0000
  Si  Si4       1.0  0.09050  0.75000  0.77900  1.0000
