data_image0
_chemical_formula_structural       Mg4N12P6S
_chemical_formula_sum              "Mg4 N12 P6 S1"
_cell_length_a       7.17277
_cell_length_b       7.17277
_cell_length_c       7.17277
_cell_angle_alpha    109.471
_cell_angle_beta     109.471
_cell_angle_gamma    109.471

_space_group_name_H-M_alt    "P 1"
_space_group_IT_number       1

loop_
  _space_group_symop_operation_xyz
  'x, y, z'

loop_
  _atom_site_type_symbol
  _atom_site_label
  _atom_site_symmetry_multiplicity
  _atom_site_fract_x
  _atom_site_fract_y
  _atom_site_fract_z
  _atom_site_occupancy
  Mg  Mg1       1.0  0.66000  0.00000  0.00000  1.0000
  Mg  Mg2       1.0  0.00000  0.66000  0.00000  1.0000
  Mg  Mg3       1.0  0.34000  0.34000  0.34000  1.0000
  Mg  Mg4       1.0  0.00000  0.00000  0.66000  1.0000
  N   N1        1.0  0.72700  0.44200  0.00000  1.0000
  N   N2        1.0  0.44200  0.72700  0.00000  1.0000
  N   N3        1.0  0.71500  0.27300  0.27300  1.0000
  N   N4        1.0  0.27300  0.71500  0.27300  1.0000
  N   N5        1.0  0.55800  0.55800  0.28500  1.0000
  N   N6        1.0  0.72700  0.00000  0.44200  1.0000
  N   N7        1.0  0.00000  0.72700  0.44200  1.0000
  N   N8        1.0  0.55800  0.28500  0.55800  1.0000
  N   N9        1.0  0.28500  0.55800  0.55800  1.0000
  N   N10       1.0  0.27300  0.27300  0.71500  1.0000
  N   N11       1.0  0.44200  0.00000  0.72700  1.0000
  N   N12       1.0  0.00000  0.44200  0.72700  1.0000
  P   P1        1.0  0.75000  0.50000  0.25000  1.0000
  P   P2        1.0  0.50000  0.75000  0.25000  1.0000
  P   P3        1.0  0.75000  0.25000  0.50000  1.0000
  P   P4        1.0  0.25000  0.75000  0.50000  1.0000
  P   P5        1.0  0.50000  0.25000  0.75000  1.0000
  P   P6        1.0  0.25000  0.50000  0.75000  1.0000
  S   S1        1.0  0.00000  0.00000  0.00000  1.0000
