data_image0
_chemical_formula_structural       B4H16Mg2
_chemical_formula_sum              "B4 H16 Mg2"
_cell_length_a       5.58474
_cell_length_b       5.58474
_cell_length_c       5.74268
_cell_angle_alpha    90
_cell_angle_beta     90
_cell_angle_gamma    90

_space_group_name_H-M_alt    "P 1"
_space_group_IT_number       1

loop_
  _space_group_symop_operation_xyz
  'x, y, z'

loop_
  _atom_site_type_symbol
  _atom_site_label
  _atom_site_symmetry_multiplicity
  _atom_site_fract_x
  _atom_site_fract_y
  _atom_site_fract_z
  _atom_site_occupancy
  B   B1        1.0  0.26600  0.26600  0.24200  1.0000
  B   B2        1.0  0.73400  0.73400  0.24200  1.0000
  B   B3        1.0  0.76600  0.23400  0.74200  1.0000
  B   B4        1.0  0.23400  0.76600  0.74200  1.0000
  H   H1        1.0  0.27600  0.27600  0.03110  1.0000
  H   H2        1.0  0.72400  0.72400  0.03110  1.0000
  H   H3        1.0  0.46400  0.20100  0.30900  1.0000
  H   H4        1.0  0.20100  0.46400  0.30900  1.0000
  H   H5        1.0  0.79900  0.53600  0.30900  1.0000
  H   H6        1.0  0.53600  0.79900  0.30900  1.0000
  H   H7        1.0  0.12200  0.12200  0.32100  1.0000
  H   H8        1.0  0.87800  0.87800  0.32100  1.0000
  H   H9        1.0  0.77600  0.22400  0.53100  1.0000
  H   H10       1.0  0.22400  0.77600  0.53100  1.0000
  H   H11       1.0  0.70100  0.03650  0.80900  1.0000
  H   H12       1.0  0.96400  0.29900  0.80900  1.0000
  H   H13       1.0  0.03650  0.70100  0.80900  1.0000
  H   H14       1.0  0.29900  0.96400  0.80900  1.0000
  H   H15       1.0  0.62200  0.37800  0.82100  1.0000
  H   H16       1.0  0.37800  0.62200  0.82100  1.0000
  Mg  Mg1       1.0  0.00000  0.00000  0.00896  1.0000
  Mg  Mg2       1.0  0.50000  0.50000  0.50900  1.0000
