data_image0
_chemical_formula_structural       Eu4Ir2Mg2O12
_chemical_formula_sum              "Eu4 Ir2 Mg2 O12"
_cell_length_a       5.42759
_cell_length_b       5.542
_cell_length_c       7.73235
_cell_angle_alpha    90
_cell_angle_beta     89.9756
_cell_angle_gamma    90

_space_group_name_H-M_alt    "P 1"
_space_group_IT_number       1

loop_
  _space_group_symop_operation_xyz
  'x, y, z'

loop_
  _atom_site_type_symbol
  _atom_site_label
  _atom_site_symmetry_multiplicity
  _atom_site_fract_x
  _atom_site_fract_y
  _atom_site_fract_z
  _atom_site_occupancy
  Eu  Eu1       1.0  0.00922  0.54300  0.25000  1.0000
  Eu  Eu2       1.0  0.49100  0.04290  0.25000  1.0000
  Eu  Eu3       1.0  0.50900  0.95700  0.75000  1.0000
  Eu  Eu4       1.0  0.99100  0.45700  0.75000  1.0000
  Ir  Ir1       1.0  0.50000  0.50000  0.00000  1.0000
  Ir  Ir2       1.0  0.00000  0.00000  0.50000  1.0000
  Mg  Mg1       1.0  0.00000  0.00000  0.00000  1.0000
  Mg  Mg2       1.0  0.50000  0.50000  0.50000  1.0000
  O   O1        1.0  0.21500  0.29500  0.03620  1.0000
  O   O2        1.0  0.29700  0.78300  0.03660  1.0000
  O   O3        1.0  0.56900  0.48700  0.24500  1.0000
  O   O4        1.0  0.93100  0.98700  0.25500  1.0000
  O   O5        1.0  0.20300  0.28300  0.46300  1.0000
  O   O6        1.0  0.28500  0.79500  0.46400  1.0000
  O   O7        1.0  0.71500  0.20500  0.53600  1.0000
  O   O8        1.0  0.79700  0.71700  0.53700  1.0000
  O   O9        1.0  0.06900  0.01340  0.74500  1.0000
  O   O10       1.0  0.43100  0.51300  0.75500  1.0000
  O   O11       1.0  0.70300  0.21700  0.96300  1.0000
  O   O12       1.0  0.78500  0.70500  0.96400  1.0000
