data_image0
_chemical_formula_structural       C8Mg2N12
_chemical_formula_sum              "C8 Mg2 N12"
_cell_length_a       5.9802
_cell_length_b       7.02827
_cell_length_c       7.48359
_cell_angle_alpha    90
_cell_angle_beta     90
_cell_angle_gamma    90

_space_group_name_H-M_alt    "P 1"
_space_group_IT_number       1

loop_
  _space_group_symop_operation_xyz
  'x, y, z'

loop_
  _atom_site_type_symbol
  _atom_site_label
  _atom_site_symmetry_multiplicity
  _atom_site_fract_x
  _atom_site_fract_y
  _atom_site_fract_z
  _atom_site_occupancy
  C   C1        1.0  0.23800  0.34900  0.15200  1.0000
  C   C2        1.0  0.76200  0.65100  0.15200  1.0000
  C   C3        1.0  0.73800  0.15100  0.34800  1.0000
  C   C4        1.0  0.26200  0.84900  0.34800  1.0000
  C   C5        1.0  0.73800  0.15100  0.65200  1.0000
  C   C6        1.0  0.26200  0.84900  0.65200  1.0000
  C   C7        1.0  0.23800  0.34900  0.84800  1.0000
  C   C8        1.0  0.76200  0.65100  0.84800  1.0000
  Mg  Mg1       1.0  0.00000  0.00000  0.00000  1.0000
  Mg  Mg2       1.0  0.50000  0.50000  0.50000  1.0000
  N   N1        1.0  0.16800  0.27900  0.00000  1.0000
  N   N2        1.0  0.83200  0.72100  0.00000  1.0000
  N   N3        1.0  0.79000  0.09830  0.20600  1.0000
  N   N4        1.0  0.21000  0.90200  0.20600  1.0000
  N   N5        1.0  0.29000  0.40200  0.29400  1.0000
  N   N6        1.0  0.71000  0.59800  0.29400  1.0000
  N   N7        1.0  0.66800  0.22100  0.50000  1.0000
  N   N8        1.0  0.33200  0.77900  0.50000  1.0000
  N   N9        1.0  0.29000  0.40200  0.70600  1.0000
  N   N10       1.0  0.71000  0.59800  0.70600  1.0000
  N   N11       1.0  0.79000  0.09830  0.79400  1.0000
  N   N12       1.0  0.21000  0.90200  0.79400  1.0000
