data_image0
_chemical_formula_structural       Mg2O12Pt2Sr6
_chemical_formula_sum              "Mg2 O12 Pt2 Sr6"
_cell_length_a       6.67618
_cell_length_b       6.67618
_cell_length_c       6.67618
_cell_angle_alpha    92.1538
_cell_angle_beta     92.1538
_cell_angle_gamma    92.1538

_space_group_name_H-M_alt    "P 1"
_space_group_IT_number       1

loop_
  _space_group_symop_operation_xyz
  'x, y, z'

loop_
  _atom_site_type_symbol
  _atom_site_label
  _atom_site_symmetry_multiplicity
  _atom_site_fract_x
  _atom_site_fract_y
  _atom_site_fract_z
  _atom_site_occupancy
  Mg  Mg1       1.0  0.25000  0.25000  0.25000  1.0000
  Mg  Mg2       1.0  0.75000  0.75000  0.75000  1.0000
  O   O1        1.0  0.70900  0.90500  0.03440  1.0000
  O   O2        1.0  0.96600  0.29100  0.09480  1.0000
  O   O3        1.0  0.53400  0.40500  0.20900  1.0000
  O   O4        1.0  0.09480  0.96600  0.29100  1.0000
  O   O5        1.0  0.20900  0.53400  0.40500  1.0000
  O   O6        1.0  0.59500  0.79100  0.46600  1.0000
  O   O7        1.0  0.40500  0.20900  0.53400  1.0000
  O   O8        1.0  0.79100  0.46600  0.59500  1.0000
  O   O9        1.0  0.90500  0.03440  0.70900  1.0000
  O   O10       1.0  0.46600  0.59500  0.79100  1.0000
  O   O11       1.0  0.03440  0.70900  0.90500  1.0000
  O   O12       1.0  0.29100  0.09480  0.96600  1.0000
  Pt  Pt1       1.0  0.00000  0.00000  0.00000  1.0000
  Pt  Pt2       1.0  0.50000  0.50000  0.50000  1.0000
  Sr  Sr1       1.0  0.38400  0.75000  0.11600  1.0000
  Sr  Sr2       1.0  0.88400  0.61600  0.25000  1.0000
  Sr  Sr3       1.0  0.75000  0.11600  0.38400  1.0000
  Sr  Sr4       1.0  0.25000  0.88400  0.61600  1.0000
  Sr  Sr5       1.0  0.11600  0.38400  0.75000  1.0000
  Sr  Sr6       1.0  0.61600  0.25000  0.88400  1.0000
