data_image0
_chemical_formula_structural       Ir2Mg2O12Sr6
_chemical_formula_sum              "Ir2 Mg2 O12 Sr6"
_cell_length_a       6.67353
_cell_length_b       6.67353
_cell_length_c       6.67353
_cell_angle_alpha    92.3178
_cell_angle_beta     92.3178
_cell_angle_gamma    92.3178

_space_group_name_H-M_alt    "P 1"
_space_group_IT_number       1

loop_
  _space_group_symop_operation_xyz
  'x, y, z'

loop_
  _atom_site_type_symbol
  _atom_site_label
  _atom_site_symmetry_multiplicity
  _atom_site_fract_x
  _atom_site_fract_y
  _atom_site_fract_z
  _atom_site_occupancy
  Ir  Ir1       1.0  0.00000  0.00000  0.00000  1.0000
  Ir  Ir2       1.0  0.50000  0.50000  0.50000  1.0000
  Mg  Mg1       1.0  0.25000  0.25000  0.25000  1.0000
  Mg  Mg2       1.0  0.75000  0.75000  0.75000  1.0000
  O   O1        1.0  0.71100  0.90500  0.03580  1.0000
  O   O2        1.0  0.96400  0.28900  0.09520  1.0000
  O   O3        1.0  0.53600  0.40500  0.21100  1.0000
  O   O4        1.0  0.09520  0.96400  0.28900  1.0000
  O   O5        1.0  0.21100  0.53600  0.40500  1.0000
  O   O6        1.0  0.59500  0.78900  0.46400  1.0000
  O   O7        1.0  0.40500  0.21100  0.53600  1.0000
  O   O8        1.0  0.78900  0.46400  0.59500  1.0000
  O   O9        1.0  0.90500  0.03580  0.71100  1.0000
  O   O10       1.0  0.46400  0.59500  0.78900  1.0000
  O   O11       1.0  0.03580  0.71100  0.90500  1.0000
  O   O12       1.0  0.28900  0.09520  0.96400  1.0000
  Sr  Sr1       1.0  0.38400  0.75000  0.11600  1.0000
  Sr  Sr2       1.0  0.88400  0.61600  0.25000  1.0000
  Sr  Sr3       1.0  0.75000  0.11600  0.38400  1.0000
  Sr  Sr4       1.0  0.25000  0.88400  0.61600  1.0000
  Sr  Sr5       1.0  0.11600  0.38400  0.75000  1.0000
  Sr  Sr6       1.0  0.61600  0.25000  0.88400  1.0000
