data_image0
_chemical_formula_structural       B8Mg4Ru10
_chemical_formula_sum              "B8 Mg4 Ru10"
_cell_length_a       10.0529
_cell_length_b       8.4271
_cell_length_c       2.95977
_cell_angle_alpha    90
_cell_angle_beta     90
_cell_angle_gamma    90

_space_group_name_H-M_alt    "P 1"
_space_group_IT_number       1

loop_
  _space_group_symop_operation_xyz
  'x, y, z'

loop_
  _atom_site_type_symbol
  _atom_site_label
  _atom_site_symmetry_multiplicity
  _atom_site_fract_x
  _atom_site_fract_y
  _atom_site_fract_z
  _atom_site_occupancy
  B   B1        1.0  0.08900  0.03950  0.50000  1.0000
  B   B2        1.0  0.39700  0.14800  0.50000  1.0000
  B   B3        1.0  0.89700  0.35200  0.50000  1.0000
  B   B4        1.0  0.58900  0.46000  0.50000  1.0000
  B   B5        1.0  0.41100  0.54000  0.50000  1.0000
  B   B6        1.0  0.10300  0.64800  0.50000  1.0000
  B   B7        1.0  0.60300  0.85200  0.50000  1.0000
  B   B8        1.0  0.91100  0.96000  0.50000  1.0000
  Mg  Mg1       1.0  0.68400  0.14900  0.50000  1.0000
  Mg  Mg2       1.0  0.18400  0.35100  0.50000  1.0000
  Mg  Mg3       1.0  0.81600  0.64900  0.50000  1.0000
  Mg  Mg4       1.0  0.31600  0.85100  0.50000  1.0000
  Ru  Ru1       1.0  0.50000  0.00000  0.00000  1.0000
  Ru  Ru2       1.0  0.23800  0.10400  0.00000  1.0000
  Ru  Ru3       1.0  0.95200  0.15600  0.00000  1.0000
  Ru  Ru4       1.0  0.45200  0.34400  0.00000  1.0000
  Ru  Ru5       1.0  0.73800  0.39600  0.00000  1.0000
  Ru  Ru6       1.0  0.00000  0.50000  0.00000  1.0000
  Ru  Ru7       1.0  0.26200  0.60400  0.00000  1.0000
  Ru  Ru8       1.0  0.54800  0.65600  0.00000  1.0000
  Ru  Ru9       1.0  0.04800  0.84400  0.00000  1.0000
  Ru  Ru10      1.0  0.76200  0.89600  0.00000  1.0000
