data_image0
_chemical_formula_structural       Mg2O12Rh2Sr6
_chemical_formula_sum              "Mg2 O12 Rh2 Sr6"
_cell_length_a       6.65585
_cell_length_b       6.65585
_cell_length_c       6.65585
_cell_angle_alpha    92.58
_cell_angle_beta     92.58
_cell_angle_gamma    92.58

_space_group_name_H-M_alt    "P 1"
_space_group_IT_number       1

loop_
  _space_group_symop_operation_xyz
  'x, y, z'

loop_
  _atom_site_type_symbol
  _atom_site_label
  _atom_site_symmetry_multiplicity
  _atom_site_fract_x
  _atom_site_fract_y
  _atom_site_fract_z
  _atom_site_occupancy
  Mg  Mg1       1.0  0.25000  0.25000  0.25000  1.0000
  Mg  Mg2       1.0  0.75000  0.75000  0.75000  1.0000
  O   O1        1.0  0.71000  0.90700  0.03610  1.0000
  O   O2        1.0  0.96400  0.29000  0.09300  1.0000
  O   O3        1.0  0.53600  0.40700  0.21000  1.0000
  O   O4        1.0  0.09300  0.96400  0.29000  1.0000
  O   O5        1.0  0.21000  0.53600  0.40700  1.0000
  O   O6        1.0  0.59300  0.79000  0.46400  1.0000
  O   O7        1.0  0.40700  0.21000  0.53600  1.0000
  O   O8        1.0  0.79000  0.46400  0.59300  1.0000
  O   O9        1.0  0.90700  0.03610  0.71000  1.0000
  O   O10       1.0  0.46400  0.59300  0.79000  1.0000
  O   O11       1.0  0.03610  0.71000  0.90700  1.0000
  O   O12       1.0  0.29000  0.09300  0.96400  1.0000
  Rh  Rh1       1.0  0.00000  0.00000  0.00000  1.0000
  Rh  Rh2       1.0  0.50000  0.50000  0.50000  1.0000
  Sr  Sr1       1.0  0.38300  0.75000  0.11700  1.0000
  Sr  Sr2       1.0  0.88300  0.61700  0.25000  1.0000
  Sr  Sr3       1.0  0.75000  0.11700  0.38300  1.0000
  Sr  Sr4       1.0  0.25000  0.88300  0.61700  1.0000
  Sr  Sr5       1.0  0.11700  0.38300  0.75000  1.0000
  Sr  Sr6       1.0  0.61700  0.25000  0.88300  1.0000
