data_image0
_chemical_formula_structural       Ce2Mg17Ru4
_chemical_formula_sum              "Ce2 Mg17 Ru4"
_cell_length_a       8.69094
_cell_length_b       8.69094
_cell_length_c       8.69094
_cell_angle_alpha    109.305
_cell_angle_beta     109.555
_cell_angle_gamma    109.555

_space_group_name_H-M_alt    "P 1"
_space_group_IT_number       1

loop_
  _space_group_symop_operation_xyz
  'x, y, z'

loop_
  _atom_site_type_symbol
  _atom_site_label
  _atom_site_symmetry_multiplicity
  _atom_site_fract_x
  _atom_site_fract_y
  _atom_site_fract_z
  _atom_site_occupancy
  Ce  Ce1       1.0  0.00000  0.33200  0.33200  1.0000
  Ce  Ce2       1.0  0.00000  0.66800  0.66800  1.0000
  Mg  Mg1       1.0  0.00000  0.00000  0.00000  1.0000
  Mg  Mg2       1.0  0.34300  0.85700  0.10900  1.0000
  Mg  Mg3       1.0  0.25200  0.48600  0.14300  1.0000
  Mg  Mg4       1.0  0.00000  0.71000  0.14700  1.0000
  Mg  Mg5       1.0  0.68700  0.50000  0.18700  1.0000
  Mg  Mg6       1.0  0.74800  0.89100  0.23400  1.0000
  Mg  Mg7       1.0  0.43700  0.29000  0.29000  1.0000
  Mg  Mg8       1.0  0.25200  0.14300  0.48600  1.0000
  Mg  Mg9       1.0  0.68700  0.18700  0.50000  1.0000
  Mg  Mg10      1.0  0.31300  0.81300  0.50000  1.0000
  Mg  Mg11      1.0  0.65700  0.76600  0.51400  1.0000
  Mg  Mg12      1.0  0.00000  0.14700  0.71000  1.0000
  Mg  Mg13      1.0  0.65700  0.51400  0.76600  1.0000
  Mg  Mg14      1.0  0.31300  0.50000  0.81300  1.0000
  Mg  Mg15      1.0  0.56300  0.85300  0.85300  1.0000
  Mg  Mg16      1.0  0.34300  0.10900  0.85700  1.0000
  Mg  Mg17      1.0  0.74800  0.23400  0.89100  1.0000
  Ru  Ru1       1.0  0.62500  0.14700  0.14700  1.0000
  Ru  Ru2       1.0  0.00000  0.85300  0.47700  1.0000
  Ru  Ru3       1.0  0.37500  0.52300  0.52300  1.0000
  Ru  Ru4       1.0  0.00000  0.47700  0.85300  1.0000
