data_image0
_chemical_formula_structural       Bi4Ni2
_chemical_formula_sum              "Bi4 Ni2"
_cell_length_a       4.09379
_cell_length_b       5.54312
_cell_length_c       6.83211
_cell_angle_alpha    79.8474
_cell_angle_beta     72.5812
_cell_angle_gamma    90.0114

_space_group_name_H-M_alt    "P 1"
_space_group_IT_number       1

loop_
  _space_group_symop_operation_xyz
  'x, y, z'

loop_
  _atom_site_type_symbol
  _atom_site_label
  _atom_site_symmetry_multiplicity
  _atom_site_fract_x
  _atom_site_fract_y
  _atom_site_fract_z
  _atom_site_occupancy
  Bi  Bi1       1.0  0.16000  0.70100  0.06890  1.0000
  Bi  Bi2       1.0  0.48100  0.33900  0.42600  1.0000
  Bi  Bi3       1.0  0.90800  0.82500  0.57300  1.0000
  Bi  Bi4       1.0  0.73300  0.21500  0.92200  1.0000
  Ni  Ni1       1.0  0.09020  0.16900  0.20800  1.0000
  Ni  Ni2       1.0  0.55100  0.87100  0.28700  1.0000
