data_image0
_chemical_formula_structural       Ir2Nd2P2
_chemical_formula_sum              "Ir2 Nd2 P2"
_cell_length_a       4.1092
_cell_length_b       4.1092
_cell_length_c       7.70032
_cell_angle_alpha    105.475
_cell_angle_beta     105.475
_cell_angle_gamma    90

_space_group_name_H-M_alt    "P 1"
_space_group_IT_number       1

loop_
  _space_group_symop_operation_xyz
  'x, y, z'

loop_
  _atom_site_type_symbol
  _atom_site_label
  _atom_site_symmetry_multiplicity
  _atom_site_fract_x
  _atom_site_fract_y
  _atom_site_fract_z
  _atom_site_occupancy
  Ir  Ir1       1.0  0.66300  0.16300  0.32600  1.0000
  Ir  Ir2       1.0  0.41300  0.41300  0.82600  1.0000
  Nd  Nd1       1.0  0.00028  0.00028  0.00055  1.0000
  Nd  Nd2       1.0  0.25000  0.75000  0.50100  1.0000
  P   P1        1.0  0.58000  0.58000  0.15900  1.0000
  P   P2        1.0  0.83000  0.33000  0.65900  1.0000
