data_image0
_chemical_formula_structural       As2Ce2Nb2O2
_chemical_formula_sum              "As2 Ce2 Nb2 O2"
_cell_length_a       4.24809
_cell_length_b       4.24809
_cell_length_c       8.2736
_cell_angle_alpha    90
_cell_angle_beta     90
_cell_angle_gamma    90

_space_group_name_H-M_alt    "P 1"
_space_group_IT_number       1

loop_
  _space_group_symop_operation_xyz
  'x, y, z'

loop_
  _atom_site_type_symbol
  _atom_site_label
  _atom_site_symmetry_multiplicity
  _atom_site_fract_x
  _atom_site_fract_y
  _atom_site_fract_z
  _atom_site_occupancy
  As  As1       1.0  0.75000  0.75000  0.23700  1.0000
  As  As2       1.0  0.25000  0.25000  0.76300  1.0000
  Ce  Ce1       1.0  0.75000  0.25000  0.50000  1.0000
  Ce  Ce2       1.0  0.25000  0.75000  0.50000  1.0000
  Nb  Nb1       1.0  0.25000  0.25000  0.08620  1.0000
  Nb  Nb2       1.0  0.75000  0.75000  0.91400  1.0000
  O   O1        1.0  0.75000  0.25000  0.00000  1.0000
  O   O2        1.0  0.25000  0.75000  0.00000  1.0000
