data_image0
_chemical_formula_structural       Ir6Mg2Si14
_chemical_formula_sum              "Ir6 Mg2 Si14"
_cell_length_a       7.56832
_cell_length_b       7.56832
_cell_length_c       7.98411
_cell_angle_alpha    118.292
_cell_angle_beta     118.292
_cell_angle_gamma    60

_space_group_name_H-M_alt    "P 1"
_space_group_IT_number       1

loop_
  _space_group_symop_operation_xyz
  'x, y, z'

loop_
  _atom_site_type_symbol
  _atom_site_label
  _atom_site_symmetry_multiplicity
  _atom_site_fract_x
  _atom_site_fract_y
  _atom_site_fract_z
  _atom_site_occupancy
  Ir  Ir1       1.0  0.07380  0.75000  0.25000  1.0000
  Ir  Ir2       1.0  0.42600  0.07380  0.25000  1.0000
  Ir  Ir3       1.0  0.75000  0.42600  0.25000  1.0000
  Ir  Ir4       1.0  0.25000  0.57400  0.75000  1.0000
  Ir  Ir5       1.0  0.57400  0.92600  0.75000  1.0000
  Ir  Ir6       1.0  0.92600  0.25000  0.75000  1.0000
  Mg  Mg1       1.0  0.00000  0.00000  0.00000  1.0000
  Mg  Mg2       1.0  0.50000  0.50000  0.50000  1.0000
  Si  Si1       1.0  0.17300  0.35000  0.08820  1.0000
  Si  Si2       1.0  0.35000  0.56500  0.08820  1.0000
  Si  Si3       1.0  0.56500  0.17300  0.08820  1.0000
  Si  Si4       1.0  0.75000  0.75000  0.25000  1.0000
  Si  Si5       1.0  0.15000  0.32700  0.41200  1.0000
  Si  Si6       1.0  0.32700  0.93500  0.41200  1.0000
  Si  Si7       1.0  0.93500  0.15000  0.41200  1.0000
  Si  Si8       1.0  0.06500  0.85000  0.58800  1.0000
  Si  Si9       1.0  0.67300  0.06500  0.58800  1.0000
  Si  Si10      1.0  0.85000  0.67300  0.58800  1.0000
  Si  Si11      1.0  0.25000  0.25000  0.75000  1.0000
  Si  Si12      1.0  0.43500  0.82700  0.91200  1.0000
  Si  Si13      1.0  0.65000  0.43500  0.91200  1.0000
  Si  Si14      1.0  0.82700  0.65000  0.91200  1.0000
