data_image0
_chemical_formula_structural       F2Nd2O2
_chemical_formula_sum              "F2 Nd2 O2"
_cell_length_a       3.93398
_cell_length_b       3.93398
_cell_length_c       6.91143
_cell_angle_alpha    106.535
_cell_angle_beta     73.4651
_cell_angle_gamma    120

_space_group_name_H-M_alt    "P 1"
_space_group_IT_number       1

loop_
  _space_group_symop_operation_xyz
  'x, y, z'

loop_
  _atom_site_type_symbol
  _atom_site_label
  _atom_site_symmetry_multiplicity
  _atom_site_fract_x
  _atom_site_fract_y
  _atom_site_fract_z
  _atom_site_occupancy
  F   F1        1.0  0.63000  0.37000  0.10900  1.0000
  F   F2        1.0  0.37000  0.63000  0.89100  1.0000
  Nd  Nd1       1.0  0.24200  0.75800  0.27400  1.0000
  Nd  Nd2       1.0  0.75800  0.24200  0.72600  1.0000
  O   O1        1.0  0.87800  0.12200  0.36500  1.0000
  O   O2        1.0  0.12200  0.87800  0.63500  1.0000
