data_image0
_chemical_formula_structural       Cr2N2O2Sn2
_chemical_formula_sum              "Cr2 N2 O2 Sn2"
_cell_length_a       3.46123
_cell_length_b       5.764
_cell_length_c       6.0343
_cell_angle_alpha    90
_cell_angle_beta     90
_cell_angle_gamma    90

_space_group_name_H-M_alt    "P 1"
_space_group_IT_number       1

loop_
  _space_group_symop_operation_xyz
  'x, y, z'

loop_
  _atom_site_type_symbol
  _atom_site_label
  _atom_site_symmetry_multiplicity
  _atom_site_fract_x
  _atom_site_fract_y
  _atom_site_fract_z
  _atom_site_occupancy
  Cr  Cr1       1.0  0.00000  0.51400  0.37900  1.0000
  Cr  Cr2       1.0  0.00000  0.01430  0.62100  1.0000
  N   N1        1.0  0.00000  0.85900  0.30800  1.0000
  N   N2        1.0  0.00000  0.35900  0.69200  1.0000
  O   O1        1.0  0.50000  0.37900  0.17600  1.0000
  O   O2        1.0  0.50000  0.87900  0.82400  1.0000
  Sn  Sn1       1.0  0.50000  0.00229  0.15800  1.0000
  Sn  Sn2       1.0  0.50000  0.50200  0.84200  1.0000
