data_image0
_chemical_formula_structural       As2Cr2Cs2O2
_chemical_formula_sum              "As2 Cr2 Cs2 O2"
_cell_length_a       4.38362
_cell_length_b       4.38362
_cell_length_c       10.3445
_cell_angle_alpha    88.3904
_cell_angle_beta     88.3904
_cell_angle_gamma    90.1179

_space_group_name_H-M_alt    "P 1"
_space_group_IT_number       1

loop_
  _space_group_symop_operation_xyz
  'x, y, z'

loop_
  _atom_site_type_symbol
  _atom_site_label
  _atom_site_symmetry_multiplicity
  _atom_site_fract_x
  _atom_site_fract_y
  _atom_site_fract_z
  _atom_site_occupancy
  As  As1       1.0  0.80500  0.80500  0.28300  1.0000
  As  As2       1.0  0.25500  0.25500  0.77400  1.0000
  Cr  Cr1       1.0  0.25600  0.25600  0.00988  1.0000
  Cr  Cr2       1.0  0.74600  0.74600  0.05050  1.0000
  Cs  Cs1       1.0  0.77000  0.27100  0.52900  1.0000
  Cs  Cs2       1.0  0.27100  0.77000  0.52900  1.0000
  O   O1        1.0  0.74700  0.26300  0.02970  1.0000
  O   O2        1.0  0.26300  0.74700  0.02970  1.0000
