data_image0
_chemical_formula_structural       Al2N2O2Zn2
_chemical_formula_sum              "Al2 N2 O2 Zn2"
_cell_length_a       3.16606
_cell_length_b       5.16671
_cell_length_c       5.45755
_cell_angle_alpha    90
_cell_angle_beta     90
_cell_angle_gamma    90

_space_group_name_H-M_alt    "P 1"
_space_group_IT_number       1

loop_
  _space_group_symop_operation_xyz
  'x, y, z'

loop_
  _atom_site_type_symbol
  _atom_site_label
  _atom_site_symmetry_multiplicity
  _atom_site_fract_x
  _atom_site_fract_y
  _atom_site_fract_z
  _atom_site_occupancy
  Al  Al1       1.0  0.00000  0.50300  0.34400  1.0000
  Al  Al2       1.0  0.00000  0.00345  0.65600  1.0000
  N   N1        1.0  0.00000  0.85900  0.34700  1.0000
  N   N2        1.0  0.00000  0.35900  0.65300  1.0000
  O   O1        1.0  0.50000  0.40100  0.19000  1.0000
  O   O2        1.0  0.50000  0.90100  0.81000  1.0000
  Zn  Zn1       1.0  0.50000  0.99000  0.18000  1.0000
  Zn  Zn2       1.0  0.50000  0.49000  0.82000  1.0000
