data_image0
_chemical_formula_structural       As4Cr2
_chemical_formula_sum              "As4 Cr2"
_cell_length_a       3.21737
_cell_length_b       4.73712
_cell_length_c       6.66609
_cell_angle_alpha    91.4405
_cell_angle_beta     103.965
_cell_angle_gamma    109.852

_space_group_name_H-M_alt    "P 1"
_space_group_IT_number       1

loop_
  _space_group_symop_operation_xyz
  'x, y, z'

loop_
  _atom_site_type_symbol
  _atom_site_label
  _atom_site_symmetry_multiplicity
  _atom_site_fract_x
  _atom_site_fract_y
  _atom_site_fract_z
  _atom_site_occupancy
  As  As1       1.0  0.88700  0.73700  0.03670  1.0000
  As  As2       1.0  0.79800  0.20200  0.39400  1.0000
  As  As3       1.0  0.20200  0.79800  0.60600  1.0000
  As  As4       1.0  0.11300  0.26300  0.96300  1.0000
  Cr  Cr1       1.0  0.45300  0.60700  0.30000  1.0000
  Cr  Cr2       1.0  0.54700  0.39300  0.70000  1.0000
