data_image0
_chemical_formula_structural       Sb2Tb2Zr2
_chemical_formula_sum              "Sb2 Tb2 Zr2"
_cell_length_a       4.28618
_cell_length_b       4.28618
_cell_length_c       8.85806
_cell_angle_alpha    104.001
_cell_angle_beta     104.001
_cell_angle_gamma    90

_space_group_name_H-M_alt    "P 1"
_space_group_IT_number       1

loop_
  _space_group_symop_operation_xyz
  'x, y, z'

loop_
  _atom_site_type_symbol
  _atom_site_label
  _atom_site_symmetry_multiplicity
  _atom_site_fract_x
  _atom_site_fract_y
  _atom_site_fract_z
  _atom_site_occupancy
  Sb  Sb1       1.0  0.13300  0.13300  0.26500  1.0000
  Sb  Sb2       1.0  0.86700  0.86700  0.73500  1.0000
  Tb  Tb1       1.0  0.67600  0.67600  0.35300  1.0000
  Tb  Tb2       1.0  0.32400  0.32400  0.64700  1.0000
  Zr  Zr1       1.0  0.50000  0.00000  0.00000  1.0000
  Zr  Zr2       1.0  0.00000  0.50000  0.00000  1.0000
