data_image0
_chemical_formula_structural       Cd2Eu2Pb2
_chemical_formula_sum              "Cd2 Eu2 Pb2"
_cell_length_a       4.99386
_cell_length_b       4.9938
_cell_length_c       7.89343
_cell_angle_alpha    90
_cell_angle_beta     90
_cell_angle_gamma    120

_space_group_name_H-M_alt    "P 1"
_space_group_IT_number       1

loop_
  _space_group_symop_operation_xyz
  'x, y, z'

loop_
  _atom_site_type_symbol
  _atom_site_label
  _atom_site_symmetry_multiplicity
  _atom_site_fract_x
  _atom_site_fract_y
  _atom_site_fract_z
  _atom_site_occupancy
  Cd  Cd1       1.0  0.33300  0.66700  0.45000  1.0000
  Cd  Cd2       1.0  0.66700  0.33300  0.95000  1.0000
  Eu  Eu1       1.0  0.00000  0.00000  0.25200  1.0000
  Eu  Eu2       1.0  0.00001  0.00002  0.75200  1.0000
  Pb  Pb1       1.0  0.33300  0.66700  0.04570  1.0000
  Pb  Pb2       1.0  0.66700  0.33300  0.54600  1.0000
