data_image0
_chemical_formula_structural       Ba2Mg17
_chemical_formula_sum              "Ba2 Mg17"
_cell_length_a       8.03284
_cell_length_b       8.03284
_cell_length_c       8.03284
_cell_angle_alpha    97.1851
_cell_angle_beta     82.8149
_cell_angle_gamma    97.1851

_space_group_name_H-M_alt    "P 1"
_space_group_IT_number       1

loop_
  _space_group_symop_operation_xyz
  'x, y, z'

loop_
  _atom_site_type_symbol
  _atom_site_label
  _atom_site_symmetry_multiplicity
  _atom_site_fract_x
  _atom_site_fract_y
  _atom_site_fract_z
  _atom_site_occupancy
  Ba  Ba1       1.0  0.33900  0.66100  0.33900  1.0000
  Ba  Ba2       1.0  0.66100  0.33900  0.66100  1.0000
  Mg  Mg1       1.0  0.50000  1.00000  0.00000  1.0000
  Mg  Mg2       1.0  0.70800  0.70800  0.00000  1.0000
  Mg  Mg3       1.0  0.29200  0.29200  0.00000  1.0000
  Mg  Mg4       1.0  0.00000  0.50000  0.00000  1.0000
  Mg  Mg5       1.0  0.09770  0.90200  0.09770  1.0000
  Mg  Mg6       1.0  0.65300  0.34700  0.15300  1.0000
  Mg  Mg7       1.0  0.00000  0.29200  0.29200  1.0000
  Mg  Mg8       1.0  0.70800  0.00000  0.29200  1.0000
  Mg  Mg9       1.0  0.34700  0.15300  0.34700  1.0000
  Mg  Mg10      1.0  0.84700  0.65300  0.34700  1.0000
  Mg  Mg11      1.0  0.00000  0.00000  0.50000  1.0000
  Mg  Mg12      1.0  0.65300  0.84700  0.65300  1.0000
  Mg  Mg13      1.0  0.15300  0.34700  0.65300  1.0000
  Mg  Mg14      1.0  0.29200  0.00000  0.70800  1.0000
  Mg  Mg15      1.0  0.00000  0.70800  0.70800  1.0000
  Mg  Mg16      1.0  0.34700  0.65300  0.84700  1.0000
  Mg  Mg17      1.0  0.90200  0.09770  0.90200  1.0000
