data_image0
_chemical_formula_structural       Cl4Mg2O16
_chemical_formula_sum              "Cl4 Mg2 O16"
_cell_length_a       4.77542
_cell_length_b       8.38137
_cell_length_c       7.67493
_cell_angle_alpha    90
_cell_angle_beta     118.884
_cell_angle_gamma    90

_space_group_name_H-M_alt    "P 1"
_space_group_IT_number       1

loop_
  _space_group_symop_operation_xyz
  'x, y, z'

loop_
  _atom_site_type_symbol
  _atom_site_label
  _atom_site_symmetry_multiplicity
  _atom_site_fract_x
  _atom_site_fract_y
  _atom_site_fract_z
  _atom_site_occupancy
  Cl  Cl1       1.0  0.31000  0.33300  0.24300  1.0000
  Cl  Cl2       1.0  0.69000  0.83300  0.25700  1.0000
  Cl  Cl3       1.0  0.31000  0.16700  0.74300  1.0000
  Cl  Cl4       1.0  0.69000  0.66700  0.75700  1.0000
  Mg  Mg1       1.0  0.00000  0.00000  0.00000  1.0000
  Mg  Mg2       1.0  0.00000  0.50000  0.50000  1.0000
  O   O1        1.0  0.38900  0.85800  0.07060  1.0000
  O   O2        1.0  0.30500  0.41500  0.08050  1.0000
  O   O3        1.0  0.28400  0.16100  0.21000  1.0000
  O   O4        1.0  0.95300  0.88300  0.22300  1.0000
  O   O5        1.0  0.04730  0.38300  0.27700  1.0000
  O   O6        1.0  0.71600  0.66100  0.29000  1.0000
  O   O7        1.0  0.69500  0.91500  0.41900  1.0000
  O   O8        1.0  0.61100  0.35800  0.42900  1.0000
  O   O9        1.0  0.38900  0.64200  0.57100  1.0000
  O   O10       1.0  0.30500  0.08490  0.58100  1.0000
  O   O11       1.0  0.28400  0.33900  0.71000  1.0000
  O   O12       1.0  0.95300  0.61700  0.72300  1.0000
  O   O13       1.0  0.04730  0.11700  0.77700  1.0000
  O   O14       1.0  0.71600  0.83900  0.79000  1.0000
  O   O15       1.0  0.69500  0.58500  0.91900  1.0000
  O   O16       1.0  0.61100  0.14200  0.92900  1.0000
