data_image0
_chemical_formula_structural       Au4V2
_chemical_formula_sum              "Au4 V2"
_cell_length_a       4.75987
_cell_length_b       4.80916
_cell_length_c       4.93053
_cell_angle_alpha    119.189
_cell_angle_beta     90
_cell_angle_gamma    90

_space_group_name_H-M_alt    "P 1"
_space_group_IT_number       1

loop_
  _space_group_symop_operation_xyz
  'x, y, z'

loop_
  _atom_site_type_symbol
  _atom_site_label
  _atom_site_symmetry_multiplicity
  _atom_site_fract_x
  _atom_site_fract_y
  _atom_site_fract_z
  _atom_site_occupancy
  Au  Au1       1.0  0.50000  0.16100  0.32300  1.0000
  Au  Au2       1.0  0.00000  0.60200  0.32300  1.0000
  Au  Au3       1.0  0.00000  0.27900  0.67700  1.0000
  Au  Au4       1.0  0.50000  0.83800  0.67700  1.0000
  V   V1        1.0  0.50000  0.50200  0.00000  1.0000
  V   V2        1.0  0.00000  0.93800  0.00000  1.0000
