data_image0
_chemical_formula_structural       Ag2As2O2U2
_chemical_formula_sum              "Ag2 As2 O2 U2"
_cell_length_a       3.98005
_cell_length_b       3.98005
_cell_length_c       8.97258
_cell_angle_alpha    90
_cell_angle_beta     90
_cell_angle_gamma    90

_space_group_name_H-M_alt    "P 1"
_space_group_IT_number       1

loop_
  _space_group_symop_operation_xyz
  'x, y, z'

loop_
  _atom_site_type_symbol
  _atom_site_label
  _atom_site_symmetry_multiplicity
  _atom_site_fract_x
  _atom_site_fract_y
  _atom_site_fract_z
  _atom_site_occupancy
  Ag  Ag1       1.0  0.75000  0.25000  0.50000  1.0000
  Ag  Ag2       1.0  0.25000  0.75000  0.50000  1.0000
  As  As1       1.0  0.75000  0.75000  0.29000  1.0000
  As  As2       1.0  0.25000  0.25000  0.71000  1.0000
  O   O1        1.0  0.75000  0.25000  0.00000  1.0000
  O   O2        1.0  0.25000  0.75000  0.00000  1.0000
  U   U1        1.0  0.25000  0.25000  0.14800  1.0000
  U   U2        1.0  0.75000  0.75000  0.85200  1.0000
