data_image0
_chemical_formula_structural       CrNaPu
_chemical_formula_sum              "Cr1 Na1 Pu1"
_cell_length_a       4.35739
_cell_length_b       4.35739
_cell_length_c       4.35739
_cell_angle_alpha    59.7899
_cell_angle_beta     59.7899
_cell_angle_gamma    59.7899

_space_group_name_H-M_alt    "P 1"
_space_group_IT_number       1

loop_
  _space_group_symop_operation_xyz
  'x, y, z'

loop_
  _atom_site_type_symbol
  _atom_site_label
  _atom_site_symmetry_multiplicity
  _atom_site_fract_x
  _atom_site_fract_y
  _atom_site_fract_z
  _atom_site_occupancy
  Cr  Cr1       1.0  0.00061  0.00061  0.00061  1.0000
  Na  Na1       1.0  0.25000  0.25000  0.25000  1.0000
  Pu  Pu1       1.0  0.74900  0.74900  0.74900  1.0000
