data_image0
_chemical_formula_structural       Ba2H16Mg4Ru2
_chemical_formula_sum              "Ba2 H16 Mg4 Ru2"
_cell_length_a       4.91367
_cell_length_b       4.91367
_cell_length_c       10.6766
_cell_angle_alpha    90
_cell_angle_beta     90
_cell_angle_gamma    90

_space_group_name_H-M_alt    "P 1"
_space_group_IT_number       1

loop_
  _space_group_symop_operation_xyz
  'x, y, z'

loop_
  _atom_site_type_symbol
  _atom_site_label
  _atom_site_symmetry_multiplicity
  _atom_site_fract_x
  _atom_site_fract_y
  _atom_site_fract_z
  _atom_site_occupancy
  Ba  Ba1       1.0  0.50000  0.00000  0.00000  1.0000
  Ba  Ba2       1.0  0.00000  0.50000  0.50000  1.0000
  H   H1        1.0  0.25400  0.50000  0.00000  1.0000
  H   H2        1.0  0.74600  0.50000  0.00000  1.0000
  H   H3        1.0  0.00000  0.00000  0.09140  1.0000
  H   H4        1.0  0.24700  0.24700  0.25000  1.0000
  H   H5        1.0  0.75300  0.24700  0.25000  1.0000
  H   H6        1.0  0.24700  0.75300  0.25000  1.0000
  H   H7        1.0  0.75300  0.75300  0.25000  1.0000
  H   H8        1.0  0.00000  0.00000  0.40900  1.0000
  H   H9        1.0  0.50000  0.25400  0.50000  1.0000
  H   H10       1.0  0.50000  0.74600  0.50000  1.0000
  H   H11       1.0  0.00000  0.00000  0.59100  1.0000
  H   H12       1.0  0.24700  0.24700  0.75000  1.0000
  H   H13       1.0  0.75300  0.24700  0.75000  1.0000
  H   H14       1.0  0.24700  0.75300  0.75000  1.0000
  H   H15       1.0  0.75300  0.75300  0.75000  1.0000
  H   H16       1.0  0.00000  0.00000  0.90900  1.0000
  Mg  Mg1       1.0  0.00000  0.50000  0.14000  1.0000
  Mg  Mg2       1.0  0.50000  0.00000  0.36000  1.0000
  Mg  Mg3       1.0  0.50000  0.00000  0.64000  1.0000
  Mg  Mg4       1.0  0.00000  0.50000  0.86000  1.0000
  Ru  Ru1       1.0  0.00000  0.00000  0.25000  1.0000
  Ru  Ru2       1.0  0.00000  0.00000  0.75000  1.0000
