data_image0
_chemical_formula_structural       Al3Ni3Pr3
_chemical_formula_sum              "Al3 Ni3 Pr3"
_cell_length_a       7.06811
_cell_length_b       7.06811
_cell_length_c       4.10123
_cell_angle_alpha    90
_cell_angle_beta     90
_cell_angle_gamma    120

_space_group_name_H-M_alt    "P 1"
_space_group_IT_number       1

loop_
  _space_group_symop_operation_xyz
  'x, y, z'

loop_
  _atom_site_type_symbol
  _atom_site_label
  _atom_site_symmetry_multiplicity
  _atom_site_fract_x
  _atom_site_fract_y
  _atom_site_fract_z
  _atom_site_occupancy
  Al  Al1       1.0  0.22700  0.00001  0.00000  1.0000
  Al  Al2       1.0  0.00001  0.22700  0.00000  1.0000
  Al  Al3       1.0  0.77300  0.77300  0.00000  1.0000
  Ni  Ni1       1.0  0.66700  0.33300  0.00000  1.0000
  Ni  Ni2       1.0  0.33300  0.66700  0.00000  1.0000
  Ni  Ni3       1.0  0.00001  0.00001  0.50000  1.0000
  Pr  Pr1       1.0  0.58000  0.00002  0.50000  1.0000
  Pr  Pr2       1.0  0.42000  0.42000  0.50000  1.0000
  Pr  Pr3       1.0  0.00002  0.58000  0.50000  1.0000
