data_image0
_chemical_formula_structural       Pr8Rh8Zn8
_chemical_formula_sum              "Pr8 Rh8 Zn8"
_cell_length_a       7.33106
_cell_length_b       4.05365
_cell_length_c       16.6017
_cell_angle_alpha    90
_cell_angle_beta     90
_cell_angle_gamma    90

_space_group_name_H-M_alt    "P 1"
_space_group_IT_number       1

loop_
  _space_group_symop_operation_xyz
  'x, y, z'

loop_
  _atom_site_type_symbol
  _atom_site_label
  _atom_site_symmetry_multiplicity
  _atom_site_fract_x
  _atom_site_fract_y
  _atom_site_fract_z
  _atom_site_occupancy
  Pr  Pr1       1.0  0.16700  0.25000  0.06050  1.0000
  Pr  Pr2       1.0  0.54700  0.25000  0.21700  1.0000
  Pr  Pr3       1.0  0.04700  0.25000  0.28300  1.0000
  Pr  Pr4       1.0  0.66700  0.25000  0.44000  1.0000
  Pr  Pr5       1.0  0.33300  0.75000  0.56000  1.0000
  Pr  Pr6       1.0  0.95300  0.75000  0.71700  1.0000
  Pr  Pr7       1.0  0.45300  0.75000  0.78300  1.0000
  Pr  Pr8       1.0  0.83300  0.75000  0.94000  1.0000
  Rh  Rh1       1.0  0.74300  0.25000  0.06490  1.0000
  Rh  Rh2       1.0  0.25200  0.75000  0.18600  1.0000
  Rh  Rh3       1.0  0.75200  0.75000  0.31400  1.0000
  Rh  Rh4       1.0  0.24300  0.25000  0.43500  1.0000
  Rh  Rh5       1.0  0.75700  0.75000  0.56500  1.0000
  Rh  Rh6       1.0  0.24800  0.25000  0.68600  1.0000
  Rh  Rh7       1.0  0.74800  0.25000  0.81400  1.0000
  Rh  Rh8       1.0  0.25700  0.75000  0.93500  1.0000
  Zn  Zn1       1.0  0.50100  0.75000  0.06060  1.0000
  Zn  Zn2       1.0  0.87400  0.75000  0.15000  1.0000
  Zn  Zn3       1.0  0.37400  0.75000  0.35000  1.0000
  Zn  Zn4       1.0  0.00141  0.75000  0.43900  1.0000
  Zn  Zn5       1.0  0.99900  0.25000  0.56100  1.0000
  Zn  Zn6       1.0  0.62600  0.25000  0.65000  1.0000
  Zn  Zn7       1.0  0.12600  0.25000  0.85000  1.0000
  Zn  Zn8       1.0  0.49900  0.25000  0.93900  1.0000
