data_image0
_chemical_formula_structural       La4Mg2O12Rh2
_chemical_formula_sum              "La4 Mg2 O12 Rh2"
_cell_length_a       5.55675
_cell_length_b       5.60093
_cell_length_c       7.86473
_cell_angle_alpha    90
_cell_angle_beta     89.9469
_cell_angle_gamma    90

_space_group_name_H-M_alt    "P 1"
_space_group_IT_number       1

loop_
  _space_group_symop_operation_xyz
  'x, y, z'

loop_
  _atom_site_type_symbol
  _atom_site_label
  _atom_site_symmetry_multiplicity
  _atom_site_fract_x
  _atom_site_fract_y
  _atom_site_fract_z
  _atom_site_occupancy
  La  La1       1.0  0.50800  0.54200  0.24900  1.0000
  La  La2       1.0  0.99200  0.04180  0.25100  1.0000
  La  La3       1.0  0.00778  0.95800  0.74900  1.0000
  La  La4       1.0  0.49200  0.45800  0.75100  1.0000
  Mg  Mg1       1.0  0.50000  0.00000  0.00000  1.0000
  Mg  Mg2       1.0  0.00000  0.50000  0.50000  1.0000
  O   O1        1.0  0.71100  0.29200  0.04320  1.0000
  O   O2        1.0  0.79400  0.78900  0.04470  1.0000
  O   O3        1.0  0.08240  0.48200  0.24900  1.0000
  O   O4        1.0  0.41800  0.98200  0.25100  1.0000
  O   O5        1.0  0.70600  0.28900  0.45500  1.0000
  O   O6        1.0  0.78900  0.79200  0.45700  1.0000
  O   O7        1.0  0.21100  0.20800  0.54300  1.0000
  O   O8        1.0  0.29400  0.71100  0.54500  1.0000
  O   O9        1.0  0.58200  0.01820  0.74900  1.0000
  O   O10       1.0  0.91800  0.51800  0.75100  1.0000
  O   O11       1.0  0.20600  0.21100  0.95500  1.0000
  O   O12       1.0  0.28900  0.70800  0.95700  1.0000
  Rh  Rh1       1.0  0.00000  0.50000  0.00000  1.0000
  Rh  Rh2       1.0  0.50000  0.00000  0.50000  1.0000
