data_image0
_chemical_formula_structural       Mg2O6Si2
_chemical_formula_sum              "Mg2 O6 Si2"
_cell_length_a       4.73583
_cell_length_b       4.73582
_cell_length_c       5.26443
_cell_angle_alpha    116.731
_cell_angle_beta     116.731
_cell_angle_gamma    60

_space_group_name_H-M_alt    "P 1"
_space_group_IT_number       1

loop_
  _space_group_symop_operation_xyz
  'x, y, z'

loop_
  _atom_site_type_symbol
  _atom_site_label
  _atom_site_symmetry_multiplicity
  _atom_site_fract_x
  _atom_site_fract_y
  _atom_site_fract_z
  _atom_site_occupancy
  Mg  Mg1       1.0  0.36000  0.36000  0.07930  1.0000
  Mg  Mg2       1.0  0.64000  0.64000  0.92100  1.0000
  O   O1        1.0  0.43700  0.79400  0.27700  1.0000
  O   O2        1.0  0.04560  0.43700  0.27700  1.0000
  O   O3        1.0  0.79400  0.04560  0.27700  1.0000
  O   O4        1.0  0.20600  0.95400  0.72300  1.0000
  O   O5        1.0  0.95400  0.56300  0.72300  1.0000
  O   O6        1.0  0.56300  0.20600  0.72300  1.0000
  Si  Si1       1.0  0.15800  0.15800  0.47300  1.0000
  Si  Si2       1.0  0.84200  0.84200  0.52700  1.0000
