data_image0
_chemical_formula_structural       Eu2H4O8Si2
_chemical_formula_sum              "Eu2 H4 O8 Si2"
_cell_length_a       6.19412
_cell_length_b       6.19412
_cell_length_c       6.19412
_cell_angle_alpha    99.2965
_cell_angle_beta     114.786
_cell_angle_gamma    114.786

_space_group_name_H-M_alt    "P 1"
_space_group_IT_number       1

loop_
  _space_group_symop_operation_xyz
  'x, y, z'

loop_
  _atom_site_type_symbol
  _atom_site_label
  _atom_site_symmetry_multiplicity
  _atom_site_fract_x
  _atom_site_fract_y
  _atom_site_fract_z
  _atom_site_occupancy
  Eu  Eu1       1.0  0.00000  0.50000  0.50000  1.0000
  Eu  Eu2       1.0  0.50000  0.25000  0.75000  1.0000
  H   H1        1.0  0.50000  0.53900  0.03880  1.0000
  H   H2        1.0  0.00000  0.21100  0.21100  1.0000
  H   H3        1.0  0.50000  0.96100  0.46100  1.0000
  H   H4        1.0  0.00000  0.78900  0.78900  1.0000
  O   O1        1.0  0.67100  0.59900  0.27200  1.0000
  O   O2        1.0  0.17300  0.15100  0.32200  1.0000
  O   O3        1.0  0.32700  0.72800  0.39900  1.0000
  O   O4        1.0  0.67300  0.07200  0.40100  1.0000
  O   O5        1.0  0.17100  0.02240  0.84900  1.0000
  O   O6        1.0  0.82900  0.67800  0.85100  1.0000
  O   O7        1.0  0.32900  0.60100  0.92800  1.0000
  O   O8        1.0  0.82700  0.14900  0.97800  1.0000
  Si  Si1       1.0  0.00000  0.00000  0.00000  1.0000
  Si  Si2       1.0  0.50000  0.75000  0.25000  1.0000
