data_image0
_chemical_formula_structural       As2Ca4
_chemical_formula_sum              "As2 Ca4"
_cell_length_a       4.5644
_cell_length_b       4.5644
_cell_length_c       8.55502
_cell_angle_alpha    105.472
_cell_angle_beta     105.472
_cell_angle_gamma    90

_space_group_name_H-M_alt    "P 1"
_space_group_IT_number       1

loop_
  _space_group_symop_operation_xyz
  'x, y, z'

loop_
  _atom_site_type_symbol
  _atom_site_label
  _atom_site_symmetry_multiplicity
  _atom_site_fract_x
  _atom_site_fract_y
  _atom_site_fract_z
  _atom_site_occupancy
  As  As1       1.0  0.13400  0.13400  0.26900  1.0000
  As  As2       1.0  0.86600  0.86600  0.73100  1.0000
  Ca  Ca1       1.0  0.50000  0.00000  0.00000  1.0000
  Ca  Ca2       1.0  0.00000  0.50000  0.00000  1.0000
  Ca  Ca3       1.0  0.67900  0.67900  0.35800  1.0000
  Ca  Ca4       1.0  0.32100  0.32100  0.64200  1.0000
