data_image0
_chemical_formula_structural       Ba4Mg8Sn8
_chemical_formula_sum              "Ba4 Mg8 Sn8"
_cell_length_a       4.92236
_cell_length_b       4.92236
_cell_length_c       24.3904
_cell_angle_alpha    90
_cell_angle_beta     90
_cell_angle_gamma    90

_space_group_name_H-M_alt    "P 1"
_space_group_IT_number       1

loop_
  _space_group_symop_operation_xyz
  'x, y, z'

loop_
  _atom_site_type_symbol
  _atom_site_label
  _atom_site_symmetry_multiplicity
  _atom_site_fract_x
  _atom_site_fract_y
  _atom_site_fract_z
  _atom_site_occupancy
  Ba  Ba1       1.0  0.00000  0.50000  0.12900  1.0000
  Ba  Ba2       1.0  0.50000  0.00000  0.38000  1.0000
  Ba  Ba3       1.0  0.00000  0.50000  0.62000  1.0000
  Ba  Ba4       1.0  0.50000  0.00000  0.87100  1.0000
  Mg  Mg1       1.0  0.00000  0.00000  0.00000  1.0000
  Mg  Mg2       1.0  0.50000  0.50000  0.00000  1.0000
  Mg  Mg3       1.0  0.00000  0.00000  0.25200  1.0000
  Mg  Mg4       1.0  0.50000  0.50000  0.25200  1.0000
  Mg  Mg5       1.0  0.00000  0.50000  0.43400  1.0000
  Mg  Mg6       1.0  0.50000  0.00000  0.56600  1.0000
  Mg  Mg7       1.0  0.00000  0.00000  0.74800  1.0000
  Mg  Mg8       1.0  0.50000  0.50000  0.74800  1.0000
  Sn  Sn1       1.0  0.50000  0.00000  0.06590  1.0000
  Sn  Sn2       1.0  0.50000  0.00000  0.18500  1.0000
  Sn  Sn3       1.0  0.00000  0.50000  0.31800  1.0000
  Sn  Sn4       1.0  0.00000  0.00000  0.50000  1.0000
  Sn  Sn5       1.0  0.50000  0.50000  0.50000  1.0000
  Sn  Sn6       1.0  0.50000  0.00000  0.68200  1.0000
  Sn  Sn7       1.0  0.00000  0.50000  0.81500  1.0000
  Sn  Sn8       1.0  0.00000  0.50000  0.93400  1.0000
