data_image0
_chemical_formula_structural       Mg6O12Te2
_chemical_formula_sum              "Mg6 O12 Te2"
_cell_length_a       6.02762
_cell_length_b       6.02762
_cell_length_c       6.02763
_cell_angle_alpha    90.7863
_cell_angle_beta     90.7863
_cell_angle_gamma    90.7863

_space_group_name_H-M_alt    "P 1"
_space_group_IT_number       1

loop_
  _space_group_symop_operation_xyz
  'x, y, z'

loop_
  _atom_site_type_symbol
  _atom_site_label
  _atom_site_symmetry_multiplicity
  _atom_site_fract_x
  _atom_site_fract_y
  _atom_site_fract_z
  _atom_site_occupancy
  Mg  Mg1       1.0  0.24900  0.55500  0.06520  1.0000
  Mg  Mg2       1.0  0.55500  0.06520  0.24900  1.0000
  Mg  Mg3       1.0  0.93500  0.75100  0.44500  1.0000
  Mg  Mg4       1.0  0.06520  0.24900  0.55500  1.0000
  Mg  Mg5       1.0  0.44500  0.93500  0.75100  1.0000
  Mg  Mg6       1.0  0.75100  0.44500  0.93500  1.0000
  O   O1        1.0  0.30300  0.92400  0.07270  1.0000
  O   O2        1.0  0.92700  0.69700  0.07620  1.0000
  O   O3        1.0  0.54500  0.40800  0.19600  1.0000
  O   O4        1.0  0.92400  0.07270  0.30300  1.0000
  O   O5        1.0  0.19600  0.54500  0.40800  1.0000
  O   O6        1.0  0.59200  0.80400  0.45500  1.0000
  O   O7        1.0  0.40800  0.19600  0.54500  1.0000
  O   O8        1.0  0.80400  0.45500  0.59200  1.0000
  O   O9        1.0  0.07620  0.92700  0.69700  1.0000
  O   O10       1.0  0.45500  0.59200  0.80400  1.0000
  O   O11       1.0  0.07270  0.30300  0.92400  1.0000
  O   O12       1.0  0.69700  0.07620  0.92700  1.0000
  Te  Te1       1.0  0.00000  0.00000  0.00000  1.0000
  Te  Te2       1.0  0.50000  0.50000  0.50000  1.0000
