data_image0
_chemical_formula_structural       H4Ho2O8Si2
_chemical_formula_sum              "H4 Ho2 O8 Si2"
_cell_length_a       5.69374
_cell_length_b       5.69374
_cell_length_c       6.17723
_cell_angle_alpha    106.435
_cell_angle_beta     106.435
_cell_angle_gamma    112.713

_space_group_name_H-M_alt    "P 1"
_space_group_IT_number       1

loop_
  _space_group_symop_operation_xyz
  'x, y, z'

loop_
  _atom_site_type_symbol
  _atom_site_label
  _atom_site_symmetry_multiplicity
  _atom_site_fract_x
  _atom_site_fract_y
  _atom_site_fract_z
  _atom_site_occupancy
  H   H1        1.0  0.36900  0.94400  0.04190  1.0000
  H   H2        1.0  0.07660  0.15200  0.45800  1.0000
  H   H3        1.0  0.69400  0.61900  0.54200  1.0000
  H   H4        1.0  0.90200  0.32700  0.95800  1.0000
  Ho  Ho1       1.0  0.51400  0.51400  0.00000  1.0000
  Ho  Ho2       1.0  0.26400  0.76400  0.50000  1.0000
  O   O1        1.0  0.07400  0.33300  0.08110  1.0000
  O   O2        1.0  0.00650  0.88700  0.22000  1.0000
  O   O3        1.0  0.53600  0.91600  0.28000  1.0000
  O   O4        1.0  0.74300  0.50200  0.41900  1.0000
  O   O5        1.0  0.08310  0.32400  0.58100  1.0000
  O   O6        1.0  0.63700  0.25600  0.72000  1.0000
  O   O7        1.0  0.66600  0.78600  0.78000  1.0000
  O   O8        1.0  0.25200  0.99300  0.91900  1.0000
  Si  Si1       1.0  0.99100  0.99100  0.00000  1.0000
  Si  Si2       1.0  0.74100  0.24100  0.50000  1.0000
