data_image0
_chemical_formula_structural       Gd2H4O8Si2
_chemical_formula_sum              "Gd2 H4 O8 Si2"
_cell_length_a       5.77408
_cell_length_b       5.77408
_cell_length_c       6.20502
_cell_angle_alpha    106.428
_cell_angle_beta     106.428
_cell_angle_gamma    113.089

_space_group_name_H-M_alt    "P 1"
_space_group_IT_number       1

loop_
  _space_group_symop_operation_xyz
  'x, y, z'

loop_
  _atom_site_type_symbol
  _atom_site_label
  _atom_site_symmetry_multiplicity
  _atom_site_fract_x
  _atom_site_fract_y
  _atom_site_fract_z
  _atom_site_occupancy
  Gd  Gd1       1.0  0.51200  0.51200  0.00000  1.0000
  Gd  Gd2       1.0  0.26200  0.76200  0.50000  1.0000
  H   H1        1.0  0.36900  0.95000  0.05130  1.0000
  H   H2        1.0  0.06720  0.14900  0.44900  1.0000
  H   H3        1.0  0.70000  0.61900  0.55100  1.0000
  H   H4        1.0  0.89900  0.31700  0.94900  1.0000
  O   O1        1.0  0.07000  0.32800  0.07600  1.0000
  O   O2        1.0  0.00746  0.89800  0.22400  1.0000
  O   O3        1.0  0.53300  0.92300  0.27600  1.0000
  O   O4        1.0  0.74400  0.50200  0.42400  1.0000
  O   O5        1.0  0.07750  0.32000  0.57600  1.0000
  O   O6        1.0  0.64800  0.25700  0.72400  1.0000
  O   O7        1.0  0.67300  0.78300  0.77600  1.0000
  O   O8        1.0  0.25200  0.99400  0.92400  1.0000
  Si  Si1       1.0  0.99300  0.99300  0.00000  1.0000
  Si  Si2       1.0  0.74300  0.24300  0.50000  1.0000
