data_image0
_chemical_formula_structural       H4O8Si2Tb2
_chemical_formula_sum              "H4 O8 Si2 Tb2"
_cell_length_a       6.13637
_cell_length_b       6.13637
_cell_length_c       6.13637
_cell_angle_alpha    95.8029
_cell_angle_beta     116.708
_cell_angle_gamma    116.708

_space_group_name_H-M_alt    "P 1"
_space_group_IT_number       1

loop_
  _space_group_symop_operation_xyz
  'x, y, z'

loop_
  _atom_site_type_symbol
  _atom_site_label
  _atom_site_symmetry_multiplicity
  _atom_site_fract_x
  _atom_site_fract_y
  _atom_site_fract_z
  _atom_site_occupancy
  H   H1        1.0  0.50000  0.52000  0.01980  1.0000
  H   H2        1.0  0.00000  0.23000  0.23000  1.0000
  H   H3        1.0  0.50000  0.98000  0.48000  1.0000
  H   H4        1.0  0.00000  0.77000  0.77000  1.0000
  O   O1        1.0  0.68700  0.61200  0.30000  1.0000
  O   O2        1.0  0.18800  0.13800  0.32500  1.0000
  O   O3        1.0  0.31200  0.70000  0.38700  1.0000
  O   O4        1.0  0.68800  0.07500  0.38800  1.0000
  O   O5        1.0  0.18700  0.04990  0.86200  1.0000
  O   O6        1.0  0.81300  0.67500  0.86300  1.0000
  O   O7        1.0  0.31300  0.61300  0.92500  1.0000
  O   O8        1.0  0.81200  0.13700  0.95000  1.0000
  Si  Si1       1.0  0.00000  0.00000  0.00000  1.0000
  Si  Si2       1.0  0.50000  0.75000  0.25000  1.0000
  Tb  Tb1       1.0  0.00000  0.50000  0.50000  1.0000
  Tb  Tb2       1.0  0.50000  0.25000  0.75000  1.0000
