data_image0
_chemical_formula_structural       H4O8Pr2Si2
_chemical_formula_sum              "H4 O8 Pr2 Si2"
_cell_length_a       6.85225
_cell_length_b       6.38293
_cell_length_c       4.85394
_cell_angle_alpha    90
_cell_angle_beta     117.315
_cell_angle_gamma    90

_space_group_name_H-M_alt    "P 1"
_space_group_IT_number       1

loop_
  _space_group_symop_operation_xyz
  'x, y, z'

loop_
  _atom_site_type_symbol
  _atom_site_label
  _atom_site_symmetry_multiplicity
  _atom_site_fract_x
  _atom_site_fract_y
  _atom_site_fract_z
  _atom_site_occupancy
  H   H1        1.0  0.41800  0.75000  0.12100  1.0000
  H   H2        1.0  0.00000  0.00000  0.50000  1.0000
  H   H3        1.0  0.00000  0.50000  0.50000  1.0000
  H   H4        1.0  0.58200  0.25000  0.87900  1.0000
  O   O1        1.0  0.58400  0.25000  0.14400  1.0000
  O   O2        1.0  0.08570  0.54700  0.34000  1.0000
  O   O3        1.0  0.08570  0.95300  0.34000  1.0000
  O   O4        1.0  0.44200  0.75000  0.36300  1.0000
  O   O5        1.0  0.55800  0.25000  0.63700  1.0000
  O   O6        1.0  0.91400  0.04730  0.66000  1.0000
  O   O7        1.0  0.91400  0.45300  0.66000  1.0000
  O   O8        1.0  0.41600  0.75000  0.85600  1.0000
  Pr  Pr1       1.0  0.21900  0.25000  0.12900  1.0000
  Pr  Pr2       1.0  0.78100  0.75000  0.87100  1.0000
  Si  Si1       1.0  0.25600  0.75000  0.48800  1.0000
  Si  Si2       1.0  0.74400  0.25000  0.51200  1.0000
