data_image0
_chemical_formula_structural       Dy2H4O8Si2
_chemical_formula_sum              "Dy2 H4 O8 Si2"
_cell_length_a       6.11497
_cell_length_b       6.11497
_cell_length_c       6.11497
_cell_angle_alpha    95.754
_cell_angle_beta     116.735
_cell_angle_gamma    116.735

_space_group_name_H-M_alt    "P 1"
_space_group_IT_number       1

loop_
  _space_group_symop_operation_xyz
  'x, y, z'

loop_
  _atom_site_type_symbol
  _atom_site_label
  _atom_site_symmetry_multiplicity
  _atom_site_fract_x
  _atom_site_fract_y
  _atom_site_fract_z
  _atom_site_occupancy
  Dy  Dy1       1.0  0.00000  0.50000  0.50000  1.0000
  Dy  Dy2       1.0  0.50000  0.25000  0.75000  1.0000
  H   H1        1.0  0.50000  0.51900  0.01900  1.0000
  H   H2        1.0  0.00000  0.23100  0.23100  1.0000
  H   H3        1.0  0.50000  0.98100  0.48100  1.0000
  H   H4        1.0  0.00000  0.76900  0.76900  1.0000
  O   O1        1.0  0.68800  0.61100  0.30000  1.0000
  O   O2        1.0  0.18900  0.13900  0.32600  1.0000
  O   O3        1.0  0.31100  0.70000  0.38700  1.0000
  O   O4        1.0  0.68900  0.07630  0.38900  1.0000
  O   O5        1.0  0.18800  0.05040  0.86100  1.0000
  O   O6        1.0  0.81200  0.67400  0.86300  1.0000
  O   O7        1.0  0.31200  0.61300  0.92400  1.0000
  O   O8        1.0  0.81100  0.13700  0.95000  1.0000
  Si  Si1       1.0  0.00000  0.00000  0.00000  1.0000
  Si  Si2       1.0  0.50000  0.75000  0.25000  1.0000
