data_image0
_chemical_formula_structural       H4Lu2O8Si2
_chemical_formula_sum              "H4 Lu2 O8 Si2"
_cell_length_a       5.48467
_cell_length_b       5.48467
_cell_length_c       6.26501
_cell_angle_alpha    106.578
_cell_angle_beta     106.578
_cell_angle_gamma    110.376

_space_group_name_H-M_alt    "P 1"
_space_group_IT_number       1

loop_
  _space_group_symop_operation_xyz
  'x, y, z'

loop_
  _atom_site_type_symbol
  _atom_site_label
  _atom_site_symmetry_multiplicity
  _atom_site_fract_x
  _atom_site_fract_y
  _atom_site_fract_z
  _atom_site_occupancy
  H   H1        1.0  0.93000  0.37400  0.01820  1.0000
  H   H2        1.0  0.66200  0.60600  0.48200  1.0000
  H   H3        1.0  0.12400  0.18000  0.51800  1.0000
  H   H4        1.0  0.35600  0.91200  0.98200  1.0000
  Lu  Lu1       1.0  0.52200  0.52200  0.00000  1.0000
  Lu  Lu2       1.0  0.27200  0.77200  0.50000  1.0000
  O   O1        1.0  0.09930  0.34800  0.11600  1.0000
  O   O2        1.0  0.00383  0.83600  0.19000  1.0000
  O   O3        1.0  0.56400  0.89600  0.31000  1.0000
  O   O4        1.0  0.73300  0.48200  0.38400  1.0000
  O   O5        1.0  0.09830  0.34900  0.61600  1.0000
  O   O6        1.0  0.58600  0.25400  0.69000  1.0000
  O   O7        1.0  0.64600  0.81400  0.81000  1.0000
  O   O8        1.0  0.23200  0.98300  0.88400  1.0000
  Si  Si1       1.0  0.98600  0.98600  0.00000  1.0000
  Si  Si2       1.0  0.73600  0.23600  0.50000  1.0000
