data_image0
_chemical_formula_structural       Er2H4O8Si2
_chemical_formula_sum              "Er2 H4 O8 Si2"
_cell_length_a       5.69083
_cell_length_b       5.69083
_cell_length_c       6.16145
_cell_angle_alpha    106.4
_cell_angle_beta     106.4
_cell_angle_gamma    112.868

_space_group_name_H-M_alt    "P 1"
_space_group_IT_number       1

loop_
  _space_group_symop_operation_xyz
  'x, y, z'

loop_
  _atom_site_type_symbol
  _atom_site_label
  _atom_site_symmetry_multiplicity
  _atom_site_fract_x
  _atom_site_fract_y
  _atom_site_fract_z
  _atom_site_occupancy
  Er  Er1       1.0  0.51400  0.51400  0.00000  1.0000
  Er  Er2       1.0  0.26400  0.76400  0.50000  1.0000
  H   H1        1.0  0.36900  0.94500  0.04200  1.0000
  H   H2        1.0  0.07680  0.15300  0.45800  1.0000
  H   H3        1.0  0.69500  0.61900  0.54200  1.0000
  H   H4        1.0  0.90300  0.32700  0.95800  1.0000
  O   O1        1.0  0.07560  0.33400  0.08120  1.0000
  O   O2        1.0  0.00483  0.88500  0.22000  1.0000
  O   O3        1.0  0.53500  0.91500  0.28000  1.0000
  O   O4        1.0  0.74400  0.50200  0.41900  1.0000
  O   O5        1.0  0.08370  0.32600  0.58100  1.0000
  O   O6        1.0  0.63500  0.25500  0.72000  1.0000
  O   O7        1.0  0.66500  0.78500  0.78000  1.0000
  O   O8        1.0  0.25200  0.99400  0.91900  1.0000
  Si  Si1       1.0  0.99100  0.99100  0.00000  1.0000
  Si  Si2       1.0  0.74100  0.24100  0.50000  1.0000
