data_image0
_chemical_formula_structural       H4O8Si2Tm2
_chemical_formula_sum              "H4 O8 Si2 Tm2"
_cell_length_a       6.18721
_cell_length_b       6.54541
_cell_length_c       4.75231
_cell_angle_alpha    90
_cell_angle_beta     120.363
_cell_angle_gamma    90

_space_group_name_H-M_alt    "P 1"
_space_group_IT_number       1

loop_
  _space_group_symop_operation_xyz
  'x, y, z'

loop_
  _atom_site_type_symbol
  _atom_site_label
  _atom_site_symmetry_multiplicity
  _atom_site_fract_x
  _atom_site_fract_y
  _atom_site_fract_z
  _atom_site_occupancy
  H   H1        1.0  0.50100  0.75000  0.15300  1.0000
  H   H2        1.0  0.00000  0.00000  0.50000  1.0000
  H   H3        1.0  0.00000  0.50000  0.50000  1.0000
  H   H4        1.0  0.49900  0.25000  0.84700  1.0000
  O   O1        1.0  0.45900  0.25000  0.04450  1.0000
  O   O2        1.0  0.09190  0.55000  0.33600  1.0000
  O   O3        1.0  0.09190  0.95000  0.33600  1.0000
  O   O4        1.0  0.48400  0.75000  0.42100  1.0000
  O   O5        1.0  0.51600  0.25000  0.57900  1.0000
  O   O6        1.0  0.90800  0.05020  0.66400  1.0000
  O   O7        1.0  0.90800  0.45000  0.66400  1.0000
  O   O8        1.0  0.54100  0.75000  0.95500  1.0000
  Si  Si1       1.0  0.71000  0.25000  0.43300  1.0000
  Si  Si2       1.0  0.29000  0.75000  0.56700  1.0000
  Tm  Tm1       1.0  0.14800  0.25000  0.14800  1.0000
  Tm  Tm2       1.0  0.85200  0.75000  0.85200  1.0000
