data_image0
_chemical_formula_structural       H16Mg7Ti
_chemical_formula_sum              "H16 Mg7 Ti1"
_cell_length_a       6.54672
_cell_length_b       6.54672
_cell_length_c       6.54672
_cell_angle_alpha    120
_cell_angle_beta     90
_cell_angle_gamma    120

_space_group_name_H-M_alt    "P 1"
_space_group_IT_number       1

loop_
  _space_group_symop_operation_xyz
  'x, y, z'

loop_
  _atom_site_type_symbol
  _atom_site_label
  _atom_site_symmetry_multiplicity
  _atom_site_fract_x
  _atom_site_fract_y
  _atom_site_fract_z
  _atom_site_occupancy
  H   H1        1.0  0.37300  0.74600  0.11900  1.0000
  H   H2        1.0  0.36100  0.24100  0.12000  1.0000
  H   H3        1.0  0.88000  0.24100  0.12000  1.0000
  H   H4        1.0  0.88000  0.75900  0.12000  1.0000
  H   H5        1.0  0.12000  0.24100  0.36100  1.0000
  H   H6        1.0  0.62700  0.25400  0.37300  1.0000
  H   H7        1.0  0.11900  0.74600  0.37300  1.0000
  H   H8        1.0  0.62700  0.74600  0.37300  1.0000
  H   H9        1.0  0.37300  0.25400  0.62700  1.0000
  H   H10       1.0  0.88100  0.25400  0.62700  1.0000
  H   H11       1.0  0.37300  0.74600  0.62700  1.0000
  H   H12       1.0  0.88000  0.75900  0.63900  1.0000
  H   H13       1.0  0.12000  0.24100  0.88000  1.0000
  H   H14       1.0  0.12000  0.75900  0.88000  1.0000
  H   H15       1.0  0.63900  0.75900  0.88000  1.0000
  H   H16       1.0  0.62700  0.25400  0.88100  1.0000
  Mg  Mg1       1.0  0.50000  0.00000  0.00000  1.0000
  Mg  Mg2       1.0  0.00000  0.50000  0.00000  1.0000
  Mg  Mg3       1.0  0.50000  0.50000  0.00000  1.0000
  Mg  Mg4       1.0  0.00000  0.00000  0.50000  1.0000
  Mg  Mg5       1.0  0.00000  0.50000  0.50000  1.0000
  Mg  Mg6       1.0  0.50000  0.50000  0.50000  1.0000
  Mg  Mg7       1.0  0.50000  0.00000  0.50000  1.0000
  Ti  Ti1       1.0  0.00000  0.00000  0.00000  1.0000
