data_image0
_chemical_formula_structural       H4O8Sc2Si2
_chemical_formula_sum              "H4 O8 Sc2 Si2"
_cell_length_a       6.60787
_cell_length_b       5.8691
_cell_length_c       4.91987
_cell_angle_alpha    90
_cell_angle_beta     125.057
_cell_angle_gamma    90

_space_group_name_H-M_alt    "P 1"
_space_group_IT_number       1

loop_
  _space_group_symop_operation_xyz
  'x, y, z'

loop_
  _atom_site_type_symbol
  _atom_site_label
  _atom_site_symmetry_multiplicity
  _atom_site_fract_x
  _atom_site_fract_y
  _atom_site_fract_z
  _atom_site_occupancy
  H   H1        1.0  0.46900  0.75000  0.08770  1.0000
  H   H2        1.0  0.00000  0.00000  0.50000  1.0000
  H   H3        1.0  0.00000  0.50000  0.50000  1.0000
  H   H4        1.0  0.53100  0.25000  0.91200  1.0000
  O   O1        1.0  0.50400  0.25000  0.10500  1.0000
  O   O2        1.0  0.08930  0.53300  0.34900  1.0000
  O   O3        1.0  0.08930  0.96700  0.34900  1.0000
  O   O4        1.0  0.47600  0.75000  0.37700  1.0000
  O   O5        1.0  0.52400  0.25000  0.62300  1.0000
  O   O6        1.0  0.91100  0.03270  0.65100  1.0000
  O   O7        1.0  0.91100  0.46700  0.65100  1.0000
  O   O8        1.0  0.49600  0.75000  0.89500  1.0000
  Sc  Sc1       1.0  0.17900  0.25000  0.13500  1.0000
  Sc  Sc2       1.0  0.82100  0.75000  0.86500  1.0000
  Si  Si1       1.0  0.29000  0.75000  0.48900  1.0000
  Si  Si2       1.0  0.71000  0.25000  0.51100  1.0000
