data_image0
_chemical_formula_structural       H4Nd2O8Si2
_chemical_formula_sum              "H4 Nd2 O8 Si2"
_cell_length_a       6.26081
_cell_length_b       6.26081
_cell_length_c       6.26081
_cell_angle_alpha    96.3469
_cell_angle_beta     116.406
_cell_angle_gamma    116.406

_space_group_name_H-M_alt    "P 1"
_space_group_IT_number       1

loop_
  _space_group_symop_operation_xyz
  'x, y, z'

loop_
  _atom_site_type_symbol
  _atom_site_label
  _atom_site_symmetry_multiplicity
  _atom_site_fract_x
  _atom_site_fract_y
  _atom_site_fract_z
  _atom_site_occupancy
  H   H1        1.0  0.50000  0.52500  0.02460  1.0000
  H   H2        1.0  0.00000  0.22500  0.22500  1.0000
  H   H3        1.0  0.50000  0.97500  0.47500  1.0000
  H   H4        1.0  0.00000  0.77500  0.77500  1.0000
  Nd  Nd1       1.0  0.00000  0.50000  0.50000  1.0000
  Nd  Nd2       1.0  0.50000  0.25000  0.75000  1.0000
  O   O1        1.0  0.68300  0.61500  0.29700  1.0000
  O   O2        1.0  0.18200  0.13500  0.31800  1.0000
  O   O3        1.0  0.68200  0.06840  0.38500  1.0000
  O   O4        1.0  0.31800  0.70300  0.38600  1.0000
  O   O5        1.0  0.81700  0.68200  0.86400  1.0000
  O   O6        1.0  0.18300  0.04680  0.86500  1.0000
  O   O7        1.0  0.31700  0.61400  0.93200  1.0000
  O   O8        1.0  0.81800  0.13600  0.95300  1.0000
  Si  Si1       1.0  0.00000  0.00000  0.00000  1.0000
  Si  Si2       1.0  0.50000  0.75000  0.25000  1.0000
