data_image0
_chemical_formula_structural       H4O8Si2Y2
_chemical_formula_sum              "H4 O8 Si2 Y2"
_cell_length_a       6.24771
_cell_length_b       6.60827
_cell_length_c       4.74627
_cell_angle_alpha    90
_cell_angle_beta     118.843
_cell_angle_gamma    90

_space_group_name_H-M_alt    "P 1"
_space_group_IT_number       1

loop_
  _space_group_symop_operation_xyz
  'x, y, z'

loop_
  _atom_site_type_symbol
  _atom_site_label
  _atom_site_symmetry_multiplicity
  _atom_site_fract_x
  _atom_site_fract_y
  _atom_site_fract_z
  _atom_site_occupancy
  H   H1        1.0  0.47800  0.75000  0.17400  1.0000
  H   H2        1.0  0.00000  0.00000  0.50000  1.0000
  H   H3        1.0  0.00000  0.50000  0.50000  1.0000
  H   H4        1.0  0.52200  0.25000  0.82600  1.0000
  O   O1        1.0  0.47900  0.25000  0.05960  1.0000
  O   O2        1.0  0.09660  0.55200  0.34200  1.0000
  O   O3        1.0  0.09660  0.94800  0.34200  1.0000
  O   O4        1.0  0.48000  0.75000  0.41400  1.0000
  O   O5        1.0  0.52000  0.25000  0.58600  1.0000
  O   O6        1.0  0.90300  0.05220  0.65800  1.0000
  O   O7        1.0  0.90300  0.44800  0.65800  1.0000
  O   O8        1.0  0.52100  0.75000  0.94000  1.0000
  Si  Si1       1.0  0.71400  0.25000  0.43400  1.0000
  Si  Si2       1.0  0.28600  0.75000  0.56600  1.0000
  Y   Y1        1.0  0.15500  0.25000  0.14200  1.0000
  Y   Y2        1.0  0.84500  0.75000  0.85800  1.0000
