data_image0
_chemical_formula_structural       Mg2O14Si4Sr4
_chemical_formula_sum              "Mg2 O14 Si4 Sr4"
_cell_length_a       7.99425
_cell_length_b       7.99425
_cell_length_c       5.1323
_cell_angle_alpha    90
_cell_angle_beta     90
_cell_angle_gamma    90

_space_group_name_H-M_alt    "P 1"
_space_group_IT_number       1

loop_
  _space_group_symop_operation_xyz
  'x, y, z'

loop_
  _atom_site_type_symbol
  _atom_site_label
  _atom_site_symmetry_multiplicity
  _atom_site_fract_x
  _atom_site_fract_y
  _atom_site_fract_z
  _atom_site_occupancy
  Mg  Mg1       1.0  0.00000  0.00000  0.00000  1.0000
  Mg  Mg2       1.0  0.50000  0.50000  0.00000  1.0000
  O   O1        1.0  0.50000  0.00000  0.16400  1.0000
  O   O2        1.0  0.81200  0.07930  0.20100  1.0000
  O   O3        1.0  0.57900  0.31200  0.20100  1.0000
  O   O4        1.0  0.42100  0.68800  0.20100  1.0000
  O   O5        1.0  0.18800  0.92100  0.20100  1.0000
  O   O6        1.0  0.14000  0.36000  0.25800  1.0000
  O   O7        1.0  0.86000  0.64000  0.25800  1.0000
  O   O8        1.0  0.64000  0.14000  0.74200  1.0000
  O   O9        1.0  0.36000  0.86000  0.74200  1.0000
  O   O10       1.0  0.07930  0.18800  0.79900  1.0000
  O   O11       1.0  0.31200  0.42100  0.79900  1.0000
  O   O12       1.0  0.68800  0.57900  0.79900  1.0000
  O   O13       1.0  0.92100  0.81200  0.79900  1.0000
  O   O14       1.0  0.00000  0.50000  0.83600  1.0000
  Si  Si1       1.0  0.64000  0.14000  0.05620  1.0000
  Si  Si2       1.0  0.36000  0.86000  0.05620  1.0000
  Si  Si3       1.0  0.14000  0.36000  0.94400  1.0000
  Si  Si4       1.0  0.86000  0.64000  0.94400  1.0000
  Sr  Sr1       1.0  0.83500  0.33500  0.49200  1.0000
  Sr  Sr2       1.0  0.16500  0.66500  0.49200  1.0000
  Sr  Sr3       1.0  0.33500  0.16500  0.50800  1.0000
  Sr  Sr4       1.0  0.66500  0.83500  0.50800  1.0000
