data_image0
_chemical_formula_structural       Ba4Mg6Si8
_chemical_formula_sum              "Ba4 Mg6 Si8"
_cell_length_a       4.63578
_cell_length_b       6.49156
_cell_length_c       15.6939
_cell_angle_alpha    94.6385
_cell_angle_beta     90
_cell_angle_gamma    110.92

_space_group_name_H-M_alt    "P 1"
_space_group_IT_number       1

loop_
  _space_group_symop_operation_xyz
  'x, y, z'

loop_
  _atom_site_type_symbol
  _atom_site_label
  _atom_site_symmetry_multiplicity
  _atom_site_fract_x
  _atom_site_fract_y
  _atom_site_fract_z
  _atom_site_occupancy
  Ba  Ba1       1.0  0.94100  0.88200  0.13500  1.0000
  Ba  Ba2       1.0  0.84200  0.68500  0.41000  1.0000
  Ba  Ba3       1.0  0.15800  0.31500  0.59000  1.0000
  Ba  Ba4       1.0  0.05890  0.11800  0.86500  1.0000
  Mg  Mg1       1.0  0.22000  0.43900  0.06890  1.0000
  Mg  Mg2       1.0  0.66300  0.32500  0.20500  1.0000
  Mg  Mg3       1.0  0.10700  0.21300  0.34600  1.0000
  Mg  Mg4       1.0  0.89300  0.78700  0.65400  1.0000
  Mg  Mg5       1.0  0.33700  0.67500  0.79500  1.0000
  Mg  Mg6       1.0  0.78000  0.56100  0.93100  1.0000
  Si  Si1       1.0  0.59900  0.19800  0.03000  1.0000
  Si  Si2       1.0  0.28000  0.56000  0.24600  1.0000
  Si  Si3       1.0  0.47700  0.95300  0.29600  1.0000
  Si  Si4       1.0  0.56100  0.12200  0.44300  1.0000
  Si  Si5       1.0  0.43900  0.87800  0.55700  1.0000
  Si  Si6       1.0  0.52300  0.04650  0.70400  1.0000
  Si  Si7       1.0  0.72000  0.44000  0.75400  1.0000
  Si  Si8       1.0  0.40100  0.80200  0.97000  1.0000
