data_image0
_chemical_formula_structural       BBrN2Sr2
_chemical_formula_sum              "B1 Br1 N2 Sr2"
_cell_length_a       4.11838
_cell_length_b       4.11838
_cell_length_c       9.13074
_cell_angle_alpha    103.034
_cell_angle_beta     103.034
_cell_angle_gamma    60

_space_group_name_H-M_alt    "P 1"
_space_group_IT_number       1

loop_
  _space_group_symop_operation_xyz
  'x, y, z'

loop_
  _atom_site_type_symbol
  _atom_site_label
  _atom_site_symmetry_multiplicity
  _atom_site_fract_x
  _atom_site_fract_y
  _atom_site_fract_z
  _atom_site_occupancy
  B   B1        1.0  0.50000  0.50000  0.50000  1.0000
  Br  Br1       1.0  0.00000  0.00000  0.00000  1.0000
  N   N1        1.0  0.44900  0.44900  0.34700  1.0000
  N   N2        1.0  0.55100  0.55100  0.65300  1.0000
  Sr  Sr1       1.0  0.75200  0.75200  0.25600  1.0000
  Sr  Sr2       1.0  0.24800  0.24800  0.74400  1.0000
