data_image0
_chemical_formula_structural       F4O2Os2
_chemical_formula_sum              "F4 O2 Os2"
_cell_length_a       3.65496
_cell_length_b       6.32741
_cell_length_c       4.82128
_cell_angle_alpha    110.166
_cell_angle_beta     112.275
_cell_angle_gamma    90

_space_group_name_H-M_alt    "P 1"
_space_group_IT_number       1

loop_
  _space_group_symop_operation_xyz
  'x, y, z'

loop_
  _atom_site_type_symbol
  _atom_site_label
  _atom_site_symmetry_multiplicity
  _atom_site_fract_x
  _atom_site_fract_y
  _atom_site_fract_z
  _atom_site_occupancy
  F   F1        1.0  0.15600  0.58200  0.31100  1.0000
  F   F2        1.0  0.15600  0.08170  0.31100  1.0000
  F   F3        1.0  0.84400  0.91800  0.68900  1.0000
  F   F4        1.0  0.84400  0.41800  0.68900  1.0000
  O   O1        1.0  0.50000  0.25000  0.00000  1.0000
  O   O2        1.0  0.50000  0.75000  0.00000  1.0000
  Os  Os1       1.0  0.00000  0.25000  0.00000  1.0000
  Os  Os2       1.0  0.00000  0.75000  0.00000  1.0000
