data_image0
_chemical_formula_structural       GdGe5
_chemical_formula_sum              "Gd1 Ge5"
_cell_length_a       3.99348
_cell_length_b       6.17708
_cell_length_c       6.17708
_cell_angle_alpha    106.956
_cell_angle_beta     108.86
_cell_angle_gamma    108.86

_space_group_name_H-M_alt    "P 1"
_space_group_IT_number       1

loop_
  _space_group_symop_operation_xyz
  'x, y, z'

loop_
  _atom_site_type_symbol
  _atom_site_label
  _atom_site_symmetry_multiplicity
  _atom_site_fract_x
  _atom_site_fract_y
  _atom_site_fract_z
  _atom_site_occupancy
  Gd  Gd1       1.0  0.00000  0.00000  0.00000  1.0000
  Ge  Ge1       1.0  0.79100  0.45900  0.12300  1.0000
  Ge  Ge2       1.0  0.79100  0.12300  0.45900  1.0000
  Ge  Ge3       1.0  0.50000  0.50000  0.50000  1.0000
  Ge  Ge4       1.0  0.20900  0.87700  0.54100  1.0000
  Ge  Ge5       1.0  0.20900  0.54100  0.87700  1.0000
