data_image0
_chemical_formula_structural       Gd2O2P2Zn2
_chemical_formula_sum              "Gd2 O2 P2 Zn2"
_cell_length_a       3.90982
_cell_length_b       3.90982
_cell_length_c       10.4026
_cell_angle_alpha    100.832
_cell_angle_beta     100.832
_cell_angle_gamma    60

_space_group_name_H-M_alt    "P 1"
_space_group_IT_number       1

loop_
  _space_group_symop_operation_xyz
  'x, y, z'

loop_
  _atom_site_type_symbol
  _atom_site_label
  _atom_site_symmetry_multiplicity
  _atom_site_fract_x
  _atom_site_fract_y
  _atom_site_fract_z
  _atom_site_occupancy
  Gd  Gd1       1.0  0.38000  0.38000  0.14100  1.0000
  Gd  Gd2       1.0  0.62000  0.62000  0.85900  1.0000
  O   O1        1.0  0.69500  0.69500  0.08400  1.0000
  O   O2        1.0  0.30500  0.30500  0.91600  1.0000
  P   P1        1.0  0.11200  0.11200  0.33700  1.0000
  P   P2        1.0  0.88800  0.88800  0.66300  1.0000
  Zn  Zn1       1.0  0.80400  0.80400  0.41100  1.0000
  Zn  Zn2       1.0  0.19600  0.19600  0.58900  1.0000
