data_image0
_chemical_formula_structural       Ag2As2O2Sc2
_chemical_formula_sum              "Ag2 As2 O2 Sc2"
_cell_length_a       5.34177
_cell_length_b       5.34177
_cell_length_c       4.74962
_cell_angle_alpha    90
_cell_angle_beta     90
_cell_angle_gamma    90

_space_group_name_H-M_alt    "P 1"
_space_group_IT_number       1

loop_
  _space_group_symop_operation_xyz
  'x, y, z'

loop_
  _atom_site_type_symbol
  _atom_site_label
  _atom_site_symmetry_multiplicity
  _atom_site_fract_x
  _atom_site_fract_y
  _atom_site_fract_z
  _atom_site_occupancy
  Ag  Ag1       1.0  0.25000  0.25000  0.01300  1.0000
  Ag  Ag2       1.0  0.75000  0.75000  0.98700  1.0000
  As  As1       1.0  0.75000  0.75000  0.48700  1.0000
  As  As2       1.0  0.25000  0.25000  0.51300  1.0000
  O   O1        1.0  0.75000  0.25000  0.00000  1.0000
  O   O2        1.0  0.25000  0.75000  0.00000  1.0000
  Sc  Sc1       1.0  0.75000  0.25000  0.50000  1.0000
  Sc  Sc2       1.0  0.25000  0.75000  0.50000  1.0000
