data_image0
_chemical_formula_structural       In2N2O2Pb2
_chemical_formula_sum              "In2 N2 O2 Pb2"
_cell_length_a       3.531
_cell_length_b       5.78818
_cell_length_c       7.28094
_cell_angle_alpha    90
_cell_angle_beta     90
_cell_angle_gamma    90

_space_group_name_H-M_alt    "P 1"
_space_group_IT_number       1

loop_
  _space_group_symop_operation_xyz
  'x, y, z'

loop_
  _atom_site_type_symbol
  _atom_site_label
  _atom_site_symmetry_multiplicity
  _atom_site_fract_x
  _atom_site_fract_y
  _atom_site_fract_z
  _atom_site_occupancy
  In  In1       1.0  0.00000  0.51500  0.39000  1.0000
  In  In2       1.0  0.00000  0.01500  0.61000  1.0000
  N   N1        1.0  0.00000  0.87700  0.33600  1.0000
  N   N2        1.0  0.00000  0.37700  0.66400  1.0000
  O   O1        1.0  0.50000  0.36300  0.28200  1.0000
  O   O2        1.0  0.50000  0.86300  0.71800  1.0000
  Pb  Pb1       1.0  0.50000  0.00000  0.15500  1.0000
  Pb  Pb2       1.0  0.50000  0.50000  0.84500  1.0000
