data_image0
_chemical_formula_structural       Al8FeMg3Si6
_chemical_formula_sum              "Al8 Fe1 Mg3 Si6"
_cell_length_a       6.73466
_cell_length_b       6.73466
_cell_length_c       7.63524
_cell_angle_alpha    90
_cell_angle_beta     90
_cell_angle_gamma    119.999

_space_group_name_H-M_alt    "P 1"
_space_group_IT_number       1

loop_
  _space_group_symop_operation_xyz
  'x, y, z'

loop_
  _atom_site_type_symbol
  _atom_site_label
  _atom_site_symmetry_multiplicity
  _atom_site_fract_x
  _atom_site_fract_y
  _atom_site_fract_z
  _atom_site_occupancy
  Al  Al1       1.0  0.35900  0.00002  0.00000  1.0000
  Al  Al2       1.0  0.00001  0.35900  0.00000  1.0000
  Al  Al3       1.0  0.64100  0.64100  0.00000  1.0000
  Al  Al4       1.0  0.66700  0.33300  0.21500  1.0000
  Al  Al5       1.0  0.33300  0.66700  0.21500  1.0000
  Al  Al6       1.0  0.00001  0.00001  0.50000  1.0000
  Al  Al7       1.0  0.66700  0.33300  0.78500  1.0000
  Al  Al8       1.0  0.33300  0.66700  0.78500  1.0000
  Fe  Fe1       1.0  0.00000  0.00000  0.00000  1.0000
  Mg  Mg1       1.0  0.42900  0.00001  0.50000  1.0000
  Mg  Mg2       1.0  0.00001  0.42900  0.50000  1.0000
  Mg  Mg3       1.0  0.57100  0.57100  0.50000  1.0000
  Si  Si1       1.0  0.75700  0.00002  0.23200  1.0000
  Si  Si2       1.0  0.00001  0.75700  0.23200  1.0000
  Si  Si3       1.0  0.24300  0.24300  0.23200  1.0000
  Si  Si4       1.0  0.24300  0.24300  0.76800  1.0000
  Si  Si5       1.0  0.75700  0.00002  0.76800  1.0000
  Si  Si6       1.0  0.00001  0.75700  0.76800  1.0000
