data_image0
_chemical_formula_structural       As2Co2Cr2O2
_chemical_formula_sum              "As2 Co2 Cr2 O2"
_cell_length_a       3.84576
_cell_length_b       3.84576
_cell_length_c       7.86247
_cell_angle_alpha    90.0003
_cell_angle_beta     90.0003
_cell_angle_gamma    90.0005

_space_group_name_H-M_alt    "P 1"
_space_group_IT_number       1

loop_
  _space_group_symop_operation_xyz
  'x, y, z'

loop_
  _atom_site_type_symbol
  _atom_site_label
  _atom_site_symmetry_multiplicity
  _atom_site_fract_x
  _atom_site_fract_y
  _atom_site_fract_z
  _atom_site_occupancy
  As  As1       1.0  0.75000  0.75000  0.34100  1.0000
  As  As2       1.0  0.25000  0.25000  0.65900  1.0000
  Co  Co1       1.0  0.75000  0.25000  0.50000  1.0000
  Co  Co2       1.0  0.25000  0.75000  0.50000  1.0000
  Cr  Cr1       1.0  0.25000  0.25000  0.07460  1.0000
  Cr  Cr2       1.0  0.75000  0.75000  0.92600  1.0000
  O   O1        1.0  0.75000  0.25000  0.00000  1.0000
  O   O2        1.0  0.25000  0.75000  0.00000  1.0000
