data_image0
_chemical_formula_structural       Co4Si4V4
_chemical_formula_sum              "Co4 Si4 V4"
_cell_length_a       5.93111
_cell_length_b       3.54634
_cell_length_c       6.81062
_cell_angle_alpha    90
_cell_angle_beta     90
_cell_angle_gamma    90

_space_group_name_H-M_alt    "P 1"
_space_group_IT_number       1

loop_
  _space_group_symop_operation_xyz
  'x, y, z'

loop_
  _atom_site_type_symbol
  _atom_site_label
  _atom_site_symmetry_multiplicity
  _atom_site_fract_x
  _atom_site_fract_y
  _atom_site_fract_z
  _atom_site_occupancy
  Co  Co1       1.0  0.14300  0.25000  0.06100  1.0000
  Co  Co2       1.0  0.64300  0.25000  0.43900  1.0000
  Co  Co3       1.0  0.35700  0.75000  0.56100  1.0000
  Co  Co4       1.0  0.85700  0.75000  0.93900  1.0000
  Si  Si1       1.0  0.76600  0.25000  0.12400  1.0000
  Si  Si2       1.0  0.26600  0.25000  0.37600  1.0000
  Si  Si3       1.0  0.73400  0.75000  0.62400  1.0000
  Si  Si4       1.0  0.23400  0.75000  0.87600  1.0000
  V   V1        1.0  0.47400  0.75000  0.17800  1.0000
  V   V2        1.0  0.97400  0.75000  0.32200  1.0000
  V   V3        1.0  0.02550  0.25000  0.67800  1.0000
  V   V4        1.0  0.52600  0.25000  0.82200  1.0000
