data_image0
_chemical_formula_structural       F2Mg2Na2O8S2
_chemical_formula_sum              "F2 Mg2 Na2 O8 S2"
_cell_length_a       5.38378
_cell_length_b       5.38378
_cell_length_c       6.95823
_cell_angle_alpha    104.385
_cell_angle_beta     104.385
_cell_angle_gamma    104.787

_space_group_name_H-M_alt    "P 1"
_space_group_IT_number       1

loop_
  _space_group_symop_operation_xyz
  'x, y, z'

loop_
  _atom_site_type_symbol
  _atom_site_label
  _atom_site_symmetry_multiplicity
  _atom_site_fract_x
  _atom_site_fract_y
  _atom_site_fract_z
  _atom_site_occupancy
  F   F1        1.0  0.92000  0.08010  0.25000  1.0000
  F   F2        1.0  0.08010  0.92000  0.75000  1.0000
  Mg  Mg1       1.0  0.00000  0.00000  0.00000  1.0000
  Mg  Mg2       1.0  0.00000  0.00000  0.50000  1.0000
  Na  Na1       1.0  0.66800  0.33200  0.25000  1.0000
  Na  Na2       1.0  0.33200  0.66800  0.75000  1.0000
  O   O1        1.0  0.25600  0.40400  0.09450  1.0000
  O   O2        1.0  0.32500  0.87900  0.13700  1.0000
  O   O3        1.0  0.12100  0.67500  0.36300  1.0000
  O   O4        1.0  0.59600  0.74400  0.40600  1.0000
  O   O5        1.0  0.40400  0.25600  0.59400  1.0000
  O   O6        1.0  0.87900  0.32500  0.63700  1.0000
  O   O7        1.0  0.67500  0.12100  0.86300  1.0000
  O   O8        1.0  0.74400  0.59600  0.90600  1.0000
  S   S1        1.0  0.32300  0.67700  0.25000  1.0000
  S   S2        1.0  0.67700  0.32300  0.75000  1.0000
