data_image0
_chemical_formula_structural       H4O16Pm4Si4
_chemical_formula_sum              "H4 O16 Pm4 Si4"
_cell_length_a       9.28937
_cell_length_b       6.3542
_cell_length_c       7.02618
_cell_angle_alpha    90
_cell_angle_beta     129.69
_cell_angle_gamma    90

_space_group_name_H-M_alt    "P 1"
_space_group_IT_number       1

loop_
  _space_group_symop_operation_xyz
  'x, y, z'

loop_
  _atom_site_type_symbol
  _atom_site_label
  _atom_site_symmetry_multiplicity
  _atom_site_fract_x
  _atom_site_fract_y
  _atom_site_fract_z
  _atom_site_occupancy
  H   H1        1.0  0.39400  0.36400  0.06230  1.0000
  H   H2        1.0  0.60600  0.86400  0.43800  1.0000
  H   H3        1.0  0.39400  0.13600  0.56200  1.0000
  H   H4        1.0  0.60600  0.63600  0.93800  1.0000
  O   O1        1.0  0.57100  0.70800  0.03520  1.0000
  O   O2        1.0  0.76300  0.05000  0.07510  1.0000
  O   O3        1.0  0.07660  0.21200  0.10300  1.0000
  O   O4        1.0  0.28900  0.51400  0.10900  1.0000
  O   O5        1.0  0.71100  0.01410  0.39100  1.0000
  O   O6        1.0  0.92300  0.71200  0.39700  1.0000
  O   O7        1.0  0.23700  0.55000  0.42500  1.0000
  O   O8        1.0  0.42900  0.20800  0.46500  1.0000
  O   O9        1.0  0.57100  0.79200  0.53500  1.0000
  O   O10       1.0  0.76300  0.45000  0.57500  1.0000
  O   O11       1.0  0.07660  0.28800  0.60300  1.0000
  O   O12       1.0  0.28900  0.98600  0.60900  1.0000
  O   O13       1.0  0.71100  0.48600  0.89100  1.0000
  O   O14       1.0  0.92300  0.78800  0.89700  1.0000
  O   O15       1.0  0.23700  0.95000  0.92500  1.0000
  O   O16       1.0  0.42900  0.29200  0.96500  1.0000
  Pm  Pm1       1.0  0.22500  0.86300  0.23400  1.0000
  Pm  Pm2       1.0  0.77500  0.36300  0.26600  1.0000
  Pm  Pm3       1.0  0.22500  0.63700  0.73400  1.0000
  Pm  Pm4       1.0  0.77500  0.13700  0.76600  1.0000
  Si  Si1       1.0  0.75100  0.87700  0.23400  1.0000
  Si  Si2       1.0  0.24900  0.37700  0.26600  1.0000
  Si  Si3       1.0  0.75100  0.62300  0.73400  1.0000
  Si  Si4       1.0  0.24900  0.12300  0.76600  1.0000
