data_image0
_chemical_formula_structural       Ba2BrH3
_chemical_formula_sum              "Ba2 Br1 H3"
_cell_length_a       4.44044
_cell_length_b       4.4406
_cell_length_c       7.65011
_cell_angle_alpha    90
_cell_angle_beta     90.0009
_cell_angle_gamma    120.001

_space_group_name_H-M_alt    "P 1"
_space_group_IT_number       1

loop_
  _space_group_symop_operation_xyz
  'x, y, z'

loop_
  _atom_site_type_symbol
  _atom_site_label
  _atom_site_symmetry_multiplicity
  _atom_site_fract_x
  _atom_site_fract_y
  _atom_site_fract_z
  _atom_site_occupancy
  Ba  Ba1       1.0  0.66700  0.33300  0.19700  1.0000
  Ba  Ba2       1.0  0.33300  0.66700  0.80300  1.0000
  Br  Br1       1.0  1.00000  0.00000  0.50000  1.0000
  H   H1        1.0  0.00000  0.00000  0.00000  1.0000
  H   H2        1.0  0.33300  0.66700  0.14900  1.0000
  H   H3        1.0  0.66700  0.33300  0.85100  1.0000
