data_image0
_chemical_formula_structural       Pt4Ta2
_chemical_formula_sum              "Pt4 Ta2"
_cell_length_a       4.7763
_cell_length_b       4.8254
_cell_length_c       4.87657
_cell_angle_alpha    119.653
_cell_angle_beta     90
_cell_angle_gamma    90

_space_group_name_H-M_alt    "P 1"
_space_group_IT_number       1

loop_
  _space_group_symop_operation_xyz
  'x, y, z'

loop_
  _atom_site_type_symbol
  _atom_site_label
  _atom_site_symmetry_multiplicity
  _atom_site_fract_x
  _atom_site_fract_y
  _atom_site_fract_z
  _atom_site_occupancy
  Pt  Pt1       1.0  0.25000  0.44500  0.32400  1.0000
  Pt  Pt2       1.0  0.75000  0.87900  0.32400  1.0000
  Pt  Pt3       1.0  0.25000  0.12100  0.67600  1.0000
  Pt  Pt4       1.0  0.75000  0.55500  0.67600  1.0000
  Ta  Ta1       1.0  0.75000  0.22800  0.00000  1.0000
  Ta  Ta2       1.0  0.25000  0.77200  0.00000  1.0000
