data_image0
_chemical_formula_structural       Cl12K4Mg4
_chemical_formula_sum              "Cl12 K4 Mg4"
_cell_length_a       6.97787
_cell_length_b       7.00753
_cell_length_c       9.94743
_cell_angle_alpha    90
_cell_angle_beta     90
_cell_angle_gamma    90

_space_group_name_H-M_alt    "P 1"
_space_group_IT_number       1

loop_
  _space_group_symop_operation_xyz
  'x, y, z'

loop_
  _atom_site_type_symbol
  _atom_site_label
  _atom_site_symmetry_multiplicity
  _atom_site_fract_x
  _atom_site_fract_y
  _atom_site_fract_z
  _atom_site_occupancy
  Cl  Cl1       1.0  0.71200  0.28700  0.02520  1.0000
  Cl  Cl2       1.0  0.78800  0.78700  0.02520  1.0000
  Cl  Cl3       1.0  0.05030  0.49400  0.25000  1.0000
  Cl  Cl4       1.0  0.45000  0.99400  0.25000  1.0000
  Cl  Cl5       1.0  0.71200  0.28700  0.47500  1.0000
  Cl  Cl6       1.0  0.78800  0.78700  0.47500  1.0000
  Cl  Cl7       1.0  0.21200  0.21300  0.52500  1.0000
  Cl  Cl8       1.0  0.28800  0.71300  0.52500  1.0000
  Cl  Cl9       1.0  0.55000  0.00585  0.75000  1.0000
  Cl  Cl10      1.0  0.95000  0.50600  0.75000  1.0000
  Cl  Cl11      1.0  0.21200  0.21300  0.97500  1.0000
  Cl  Cl12      1.0  0.28800  0.71300  0.97500  1.0000
  K   K1        1.0  0.99300  0.03270  0.25000  1.0000
  K   K2        1.0  0.50700  0.53300  0.25000  1.0000
  K   K3        1.0  0.49300  0.46700  0.75000  1.0000
  K   K4        1.0  0.00715  0.96700  0.75000  1.0000
  Mg  Mg1       1.0  0.50000  0.00000  0.00000  1.0000
  Mg  Mg2       1.0  0.00000  0.50000  0.00000  1.0000
  Mg  Mg3       1.0  0.50000  0.00000  0.50000  1.0000
  Mg  Mg4       1.0  0.00000  0.50000  0.50000  1.0000
