data_image0
_chemical_formula_structural       H4La2O8Si2
_chemical_formula_sum              "H4 La2 O8 Si2"
_cell_length_a       6.33304
_cell_length_b       6.33304
_cell_length_c       6.33304
_cell_angle_alpha    95.6201
_cell_angle_beta     116.81
_cell_angle_gamma    116.81

_space_group_name_H-M_alt    "P 1"
_space_group_IT_number       1

loop_
  _space_group_symop_operation_xyz
  'x, y, z'

loop_
  _atom_site_type_symbol
  _atom_site_label
  _atom_site_symmetry_multiplicity
  _atom_site_fract_x
  _atom_site_fract_y
  _atom_site_fract_z
  _atom_site_occupancy
  H   H1        1.0  0.50000  0.52700  0.02710  1.0000
  H   H2        1.0  0.00000  0.22300  0.22300  1.0000
  H   H3        1.0  0.50000  0.97300  0.47300  1.0000
  H   H4        1.0  0.00000  0.77700  0.77700  1.0000
  La  La1       1.0  0.00000  0.50000  0.50000  1.0000
  La  La2       1.0  0.50000  0.25000  0.75000  1.0000
  O   O1        1.0  0.68400  0.61900  0.30100  1.0000
  O   O2        1.0  0.18200  0.13100  0.31500  1.0000
  O   O3        1.0  0.68200  0.06490  0.38100  1.0000
  O   O4        1.0  0.31800  0.69900  0.38300  1.0000
  O   O5        1.0  0.81600  0.68500  0.86700  1.0000
  O   O6        1.0  0.18400  0.05060  0.86900  1.0000
  O   O7        1.0  0.31600  0.61700  0.93500  1.0000
  O   O8        1.0  0.81800  0.13300  0.94900  1.0000
  Si  Si1       1.0  0.00000  0.00000  0.00000  1.0000
  Si  Si2       1.0  0.50000  0.75000  0.25000  1.0000
