data_image0
_chemical_formula_structural       H16MgTi7
_chemical_formula_sum              "H16 Mg1 Ti7"
_cell_length_a       6.23898
_cell_length_b       6.23898
_cell_length_c       6.23898
_cell_angle_alpha    120
_cell_angle_beta     90
_cell_angle_gamma    120

_space_group_name_H-M_alt    "P 1"
_space_group_IT_number       1

loop_
  _space_group_symop_operation_xyz
  'x, y, z'

loop_
  _atom_site_type_symbol
  _atom_site_label
  _atom_site_symmetry_multiplicity
  _atom_site_fract_x
  _atom_site_fract_y
  _atom_site_fract_z
  _atom_site_occupancy
  H   H1        1.0  0.37600  0.75100  0.12700  1.0000
  H   H2        1.0  0.38500  0.25700  0.12800  1.0000
  H   H3        1.0  0.87200  0.25700  0.12800  1.0000
  H   H4        1.0  0.87200  0.74300  0.12800  1.0000
  H   H5        1.0  0.62400  0.24900  0.37600  1.0000
  H   H6        1.0  0.12700  0.75100  0.37600  1.0000
  H   H7        1.0  0.62400  0.75100  0.37600  1.0000
  H   H8        1.0  0.12800  0.25700  0.38500  1.0000
  H   H9        1.0  0.87200  0.74300  0.61500  1.0000
  H   H10       1.0  0.37600  0.24900  0.62400  1.0000
  H   H11       1.0  0.37600  0.75100  0.62400  1.0000
  H   H12       1.0  0.87300  0.24900  0.62400  1.0000
  H   H13       1.0  0.12800  0.25700  0.87200  1.0000
  H   H14       1.0  0.12800  0.74300  0.87200  1.0000
  H   H15       1.0  0.61500  0.74300  0.87200  1.0000
  H   H16       1.0  0.62400  0.24900  0.87300  1.0000
  Mg  Mg1       1.0  0.00000  0.00000  0.00000  1.0000
  Ti  Ti1       1.0  0.50000  0.00000  0.00000  1.0000
  Ti  Ti2       1.0  0.00000  0.50000  0.00000  1.0000
  Ti  Ti3       1.0  0.50000  0.50000  0.00000  1.0000
  Ti  Ti4       1.0  0.00000  0.00000  0.50000  1.0000
  Ti  Ti5       1.0  0.00000  0.50000  0.50000  1.0000
  Ti  Ti6       1.0  0.50000  0.50000  0.50000  1.0000
  Ti  Ti7       1.0  0.50000  0.00000  0.50000  1.0000
