data_image0
_chemical_formula_structural       Mg2Sn2Tm2
_chemical_formula_sum              "Mg2 Sn2 Tm2"
_cell_length_a       4.34854
_cell_length_b       4.34854
_cell_length_c       8.46499
_cell_angle_alpha    104.883
_cell_angle_beta     104.883
_cell_angle_gamma    90

_space_group_name_H-M_alt    "P 1"
_space_group_IT_number       1

loop_
  _space_group_symop_operation_xyz
  'x, y, z'

loop_
  _atom_site_type_symbol
  _atom_site_label
  _atom_site_symmetry_multiplicity
  _atom_site_fract_x
  _atom_site_fract_y
  _atom_site_fract_z
  _atom_site_occupancy
  Mg  Mg1       1.0  0.50000  0.00000  0.00000  1.0000
  Mg  Mg2       1.0  0.00000  0.50000  0.00000  1.0000
  Sn  Sn1       1.0  0.13700  0.13700  0.27300  1.0000
  Sn  Sn2       1.0  0.86300  0.86300  0.72700  1.0000
  Tm  Tm1       1.0  0.66900  0.66900  0.33700  1.0000
  Tm  Tm2       1.0  0.33100  0.33100  0.66300  1.0000
