data_image0
_chemical_formula_structural       Eu4Mg4Si4
_chemical_formula_sum              "Eu4 Mg4 Si4"
_cell_length_a       7.661
_cell_length_b       4.5337
_cell_length_c       8.29649
_cell_angle_alpha    90
_cell_angle_beta     90
_cell_angle_gamma    90

_space_group_name_H-M_alt    "P 1"
_space_group_IT_number       1

loop_
  _space_group_symop_operation_xyz
  'x, y, z'

loop_
  _atom_site_type_symbol
  _atom_site_label
  _atom_site_symmetry_multiplicity
  _atom_site_fract_x
  _atom_site_fract_y
  _atom_site_fract_z
  _atom_site_occupancy
  Eu  Eu1       1.0  0.48400  0.75000  0.18300  1.0000
  Eu  Eu2       1.0  0.98400  0.75000  0.31700  1.0000
  Eu  Eu3       1.0  0.01600  0.25000  0.68300  1.0000
  Eu  Eu4       1.0  0.51600  0.25000  0.81700  1.0000
  Mg  Mg1       1.0  0.14600  0.25000  0.06610  1.0000
  Mg  Mg2       1.0  0.64600  0.25000  0.43400  1.0000
  Mg  Mg3       1.0  0.35400  0.75000  0.56600  1.0000
  Mg  Mg4       1.0  0.85400  0.75000  0.93400  1.0000
  Si  Si1       1.0  0.77800  0.25000  0.11100  1.0000
  Si  Si2       1.0  0.27800  0.25000  0.38900  1.0000
  Si  Si3       1.0  0.72200  0.75000  0.61100  1.0000
  Si  Si4       1.0  0.22200  0.75000  0.88900  1.0000
