data_image0
_chemical_formula_structural       H4Mg2O10S2
_chemical_formula_sum              "H4 Mg2 O10 S2"
_cell_length_a       5.0886
_cell_length_b       5.0886
_cell_length_c       7.44609
_cell_angle_alpha    107.545
_cell_angle_beta     107.545
_cell_angle_gamma    96.444

_space_group_name_H-M_alt    "P 1"
_space_group_IT_number       1

loop_
  _space_group_symop_operation_xyz
  'x, y, z'

loop_
  _atom_site_type_symbol
  _atom_site_label
  _atom_site_symmetry_multiplicity
  _atom_site_fract_x
  _atom_site_fract_y
  _atom_site_fract_z
  _atom_site_occupancy
  H   H1        1.0  0.04970  0.62800  0.20400  1.0000
  H   H2        1.0  0.87200  0.45000  0.29600  1.0000
  H   H3        1.0  0.12800  0.55000  0.70400  1.0000
  H   H4        1.0  0.95000  0.37200  0.79600  1.0000
  Mg  Mg1       1.0  0.50000  0.50000  0.00000  1.0000
  Mg  Mg2       1.0  0.00000  0.00000  0.50000  1.0000
  O   O1        1.0  0.31400  0.22800  0.09770  1.0000
  O   O2        1.0  0.31900  0.78200  0.15300  1.0000
  O   O3        1.0  0.88500  0.61500  0.25000  1.0000
  O   O4        1.0  0.71800  0.18100  0.34700  1.0000
  O   O5        1.0  0.27200  0.18600  0.40200  1.0000
  O   O6        1.0  0.72800  0.81400  0.59800  1.0000
  O   O7        1.0  0.28200  0.81900  0.65300  1.0000
  O   O8        1.0  0.11500  0.38500  0.75000  1.0000
  O   O9        1.0  0.68100  0.21800  0.84700  1.0000
  O   O10       1.0  0.68600  0.77200  0.90200  1.0000
  S   S1        1.0  0.40300  0.09670  0.25000  1.0000
  S   S2        1.0  0.59700  0.90300  0.75000  1.0000
