data_image0
_chemical_formula_structural       Eu4Ge4Mg4
_chemical_formula_sum              "Eu4 Ge4 Mg4"
_cell_length_a       7.66935
_cell_length_b       4.54395
_cell_length_c       8.39411
_cell_angle_alpha    90
_cell_angle_beta     90
_cell_angle_gamma    90

_space_group_name_H-M_alt    "P 1"
_space_group_IT_number       1

loop_
  _space_group_symop_operation_xyz
  'x, y, z'

loop_
  _atom_site_type_symbol
  _atom_site_label
  _atom_site_symmetry_multiplicity
  _atom_site_fract_x
  _atom_site_fract_y
  _atom_site_fract_z
  _atom_site_occupancy
  Eu  Eu1       1.0  0.48300  0.75000  0.18200  1.0000
  Eu  Eu2       1.0  0.98300  0.75000  0.31800  1.0000
  Eu  Eu3       1.0  0.01730  0.25000  0.68200  1.0000
  Eu  Eu4       1.0  0.51700  0.25000  0.81800  1.0000
  Ge  Ge1       1.0  0.77300  0.25000  0.11200  1.0000
  Ge  Ge2       1.0  0.27300  0.25000  0.38800  1.0000
  Ge  Ge3       1.0  0.72700  0.75000  0.61200  1.0000
  Ge  Ge4       1.0  0.22700  0.75000  0.88800  1.0000
  Mg  Mg1       1.0  0.14400  0.25000  0.06420  1.0000
  Mg  Mg2       1.0  0.64400  0.25000  0.43600  1.0000
  Mg  Mg3       1.0  0.35600  0.75000  0.56400  1.0000
  Mg  Mg4       1.0  0.85600  0.75000  0.93600  1.0000
