data_image0
_chemical_formula_structural       Ag3Mg3Pr3
_chemical_formula_sum              "Ag3 Mg3 Pr3"
_cell_length_a       7.81964
_cell_length_b       7.81964
_cell_length_c       4.31564
_cell_angle_alpha    90
_cell_angle_beta     90
_cell_angle_gamma    120

_space_group_name_H-M_alt    "P 1"
_space_group_IT_number       1

loop_
  _space_group_symop_operation_xyz
  'x, y, z'

loop_
  _atom_site_type_symbol
  _atom_site_label
  _atom_site_symmetry_multiplicity
  _atom_site_fract_x
  _atom_site_fract_y
  _atom_site_fract_z
  _atom_site_occupancy
  Ag  Ag1       1.0  0.66700  0.33300  0.00000  1.0000
  Ag  Ag2       1.0  0.33300  0.66700  0.00000  1.0000
  Ag  Ag3       1.0  0.00000  0.00000  0.50000  1.0000
  Mg  Mg1       1.0  0.24000  0.00000  0.00000  1.0000
  Mg  Mg2       1.0  0.00000  0.24000  0.00000  1.0000
  Mg  Mg3       1.0  0.76000  0.76000  0.00000  1.0000
  Pr  Pr1       1.0  0.58600  0.00003  0.50000  1.0000
  Pr  Pr2       1.0  0.41400  0.41400  0.50000  1.0000
  Pr  Pr3       1.0  0.00003  0.58600  0.50000  1.0000
