data_image0
_chemical_formula_structural       H4Mg2O10Se2
_chemical_formula_sum              "H4 Mg2 O10 Se2"
_cell_length_a       5.29197
_cell_length_b       5.29197
_cell_length_c       7.57409
_cell_angle_alpha    107.565
_cell_angle_beta     107.565
_cell_angle_gamma    98.3293

_space_group_name_H-M_alt    "P 1"
_space_group_IT_number       1

loop_
  _space_group_symop_operation_xyz
  'x, y, z'

loop_
  _atom_site_type_symbol
  _atom_site_label
  _atom_site_symmetry_multiplicity
  _atom_site_fract_x
  _atom_site_fract_y
  _atom_site_fract_z
  _atom_site_occupancy
  H   H1        1.0  0.03500  0.63000  0.20100  1.0000
  H   H2        1.0  0.87000  0.46500  0.29900  1.0000
  H   H3        1.0  0.13000  0.53500  0.70100  1.0000
  H   H4        1.0  0.96500  0.37000  0.79900  1.0000
  Mg  Mg1       1.0  0.50000  0.50000  0.00000  1.0000
  Mg  Mg2       1.0  0.00000  0.00000  0.50000  1.0000
  O   O1        1.0  0.30300  0.21400  0.07290  1.0000
  O   O2        1.0  0.31000  0.74600  0.15100  1.0000
  O   O3        1.0  0.87800  0.62200  0.25000  1.0000
  O   O4        1.0  0.75400  0.19000  0.34900  1.0000
  O   O5        1.0  0.28600  0.19700  0.42700  1.0000
  O   O6        1.0  0.71400  0.80300  0.57300  1.0000
  O   O7        1.0  0.24600  0.81000  0.65100  1.0000
  O   O8        1.0  0.12200  0.37800  0.75000  1.0000
  O   O9        1.0  0.69000  0.25400  0.84900  1.0000
  O   O10       1.0  0.69700  0.78600  0.92700  1.0000
  Se  Se1       1.0  0.41000  0.08990  0.25000  1.0000
  Se  Se2       1.0  0.59000  0.91000  0.75000  1.0000
