data_image0
_chemical_formula_structural       B4K4Mg4O12
_chemical_formula_sum              "B4 K4 Mg4 O12"
_cell_length_a       6.78355
_cell_length_b       6.78355
_cell_length_c       6.78355
_cell_angle_alpha    90
_cell_angle_beta     90
_cell_angle_gamma    90

_space_group_name_H-M_alt    "P 1"
_space_group_IT_number       1

loop_
  _space_group_symop_operation_xyz
  'x, y, z'

loop_
  _atom_site_type_symbol
  _atom_site_label
  _atom_site_symmetry_multiplicity
  _atom_site_fract_x
  _atom_site_fract_y
  _atom_site_fract_z
  _atom_site_occupancy
  B   B1        1.0  0.59400  0.90600  0.09410  1.0000
  B   B2        1.0  0.40600  0.40600  0.40600  1.0000
  B   B3        1.0  0.90600  0.09410  0.59400  1.0000
  B   B4        1.0  0.09410  0.59400  0.90600  1.0000
  K   K1        1.0  0.13600  0.13600  0.13600  1.0000
  K   K2        1.0  0.86400  0.63600  0.36400  1.0000
  K   K3        1.0  0.36400  0.86400  0.63600  1.0000
  K   K4        1.0  0.63600  0.36400  0.86400  1.0000
  Mg  Mg1       1.0  0.35600  0.64400  0.14400  1.0000
  Mg  Mg2       1.0  0.64400  0.14400  0.35600  1.0000
  Mg  Mg3       1.0  0.14400  0.35600  0.64400  1.0000
  Mg  Mg4       1.0  0.85600  0.85600  0.85600  1.0000
  O   O1        1.0  0.08400  0.74600  0.04060  1.0000
  O   O2        1.0  0.74600  0.04060  0.08400  1.0000
  O   O3        1.0  0.45900  0.91600  0.24600  1.0000
  O   O4        1.0  0.54100  0.41600  0.25400  1.0000
  O   O5        1.0  0.25400  0.54100  0.41600  1.0000
  O   O6        1.0  0.91600  0.24600  0.45900  1.0000
  O   O7        1.0  0.41600  0.25400  0.54100  1.0000
  O   O8        1.0  0.75400  0.95900  0.58400  1.0000
  O   O9        1.0  0.04060  0.08400  0.74600  1.0000
  O   O10       1.0  0.95900  0.58400  0.75400  1.0000
  O   O11       1.0  0.24600  0.45900  0.91600  1.0000
  O   O12       1.0  0.58400  0.75400  0.95900  1.0000
