data_image0
_chemical_formula_structural       Cd2Na4Sn2
_chemical_formula_sum              "Cd2 Na4 Sn2"
_cell_length_a       5.02571
_cell_length_b       5.02569
_cell_length_c       10.0078
_cell_angle_alpha    90
_cell_angle_beta     90
_cell_angle_gamma    120

_space_group_name_H-M_alt    "P 1"
_space_group_IT_number       1

loop_
  _space_group_symop_operation_xyz
  'x, y, z'

loop_
  _atom_site_type_symbol
  _atom_site_label
  _atom_site_symmetry_multiplicity
  _atom_site_fract_x
  _atom_site_fract_y
  _atom_site_fract_z
  _atom_site_occupancy
  Cd  Cd1       1.0  0.00001  0.00002  0.25000  1.0000
  Cd  Cd2       1.0  0.00000  0.00000  0.75000  1.0000
  Na  Na1       1.0  0.33300  0.66700  0.08140  1.0000
  Na  Na2       1.0  0.33300  0.66700  0.41900  1.0000
  Na  Na3       1.0  0.66700  0.33300  0.58100  1.0000
  Na  Na4       1.0  0.66700  0.33300  0.91900  1.0000
  Sn  Sn1       1.0  0.66700  0.33300  0.25000  1.0000
  Sn  Sn2       1.0  0.33300  0.66700  0.75000  1.0000
