data_image0
_chemical_formula_structural       Cu3La3Mg12
_chemical_formula_sum              "Cu3 La3 Mg12"
_cell_length_a       10.3432
_cell_length_b       10.3432
_cell_length_c       4.51163
_cell_angle_alpha    90
_cell_angle_beta     90
_cell_angle_gamma    120

_space_group_name_H-M_alt    "P 1"
_space_group_IT_number       1

loop_
  _space_group_symop_operation_xyz
  'x, y, z'

loop_
  _atom_site_type_symbol
  _atom_site_label
  _atom_site_symmetry_multiplicity
  _atom_site_fract_x
  _atom_site_fract_y
  _atom_site_fract_z
  _atom_site_occupancy
  Cu  Cu1       1.0  0.00000  0.00000  0.00000  1.0000
  Cu  Cu2       1.0  0.66700  0.33300  0.00000  1.0000
  Cu  Cu3       1.0  0.33300  0.66700  0.00000  1.0000
  La  La1       1.0  0.40700  0.00000  0.00000  1.0000
  La  La2       1.0  0.00000  0.40700  0.00000  1.0000
  La  La3       1.0  0.59300  0.59300  0.00000  1.0000
  Mg  Mg1       1.0  0.74700  0.00000  0.00000  1.0000
  Mg  Mg2       1.0  0.25300  0.25300  0.00000  1.0000
  Mg  Mg3       1.0  0.00000  0.74700  0.00000  1.0000
  Mg  Mg4       1.0  0.16600  0.00000  0.50000  1.0000
  Mg  Mg5       1.0  0.00000  0.16600  0.50000  1.0000
  Mg  Mg6       1.0  0.70400  0.18400  0.50000  1.0000
  Mg  Mg7       1.0  0.47900  0.29600  0.50000  1.0000
  Mg  Mg8       1.0  0.29600  0.47900  0.50000  1.0000
  Mg  Mg9       1.0  0.81600  0.52100  0.50000  1.0000
  Mg  Mg10      1.0  0.18400  0.70400  0.50000  1.0000
  Mg  Mg11      1.0  0.52100  0.81600  0.50000  1.0000
  Mg  Mg12      1.0  0.83400  0.83400  0.50000  1.0000
