data_image0
_chemical_formula_structural       Al8Mg4Zn6
_chemical_formula_sum              "Al8 Mg4 Zn6"
_cell_length_a       5.02384
_cell_length_b       5.02383
_cell_length_c       14.5195
_cell_angle_alpha    90
_cell_angle_beta     90
_cell_angle_gamma    120

_space_group_name_H-M_alt    "P 1"
_space_group_IT_number       1

loop_
  _space_group_symop_operation_xyz
  'x, y, z'

loop_
  _atom_site_type_symbol
  _atom_site_label
  _atom_site_symmetry_multiplicity
  _atom_site_fract_x
  _atom_site_fract_y
  _atom_site_fract_z
  _atom_site_occupancy
  Al  Al1       1.0  0.33300  0.66700  0.06350  1.0000
  Al  Al2       1.0  0.00000  0.00000  0.08960  1.0000
  Al  Al3       1.0  0.00000  0.00000  0.41000  1.0000
  Al  Al4       1.0  0.33300  0.66700  0.43700  1.0000
  Al  Al5       1.0  0.66700  0.33300  0.56300  1.0000
  Al  Al6       1.0  0.00000  0.00000  0.59000  1.0000
  Al  Al7       1.0  0.00000  0.00000  0.91000  1.0000
  Al  Al8       1.0  0.66700  0.33300  0.93700  1.0000
  Mg  Mg1       1.0  0.66700  0.33300  0.14000  1.0000
  Mg  Mg2       1.0  0.66700  0.33300  0.36000  1.0000
  Mg  Mg3       1.0  0.33300  0.66700  0.64000  1.0000
  Mg  Mg4       1.0  0.33300  0.66700  0.86000  1.0000
  Zn  Zn1       1.0  0.16800  0.33700  0.25000  1.0000
  Zn  Zn2       1.0  0.66300  0.83200  0.25000  1.0000
  Zn  Zn3       1.0  0.16800  0.83200  0.25000  1.0000
  Zn  Zn4       1.0  0.83200  0.16800  0.75000  1.0000
  Zn  Zn5       1.0  0.33700  0.16800  0.75000  1.0000
  Zn  Zn6       1.0  0.83200  0.66300  0.75000  1.0000
