data_image0
_chemical_formula_structural       Cu4Mg16Y4
_chemical_formula_sum              "Cu4 Mg16 Y4"
_cell_length_a       3.89629
_cell_length_b       12.1558
_cell_length_c       12.1558
_cell_angle_alpha    112.5
_cell_angle_beta     90
_cell_angle_gamma    90

_space_group_name_H-M_alt    "P 1"
_space_group_IT_number       1

loop_
  _space_group_symop_operation_xyz
  'x, y, z'

loop_
  _atom_site_type_symbol
  _atom_site_label
  _atom_site_symmetry_multiplicity
  _atom_site_fract_x
  _atom_site_fract_y
  _atom_site_fract_z
  _atom_site_occupancy
  Cu  Cu1       1.0  0.50000  0.44600  0.23500  1.0000
  Cu  Cu2       1.0  0.50000  0.23500  0.44600  1.0000
  Cu  Cu3       1.0  0.50000  0.76500  0.55400  1.0000
  Cu  Cu4       1.0  0.50000  0.55400  0.76500  1.0000
  Mg  Mg1       1.0  0.00000  0.00000  0.00000  1.0000
  Mg  Mg2       1.0  0.50000  0.21100  0.05210  1.0000
  Mg  Mg3       1.0  0.00000  0.41400  0.07560  1.0000
  Mg  Mg4       1.0  0.50000  0.62600  0.13800  1.0000
  Mg  Mg5       1.0  0.00000  0.83500  0.16500  1.0000
  Mg  Mg6       1.0  0.50000  0.05210  0.21100  1.0000
  Mg  Mg7       1.0  0.50000  0.86200  0.37400  1.0000
  Mg  Mg8       1.0  0.00000  0.07560  0.41400  1.0000
  Mg  Mg9       1.0  0.50000  0.50000  0.50000  1.0000
  Mg  Mg10      1.0  0.00000  0.92400  0.58600  1.0000
  Mg  Mg11      1.0  0.50000  0.13800  0.62600  1.0000
  Mg  Mg12      1.0  0.50000  0.94800  0.78900  1.0000
  Mg  Mg13      1.0  0.00000  0.16500  0.83500  1.0000
  Mg  Mg14      1.0  0.50000  0.37400  0.86200  1.0000
  Mg  Mg15      1.0  0.00000  0.58600  0.92400  1.0000
  Mg  Mg16      1.0  0.50000  0.78900  0.94800  1.0000
  Y   Y1        1.0  0.00000  0.30100  0.30100  1.0000
  Y   Y2        1.0  0.00000  0.63300  0.36700  1.0000
  Y   Y3        1.0  0.00000  0.36700  0.63300  1.0000
  Y   Y4        1.0  0.00000  0.69900  0.69900  1.0000
