data_image0
_chemical_formula_structural       Mg4Sn4Sr4
_chemical_formula_sum              "Mg4 Sn4 Sr4"
_cell_length_a       8.19589
_cell_length_b       4.90019
_cell_length_c       8.85407
_cell_angle_alpha    90
_cell_angle_beta     90
_cell_angle_gamma    90

_space_group_name_H-M_alt    "P 1"
_space_group_IT_number       1

loop_
  _space_group_symop_operation_xyz
  'x, y, z'

loop_
  _atom_site_type_symbol
  _atom_site_label
  _atom_site_symmetry_multiplicity
  _atom_site_fract_x
  _atom_site_fract_y
  _atom_site_fract_z
  _atom_site_occupancy
  Mg  Mg1       1.0  0.64800  0.25000  0.06720  1.0000
  Mg  Mg2       1.0  0.14800  0.25000  0.43300  1.0000
  Mg  Mg3       1.0  0.85200  0.75000  0.56700  1.0000
  Mg  Mg4       1.0  0.35200  0.75000  0.93300  1.0000
  Sn  Sn1       1.0  0.27800  0.25000  0.10800  1.0000
  Sn  Sn2       1.0  0.77800  0.25000  0.39200  1.0000
  Sn  Sn3       1.0  0.22200  0.75000  0.60800  1.0000
  Sn  Sn4       1.0  0.72200  0.75000  0.89200  1.0000
  Sr  Sr1       1.0  0.98900  0.75000  0.18900  1.0000
  Sr  Sr2       1.0  0.48900  0.75000  0.31100  1.0000
  Sr  Sr3       1.0  0.51100  0.25000  0.68900  1.0000
  Sr  Sr4       1.0  0.01090  0.25000  0.81100  1.0000
