data_image0
_chemical_formula_structural       H4O8Si2Yb2
_chemical_formula_sum              "H4 O8 Si2 Yb2"
_cell_length_a       6.0655
_cell_length_b       6.0655
_cell_length_c       6.0655
_cell_angle_alpha    97.4932
_cell_angle_beta     115.772
_cell_angle_gamma    115.772

_space_group_name_H-M_alt    "P 1"
_space_group_IT_number       1

loop_
  _space_group_symop_operation_xyz
  'x, y, z'

loop_
  _atom_site_type_symbol
  _atom_site_label
  _atom_site_symmetry_multiplicity
  _atom_site_fract_x
  _atom_site_fract_y
  _atom_site_fract_z
  _atom_site_occupancy
  H   H1        1.0  0.50000  0.53700  0.03710  1.0000
  H   H2        1.0  0.00000  0.21300  0.21300  1.0000
  H   H3        1.0  0.50000  0.96300  0.46300  1.0000
  H   H4        1.0  0.00000  0.78700  0.78700  1.0000
  O   O1        1.0  0.68000  0.60100  0.27800  1.0000
  O   O2        1.0  0.17600  0.14900  0.32800  1.0000
  O   O3        1.0  0.67600  0.07820  0.39900  1.0000
  O   O4        1.0  0.32400  0.72200  0.40200  1.0000
  O   O5        1.0  0.82000  0.67200  0.84800  1.0000
  O   O6        1.0  0.18000  0.02780  0.85100  1.0000
  O   O7        1.0  0.32000  0.59800  0.92200  1.0000
  O   O8        1.0  0.82400  0.15200  0.97200  1.0000
  Si  Si1       1.0  0.00000  0.00000  0.00000  1.0000
  Si  Si2       1.0  0.50000  0.75000  0.25000  1.0000
  Yb  Yb1       1.0  0.00000  0.50000  0.50000  1.0000
  Yb  Yb2       1.0  0.50000  0.25000  0.75000  1.0000
