data_image0
_chemical_formula_structural       Dy2Fe2Si2
_chemical_formula_sum              "Dy2 Fe2 Si2"
_cell_length_a       4.01934
_cell_length_b       4.01934
_cell_length_c       6.50373
_cell_angle_alpha    90
_cell_angle_beta     90
_cell_angle_gamma    90

_space_group_name_H-M_alt    "P 1"
_space_group_IT_number       1

loop_
  _space_group_symop_operation_xyz
  'x, y, z'

loop_
  _atom_site_type_symbol
  _atom_site_label
  _atom_site_symmetry_multiplicity
  _atom_site_fract_x
  _atom_site_fract_y
  _atom_site_fract_z
  _atom_site_occupancy
  Dy  Dy1       1.0  0.50000  0.00000  0.31600  1.0000
  Dy  Dy2       1.0  0.00000  0.50000  0.68400  1.0000
  Fe  Fe1       1.0  0.00000  0.00000  0.00000  1.0000
  Fe  Fe2       1.0  0.50000  0.50000  0.00000  1.0000
  Si  Si1       1.0  0.00000  0.50000  0.17900  1.0000
  Si  Si2       1.0  0.50000  0.00000  0.82100  1.0000
