data_image0
_chemical_formula_structural       As2Te2Ti2
_chemical_formula_sum              "As2 Te2 Ti2"
_cell_length_a       3.58358
_cell_length_b       5.29787
_cell_length_c       7.16999
_cell_angle_alpha    111.682
_cell_angle_beta     104.472
_cell_angle_gamma    90

_space_group_name_H-M_alt    "P 1"
_space_group_IT_number       1

loop_
  _space_group_symop_operation_xyz
  'x, y, z'

loop_
  _atom_site_type_symbol
  _atom_site_label
  _atom_site_symmetry_multiplicity
  _atom_site_fract_x
  _atom_site_fract_y
  _atom_site_fract_z
  _atom_site_occupancy
  As  As1       1.0  0.00000  0.25200  0.00000  1.0000
  As  As2       1.0  0.00000  0.74800  0.00000  1.0000
  Te  Te1       1.0  0.71000  0.71000  0.41900  1.0000
  Te  Te2       1.0  0.29000  0.29000  0.58100  1.0000
  Ti  Ti1       1.0  0.61800  0.11800  0.23500  1.0000
  Ti  Ti2       1.0  0.38200  0.88200  0.76500  1.0000
