data_image0
_chemical_formula_structural       Cr2N2Nb2
_chemical_formula_sum              "Cr2 N2 Nb2"
_cell_length_a       3.03052
_cell_length_b       3.03052
_cell_length_c       7.35398
_cell_angle_alpha    90
_cell_angle_beta     90
_cell_angle_gamma    90

_space_group_name_H-M_alt    "P 1"
_space_group_IT_number       1

loop_
  _space_group_symop_operation_xyz
  'x, y, z'

loop_
  _atom_site_type_symbol
  _atom_site_label
  _atom_site_symmetry_multiplicity
  _atom_site_fract_x
  _atom_site_fract_y
  _atom_site_fract_z
  _atom_site_occupancy
  Cr  Cr1       1.0  0.00000  0.00000  0.24200  1.0000
  Cr  Cr2       1.0  0.50000  0.50000  0.41100  1.0000
  N   N1        1.0  0.50000  0.50000  0.68700  1.0000
  N   N2        1.0  0.00000  0.00000  0.96600  1.0000
  Nb  Nb1       1.0  0.50000  0.50000  0.00442  1.0000
  Nb  Nb2       1.0  0.00000  0.00000  0.64900  1.0000
