data_image0
_chemical_formula_structural       Cl2Er2H2
_chemical_formula_sum              "Cl2 Er2 H2"
_cell_length_a       3.69997
_cell_length_b       3.69997
_cell_length_c       9.38531
_cell_angle_alpha    101.368
_cell_angle_beta     78.6317
_cell_angle_gamma    120

_space_group_name_H-M_alt    "P 1"
_space_group_IT_number       1

loop_
  _space_group_symop_operation_xyz
  'x, y, z'

loop_
  _atom_site_type_symbol
  _atom_site_label
  _atom_site_symmetry_multiplicity
  _atom_site_fract_x
  _atom_site_fract_y
  _atom_site_fract_z
  _atom_site_occupancy
  Cl  Cl1       1.0  0.61000  0.39000  0.16900  1.0000
  Cl  Cl2       1.0  0.39000  0.61000  0.83100  1.0000
  Er  Er1       1.0  0.88200  0.11800  0.35300  1.0000
  Er  Er2       1.0  0.11800  0.88200  0.64700  1.0000
  H   H1        1.0  0.19600  0.80400  0.41100  1.0000
  H   H2        1.0  0.80400  0.19600  0.58900  1.0000
