data_image0
_chemical_formula_structural       H4O8Si2Sm2
_chemical_formula_sum              "H4 O8 Si2 Sm2"
_cell_length_a       5.83596
_cell_length_b       5.83596
_cell_length_c       6.24317
_cell_angle_alpha    106.46
_cell_angle_beta     106.46
_cell_angle_gamma    113.188

_space_group_name_H-M_alt    "P 1"
_space_group_IT_number       1

loop_
  _space_group_symop_operation_xyz
  'x, y, z'

loop_
  _atom_site_type_symbol
  _atom_site_label
  _atom_site_symmetry_multiplicity
  _atom_site_fract_x
  _atom_site_fract_y
  _atom_site_fract_z
  _atom_site_occupancy
  H   H1        1.0  0.68900  0.10300  0.05690  1.0000
  H   H2        1.0  0.38200  0.29600  0.44300  1.0000
  H   H3        1.0  0.85300  0.93900  0.55700  1.0000
  H   H4        1.0  0.04630  0.63200  0.94300  1.0000
  O   O1        1.0  0.00615  0.75000  0.07270  1.0000
  O   O2        1.0  0.21800  0.32100  0.22600  1.0000
  O   O3        1.0  0.74200  0.34500  0.27400  1.0000
  O   O4        1.0  0.68300  0.92700  0.42700  1.0000
  O   O5        1.0  0.50000  0.25600  0.57300  1.0000
  O   O6        1.0  0.07110  0.46800  0.72600  1.0000
  O   O7        1.0  0.09480  0.99200  0.77400  1.0000
  O   O8        1.0  0.67700  0.93300  0.92700  1.0000
  Si  Si1       1.0  0.00648  0.00648  0.00000  1.0000
  Si  Si2       1.0  0.75600  0.25600  0.50000  1.0000
  Sm  Sm1       1.0  0.48800  0.48800  0.00000  1.0000
  Sm  Sm2       1.0  0.23800  0.73800  0.50000  1.0000
