data_image0
_chemical_formula_structural       Br4La2
_chemical_formula_sum              "Br4 La2"
_cell_length_a       4.10847
_cell_length_b       4.10818
_cell_length_c       14.2414
_cell_angle_alpha    90
_cell_angle_beta     90
_cell_angle_gamma    120.002

_space_group_name_H-M_alt    "P 1"
_space_group_IT_number       1

loop_
  _space_group_symop_operation_xyz
  'x, y, z'

loop_
  _atom_site_type_symbol
  _atom_site_label
  _atom_site_symmetry_multiplicity
  _atom_site_fract_x
  _atom_site_fract_y
  _atom_site_fract_z
  _atom_site_occupancy
  Br  Br1       1.0  0.33300  0.66700  0.11500  1.0000
  Br  Br2       1.0  0.33300  0.66700  0.38500  1.0000
  Br  Br3       1.0  0.66700  0.33300  0.61500  1.0000
  Br  Br4       1.0  0.66700  0.33300  0.88500  1.0000
  La  La1       1.0  0.00000  0.00000  0.25000  1.0000
  La  La2       1.0  0.00005  0.00010  0.75000  1.0000
