data_image0
_chemical_formula_structural       MgNi4Y
_chemical_formula_sum              "Mg1 Ni4 Y1"
_cell_length_a       4.93974
_cell_length_b       4.93974
_cell_length_c       4.93974
_cell_angle_alpha    120
_cell_angle_beta     90
_cell_angle_gamma    120

_space_group_name_H-M_alt    "P 1"
_space_group_IT_number       1

loop_
  _space_group_symop_operation_xyz
  'x, y, z'

loop_
  _atom_site_type_symbol
  _atom_site_label
  _atom_site_symmetry_multiplicity
  _atom_site_fract_x
  _atom_site_fract_y
  _atom_site_fract_z
  _atom_site_occupancy
  Mg  Mg1       1.0  0.75000  0.50000  0.25000  1.0000
  Ni  Ni1       1.0  0.37600  0.75300  0.12900  1.0000
  Ni  Ni2       1.0  0.37600  0.75300  0.62400  1.0000
  Ni  Ni3       1.0  0.37600  0.24700  0.62400  1.0000
  Ni  Ni4       1.0  0.87100  0.24700  0.62400  1.0000
  Y   Y1        1.0  0.00000  0.00000  0.00000  1.0000
