data_image0
_chemical_formula_structural       H13MgO9P
_chemical_formula_sum              "H13 Mg1 O9 P1"
_cell_length_a       5.79539
_cell_length_b       5.79539
_cell_length_c       5.79539
_cell_angle_alpha    97.1889
_cell_angle_beta     97.1888
_cell_angle_gamma    97.1889

_space_group_name_H-M_alt    "P 1"
_space_group_IT_number       1

loop_
  _space_group_symop_operation_xyz
  'x, y, z'

loop_
  _atom_site_type_symbol
  _atom_site_label
  _atom_site_symmetry_multiplicity
  _atom_site_fract_x
  _atom_site_fract_y
  _atom_site_fract_z
  _atom_site_occupancy
  H   H1        1.0  0.45700  0.96400  0.03240  1.0000
  H   H2        1.0  0.80400  0.60900  0.18900  1.0000
  H   H3        1.0  0.36500  0.85100  0.25100  1.0000
  H   H4        1.0  0.32900  0.32900  0.32900  1.0000
  H   H5        1.0  0.85100  0.25100  0.36500  1.0000
  H   H6        1.0  0.96400  0.03240  0.45700  1.0000
  H   H7        1.0  0.91900  0.70400  0.57100  1.0000
  H   H8        1.0  0.18900  0.80400  0.60900  1.0000
  H   H9        1.0  0.57100  0.91900  0.70400  1.0000
  H   H10       1.0  0.60900  0.18900  0.80400  1.0000
  H   H11       1.0  0.25100  0.36500  0.85100  1.0000
  H   H12       1.0  0.70400  0.57100  0.91900  1.0000
  H   H13       1.0  0.03240  0.45700  0.96400  1.0000
  Mg  Mg1       1.0  0.99000  0.99000  0.99000  1.0000
  O   O1        1.0  0.84500  0.65000  0.03370  1.0000
  O   O2        1.0  0.31600  0.92100  0.10700  1.0000
  O   O3        1.0  0.92100  0.10700  0.31600  1.0000
  O   O4        1.0  0.73500  0.49300  0.41300  1.0000
  O   O5        1.0  0.41300  0.73500  0.49300  1.0000
  O   O6        1.0  0.03370  0.84500  0.65000  1.0000
  O   O7        1.0  0.49300  0.41300  0.73500  1.0000
  O   O8        1.0  0.65000  0.03370  0.84500  1.0000
  O   O9        1.0  0.10700  0.31600  0.92100  1.0000
  P   P1        1.0  0.49000  0.49000  0.49000  1.0000
