data_image0
_chemical_formula_structural       Mo2N2Ta2
_chemical_formula_sum              "Mo2 N2 Ta2"
_cell_length_a       3.08889
_cell_length_b       3.08889
_cell_length_c       7.84436
_cell_angle_alpha    90
_cell_angle_beta     90
_cell_angle_gamma    90

_space_group_name_H-M_alt    "P 1"
_space_group_IT_number       1

loop_
  _space_group_symop_operation_xyz
  'x, y, z'

loop_
  _atom_site_type_symbol
  _atom_site_label
  _atom_site_symmetry_multiplicity
  _atom_site_fract_x
  _atom_site_fract_y
  _atom_site_fract_z
  _atom_site_occupancy
  Mo  Mo1       1.0  0.50000  0.00000  0.09730  1.0000
  Mo  Mo2       1.0  0.00000  0.50000  0.90300  1.0000
  N   N1        1.0  0.50000  0.00000  0.37600  1.0000
  N   N2        1.0  0.00000  0.50000  0.62400  1.0000
  Ta  Ta1       1.0  0.00000  0.50000  0.33500  1.0000
  Ta  Ta2       1.0  0.50000  0.00000  0.66500  1.0000
