data_image0
_chemical_formula_structural       O2PdRb2
_chemical_formula_sum              "O2 Pd1 Rb2"
_cell_length_a       5.39518
_cell_length_b       3.26683
_cell_length_c       6.17327
_cell_angle_alpha    105.343
_cell_angle_beta     115.911
_cell_angle_gamma    90

_space_group_name_H-M_alt    "P 1"
_space_group_IT_number       1

loop_
  _space_group_symop_operation_xyz
  'x, y, z'

loop_
  _atom_site_type_symbol
  _atom_site_label
  _atom_site_symmetry_multiplicity
  _atom_site_fract_x
  _atom_site_fract_y
  _atom_site_fract_z
  _atom_site_occupancy
  O   O1        1.0  0.12300  0.62300  0.24700  1.0000
  O   O2        1.0  0.87700  0.37700  0.75300  1.0000
  Pd  Pd1       1.0  0.00000  0.00000  0.00000  1.0000
  Rb  Rb1       1.0  0.66900  0.66900  0.33700  1.0000
  Rb  Rb2       1.0  0.33100  0.33100  0.66300  1.0000
