data_image0
_chemical_formula_structural       NiO3V2
_chemical_formula_sum              "Ni1 O3 V2"
_cell_length_a       2.86488
_cell_length_b       3.60622
_cell_length_c       6.35001
_cell_angle_alpha    106.495
_cell_angle_beta     103.036
_cell_angle_gamma    89.9994

_space_group_name_H-M_alt    "P 1"
_space_group_IT_number       1

loop_
  _space_group_symop_operation_xyz
  'x, y, z'

loop_
  _atom_site_type_symbol
  _atom_site_label
  _atom_site_symmetry_multiplicity
  _atom_site_fract_x
  _atom_site_fract_y
  _atom_site_fract_z
  _atom_site_occupancy
  Ni  Ni1       1.0  0.00000  0.00024  0.00000  1.0000
  O   O1        1.0  0.00000  0.50000  0.00000  1.0000
  O   O2        1.0  0.17500  0.17600  0.35100  1.0000
  O   O3        1.0  0.82500  0.82500  0.64900  1.0000
  V   V1        1.0  0.65100  0.65100  0.30200  1.0000
  V   V2        1.0  0.34900  0.34900  0.69800  1.0000
