data_image0
_chemical_formula_structural       Eu2Sb4
_chemical_formula_sum              "Eu2 Sb4"
_cell_length_a       4.75659
_cell_length_b       4.34121
_cell_length_c       8.88751
_cell_angle_alpha    90
_cell_angle_beta     103.83
_cell_angle_gamma    90

_space_group_name_H-M_alt    "P 1"
_space_group_IT_number       1

loop_
  _space_group_symop_operation_xyz
  'x, y, z'

loop_
  _atom_site_type_symbol
  _atom_site_label
  _atom_site_symmetry_multiplicity
  _atom_site_fract_x
  _atom_site_fract_y
  _atom_site_fract_z
  _atom_site_occupancy
  Eu  Eu1       1.0  0.41000  0.25000  0.29300  1.0000
  Eu  Eu2       1.0  0.59000  0.75000  0.70700  1.0000
  Sb  Sb1       1.0  0.79200  0.25000  0.01520  1.0000
  Sb  Sb2       1.0  0.95000  0.75000  0.38200  1.0000
  Sb  Sb3       1.0  0.05040  0.25000  0.61800  1.0000
  Sb  Sb4       1.0  0.20800  0.75000  0.98500  1.0000
