data_image0
_chemical_formula_structural       La2Mg2Na2O12W2
_chemical_formula_sum              "La2 Mg2 Na2 O12 W2"
_cell_length_a       5.51594
_cell_length_b       5.51594
_cell_length_c       7.84958
_cell_angle_alpha    90.121
_cell_angle_beta     90.121
_cell_angle_gamma    90.5892

_space_group_name_H-M_alt    "P 1"
_space_group_IT_number       1

loop_
  _space_group_symop_operation_xyz
  'x, y, z'

loop_
  _atom_site_type_symbol
  _atom_site_label
  _atom_site_symmetry_multiplicity
  _atom_site_fract_x
  _atom_site_fract_y
  _atom_site_fract_z
  _atom_site_occupancy
  La  La1       1.0  0.74800  0.25200  0.50000  1.0000
  La  La2       1.0  0.25200  0.74800  0.50000  1.0000
  Mg  Mg1       1.0  0.24800  0.24800  0.24500  1.0000
  Mg  Mg2       1.0  0.75200  0.75200  0.75500  1.0000
  Na  Na1       1.0  0.75100  0.24900  0.00000  1.0000
  Na  Na2       1.0  0.24900  0.75100  0.00000  1.0000
  O   O1        1.0  0.19600  0.19600  0.99300  1.0000
  O   O2        1.0  0.80400  0.80400  0.00728  1.0000
  O   O3        1.0  0.50800  0.50800  0.20200  1.0000
  O   O4        1.0  0.50900  0.99400  0.26800  1.0000
  O   O5        1.0  0.99400  0.50900  0.26800  1.0000
  O   O6        1.0  0.99200  0.99200  0.31000  1.0000
  O   O7        1.0  0.69400  0.69400  0.49500  1.0000
  O   O8        1.0  0.30600  0.30600  0.50500  1.0000
  O   O9        1.0  0.00818  0.00818  0.69000  1.0000
  O   O10       1.0  0.49100  0.00582  0.73200  1.0000
  O   O11       1.0  0.00582  0.49100  0.73200  1.0000
  O   O12       1.0  0.49200  0.49200  0.79800  1.0000
  W   W1        1.0  0.74700  0.74700  0.23300  1.0000
  W   W2        1.0  0.25300  0.25300  0.76700  1.0000
