data_image0
_chemical_formula_structural       Al8O16Pd4
_chemical_formula_sum              "Al8 O16 Pd4"
_cell_length_a       5.48764
_cell_length_b       5.12634
_cell_length_c       9.66242
_cell_angle_alpha    90
_cell_angle_beta     90
_cell_angle_gamma    90

_space_group_name_H-M_alt    "P 1"
_space_group_IT_number       1

loop_
  _space_group_symop_operation_xyz
  'x, y, z'

loop_
  _atom_site_type_symbol
  _atom_site_label
  _atom_site_symmetry_multiplicity
  _atom_site_fract_x
  _atom_site_fract_y
  _atom_site_fract_z
  _atom_site_occupancy
  Al  Al1       1.0  0.56000  0.01620  0.16100  1.0000
  Al  Al2       1.0  0.94000  0.51600  0.16100  1.0000
  Al  Al3       1.0  0.06020  0.01620  0.33900  1.0000
  Al  Al4       1.0  0.44000  0.51600  0.33900  1.0000
  Al  Al5       1.0  0.56000  0.48400  0.66100  1.0000
  Al  Al6       1.0  0.94000  0.98400  0.66100  1.0000
  Al  Al7       1.0  0.06020  0.48400  0.83900  1.0000
  Al  Al8       1.0  0.44000  0.98400  0.83900  1.0000
  O   O1        1.0  0.15700  0.35900  0.01720  1.0000
  O   O2        1.0  0.34300  0.85900  0.01720  1.0000
  O   O3        1.0  0.84200  0.20000  0.23500  1.0000
  O   O4        1.0  0.65800  0.70000  0.23500  1.0000
  O   O5        1.0  0.34200  0.20000  0.26500  1.0000
  O   O6        1.0  0.15800  0.70000  0.26500  1.0000
  O   O7        1.0  0.65700  0.35900  0.48300  1.0000
  O   O8        1.0  0.84300  0.85900  0.48300  1.0000
  O   O9        1.0  0.15700  0.14100  0.51700  1.0000
  O   O10       1.0  0.34300  0.64100  0.51700  1.0000
  O   O11       1.0  0.84200  0.30000  0.73500  1.0000
  O   O12       1.0  0.65800  0.80000  0.73500  1.0000
  O   O13       1.0  0.34200  0.30000  0.76500  1.0000
  O   O14       1.0  0.15800  0.80000  0.76500  1.0000
  O   O15       1.0  0.65700  0.14100  0.98300  1.0000
  O   O16       1.0  0.84300  0.64100  0.98300  1.0000
  Pd  Pd1       1.0  0.00000  0.00000  0.00000  1.0000
  Pd  Pd2       1.0  0.50000  0.50000  0.00000  1.0000
  Pd  Pd3       1.0  0.50000  0.00000  0.50000  1.0000
  Pd  Pd4       1.0  0.00000  0.50000  0.50000  1.0000
