data_image0
_chemical_formula_structural       Ge2Ni2O4
_chemical_formula_sum              "Ge2 Ni2 O4"
_cell_length_a       2.9203
_cell_length_b       3.85226
_cell_length_c       8.06312
_cell_angle_alpha    90
_cell_angle_beta     79.5668
_cell_angle_gamma    90

_space_group_name_H-M_alt    "P 1"
_space_group_IT_number       1

loop_
  _space_group_symop_operation_xyz
  'x, y, z'

loop_
  _atom_site_type_symbol
  _atom_site_label
  _atom_site_symmetry_multiplicity
  _atom_site_fract_x
  _atom_site_fract_y
  _atom_site_fract_z
  _atom_site_occupancy
  Ge  Ge1       1.0  0.32600  0.75000  0.34800  1.0000
  Ge  Ge2       1.0  0.67400  0.25000  0.65200  1.0000
  Ni  Ni1       1.0  0.93900  0.25000  0.12200  1.0000
  Ni  Ni2       1.0  0.06080  0.75000  0.87800  1.0000
  O   O1        1.0  0.93300  0.75000  0.13400  1.0000
  O   O2        1.0  0.81200  0.25000  0.37600  1.0000
  O   O3        1.0  0.18800  0.75000  0.62400  1.0000
  O   O4        1.0  0.06680  0.25000  0.86600  1.0000
