data_image0
_chemical_formula_structural       Hg2Ni2O4
_chemical_formula_sum              "Hg2 Ni2 O4"
_cell_length_a       3.29635
_cell_length_b       3.76129
_cell_length_c       8.30023
_cell_angle_alpha    90
_cell_angle_beta     78.5467
_cell_angle_gamma    90

_space_group_name_H-M_alt    "P 1"
_space_group_IT_number       1

loop_
  _space_group_symop_operation_xyz
  'x, y, z'

loop_
  _atom_site_type_symbol
  _atom_site_label
  _atom_site_symmetry_multiplicity
  _atom_site_fract_x
  _atom_site_fract_y
  _atom_site_fract_z
  _atom_site_occupancy
  Hg  Hg1       1.0  0.32700  0.75000  0.34500  1.0000
  Hg  Hg2       1.0  0.67300  0.25000  0.65500  1.0000
  Ni  Ni1       1.0  0.93800  0.25000  0.12500  1.0000
  Ni  Ni2       1.0  0.06250  0.75000  0.87500  1.0000
  O   O1        1.0  0.94500  0.75000  0.10900  1.0000
  O   O2        1.0  0.81900  0.25000  0.36200  1.0000
  O   O3        1.0  0.18100  0.75000  0.63800  1.0000
  O   O4        1.0  0.05460  0.25000  0.89100  1.0000
