data_image0
_chemical_formula_structural       Ni2O4Zn2
_chemical_formula_sum              "Ni2 O4 Zn2"
_cell_length_a       2.90301
_cell_length_b       3.70143
_cell_length_c       7.57049
_cell_angle_alpha    90
_cell_angle_beta     78.7955
_cell_angle_gamma    90

_space_group_name_H-M_alt    "P 1"
_space_group_IT_number       1

loop_
  _space_group_symop_operation_xyz
  'x, y, z'

loop_
  _atom_site_type_symbol
  _atom_site_label
  _atom_site_symmetry_multiplicity
  _atom_site_fract_x
  _atom_site_fract_y
  _atom_site_fract_z
  _atom_site_occupancy
  Ni  Ni1       1.0  0.93400  0.25000  0.12900  1.0000
  Ni  Ni2       1.0  0.06590  0.75000  0.87100  1.0000
  O   O1        1.0  0.93500  0.75000  0.13000  1.0000
  O   O2        1.0  0.81200  0.25000  0.38000  1.0000
  O   O3        1.0  0.18800  0.75000  0.62000  1.0000
  O   O4        1.0  0.06480  0.25000  0.87000  1.0000
  Zn  Zn1       1.0  0.32300  0.75000  0.35400  1.0000
  Zn  Zn2       1.0  0.67700  0.25000  0.64600  1.0000
