data_image0
_chemical_formula_structural       Cd2Ni2O4
_chemical_formula_sum              "Cd2 Ni2 O4"
_cell_length_a       3.16745
_cell_length_b       3.73121
_cell_length_c       8.09207
_cell_angle_alpha    90
_cell_angle_beta     78.7136
_cell_angle_gamma    90

_space_group_name_H-M_alt    "P 1"
_space_group_IT_number       1

loop_
  _space_group_symop_operation_xyz
  'x, y, z'

loop_
  _atom_site_type_symbol
  _atom_site_label
  _atom_site_symmetry_multiplicity
  _atom_site_fract_x
  _atom_site_fract_y
  _atom_site_fract_z
  _atom_site_occupancy
  Cd  Cd1       1.0  0.32700  0.75000  0.34600  1.0000
  Cd  Cd2       1.0  0.67300  0.25000  0.65400  1.0000
  Ni  Ni1       1.0  0.93700  0.25000  0.12600  1.0000
  Ni  Ni2       1.0  0.06280  0.75000  0.87400  1.0000
  O   O1        1.0  0.94300  0.75000  0.11400  1.0000
  O   O2        1.0  0.81700  0.25000  0.36600  1.0000
  O   O3        1.0  0.18300  0.75000  0.63400  1.0000
  O   O4        1.0  0.05690  0.25000  0.88600  1.0000
