data_image0
_chemical_formula_structural       Ca2Ni2O4
_chemical_formula_sum              "Ca2 Ni2 O4"
_cell_length_a       3.27148
_cell_length_b       3.7229
_cell_length_c       8.01801
_cell_angle_alpha    90
_cell_angle_beta     78.2286
_cell_angle_gamma    90

_space_group_name_H-M_alt    "P 1"
_space_group_IT_number       1

loop_
  _space_group_symop_operation_xyz
  'x, y, z'

loop_
  _atom_site_type_symbol
  _atom_site_label
  _atom_site_symmetry_multiplicity
  _atom_site_fract_x
  _atom_site_fract_y
  _atom_site_fract_z
  _atom_site_occupancy
  Ca  Ca1       1.0  0.32800  0.75000  0.34300  1.0000
  Ca  Ca2       1.0  0.67200  0.25000  0.65700  1.0000
  Ni  Ni1       1.0  0.93700  0.25000  0.12600  1.0000
  Ni  Ni2       1.0  0.06310  0.75000  0.87400  1.0000
  O   O1        1.0  0.94300  0.75000  0.11500  1.0000
  O   O2        1.0  0.81700  0.25000  0.36600  1.0000
  O   O3        1.0  0.18300  0.75000  0.63400  1.0000
  O   O4        1.0  0.05740  0.25000  0.88500  1.0000
