data_image0
_chemical_formula_structural       Mg2NiO3
_chemical_formula_sum              "Mg2 Ni1 O3"
_cell_length_a       4.16677
_cell_length_b       2.9651
_cell_length_c       5.11754
_cell_angle_alpha    106.81
_cell_angle_beta     114.126
_cell_angle_gamma    89.9914

_space_group_name_H-M_alt    "P 1"
_space_group_IT_number       1

loop_
  _space_group_symop_operation_xyz
  'x, y, z'

loop_
  _atom_site_type_symbol
  _atom_site_label
  _atom_site_symmetry_multiplicity
  _atom_site_fract_x
  _atom_site_fract_y
  _atom_site_fract_z
  _atom_site_occupancy
  Mg  Mg1       1.0  0.74800  0.41600  0.33000  1.0000
  Mg  Mg2       1.0  0.41900  0.08510  0.67000  1.0000
  Ni  Ni1       1.0  0.08340  0.74900  0.00000  1.0000
  O   O1        1.0  0.58300  0.75100  0.00000  1.0000
  O   O2        1.0  0.25100  0.41700  0.33500  1.0000
  O   O3        1.0  0.91600  0.08200  0.66500  1.0000
