data_image0
_chemical_formula_structural       Gd8O16Pd4
_chemical_formula_sum              "Gd8 O16 Pd4"
_cell_length_a       5.58563
_cell_length_b       5.61059
_cell_length_c       12.0096
_cell_angle_alpha    90
_cell_angle_beta     90
_cell_angle_gamma    90

_space_group_name_H-M_alt    "P 1"
_space_group_IT_number       1

loop_
  _space_group_symop_operation_xyz
  'x, y, z'

loop_
  _atom_site_type_symbol
  _atom_site_label
  _atom_site_symmetry_multiplicity
  _atom_site_fract_x
  _atom_site_fract_y
  _atom_site_fract_z
  _atom_site_occupancy
  Gd  Gd1       1.0  0.49100  0.03880  0.15800  1.0000
  Gd  Gd2       1.0  0.00887  0.53900  0.15800  1.0000
  Gd  Gd3       1.0  0.99100  0.03880  0.34200  1.0000
  Gd  Gd4       1.0  0.50900  0.53900  0.34200  1.0000
  Gd  Gd5       1.0  0.49100  0.46100  0.65800  1.0000
  Gd  Gd6       1.0  0.00887  0.96100  0.65800  1.0000
  Gd  Gd7       1.0  0.99100  0.46100  0.84200  1.0000
  Gd  Gd8       1.0  0.50900  0.96100  0.84200  1.0000
  O   O1        1.0  0.18200  0.31700  0.01010  1.0000
  O   O2        1.0  0.31800  0.81700  0.01010  1.0000
  O   O3        1.0  0.75900  0.28900  0.24400  1.0000
  O   O4        1.0  0.74100  0.78900  0.24400  1.0000
  O   O5        1.0  0.25900  0.28900  0.25600  1.0000
  O   O6        1.0  0.24100  0.78900  0.25600  1.0000
  O   O7        1.0  0.68200  0.31700  0.49000  1.0000
  O   O8        1.0  0.81800  0.81700  0.49000  1.0000
  O   O9        1.0  0.18200  0.18300  0.51000  1.0000
  O   O10       1.0  0.31800  0.68300  0.51000  1.0000
  O   O11       1.0  0.75900  0.21100  0.74400  1.0000
  O   O12       1.0  0.74100  0.71100  0.74400  1.0000
  O   O13       1.0  0.25900  0.21100  0.75600  1.0000
  O   O14       1.0  0.24100  0.71100  0.75600  1.0000
  O   O15       1.0  0.68200  0.18300  0.99000  1.0000
  O   O16       1.0  0.81800  0.68300  0.99000  1.0000
  Pd  Pd1       1.0  0.00000  0.00000  0.00000  1.0000
  Pd  Pd2       1.0  0.50000  0.50000  0.00000  1.0000
  Pd  Pd3       1.0  0.50000  0.00000  0.50000  1.0000
  Pd  Pd4       1.0  0.00000  0.50000  0.50000  1.0000
