data_image0
_chemical_formula_structural       Ga8O16Pd4
_chemical_formula_sum              "Ga8 O16 Pd4"
_cell_length_a       5.55676
_cell_length_b       5.24794
_cell_length_c       10.0869
_cell_angle_alpha    90
_cell_angle_beta     90
_cell_angle_gamma    90

_space_group_name_H-M_alt    "P 1"
_space_group_IT_number       1

loop_
  _space_group_symop_operation_xyz
  'x, y, z'

loop_
  _atom_site_type_symbol
  _atom_site_label
  _atom_site_symmetry_multiplicity
  _atom_site_fract_x
  _atom_site_fract_y
  _atom_site_fract_z
  _atom_site_occupancy
  Ga  Ga1       1.0  0.55200  0.01490  0.16000  1.0000
  Ga  Ga2       1.0  0.94800  0.51500  0.16000  1.0000
  Ga  Ga3       1.0  0.05160  0.01490  0.34000  1.0000
  Ga  Ga4       1.0  0.44800  0.51500  0.34000  1.0000
  Ga  Ga5       1.0  0.55200  0.48500  0.66000  1.0000
  Ga  Ga6       1.0  0.94800  0.98500  0.66000  1.0000
  Ga  Ga7       1.0  0.05160  0.48500  0.84000  1.0000
  Ga  Ga8       1.0  0.44800  0.98500  0.84000  1.0000
  O   O1        1.0  0.16100  0.35000  0.01570  1.0000
  O   O2        1.0  0.33900  0.85000  0.01570  1.0000
  O   O3        1.0  0.83600  0.20500  0.23600  1.0000
  O   O4        1.0  0.66400  0.70500  0.23600  1.0000
  O   O5        1.0  0.33600  0.20500  0.26400  1.0000
  O   O6        1.0  0.16400  0.70500  0.26400  1.0000
  O   O7        1.0  0.66100  0.35000  0.48400  1.0000
  O   O8        1.0  0.83900  0.85000  0.48400  1.0000
  O   O9        1.0  0.16100  0.15000  0.51600  1.0000
  O   O10       1.0  0.33900  0.65000  0.51600  1.0000
  O   O11       1.0  0.83600  0.29500  0.73600  1.0000
  O   O12       1.0  0.66400  0.79500  0.73600  1.0000
  O   O13       1.0  0.33600  0.29500  0.76400  1.0000
  O   O14       1.0  0.16400  0.79500  0.76400  1.0000
  O   O15       1.0  0.66100  0.15000  0.98400  1.0000
  O   O16       1.0  0.83900  0.65000  0.98400  1.0000
  Pd  Pd1       1.0  0.00000  0.00000  0.00000  1.0000
  Pd  Pd2       1.0  0.50000  0.50000  0.00000  1.0000
  Pd  Pd3       1.0  0.50000  0.00000  0.50000  1.0000
  Pd  Pd4       1.0  0.00000  0.50000  0.50000  1.0000
