data_image0
_chemical_formula_structural       Fe2NiO3
_chemical_formula_sum              "Fe2 Ni1 O3"
_cell_length_a       2.74945
_cell_length_b       3.27584
_cell_length_c       7.66372
_cell_angle_alpha    102.32
_cell_angle_beta     100.276
_cell_angle_gamma    89.9976

_space_group_name_H-M_alt    "P 1"
_space_group_IT_number       1

loop_
  _space_group_symop_operation_xyz
  'x, y, z'

loop_
  _atom_site_type_symbol
  _atom_site_label
  _atom_site_symmetry_multiplicity
  _atom_site_fract_x
  _atom_site_fract_y
  _atom_site_fract_z
  _atom_site_occupancy
  Fe  Fe1       1.0  0.17600  0.17500  0.35100  1.0000
  Fe  Fe2       1.0  0.82500  0.82400  0.64900  1.0000
  Ni  Ni1       1.0  0.99900  0.00000  0.00000  1.0000
  O   O1        1.0  0.00000  0.50000  0.00050  1.0000
  O   O2        1.0  0.68600  0.68600  0.37100  1.0000
  O   O3        1.0  0.31500  0.31500  0.62900  1.0000
