data_image0
_chemical_formula_structural       Al4Cl16Mg2
_chemical_formula_sum              "Al4 Cl16 Mg2"
_cell_length_a       7.89525
_cell_length_b       9.40199
_cell_length_c       9.72249
_cell_angle_alpha    94.5069
_cell_angle_beta     113.956
_cell_angle_gamma    65.1735

_space_group_name_H-M_alt    "P 1"
_space_group_IT_number       1

loop_
  _space_group_symop_operation_xyz
  'x, y, z'

loop_
  _atom_site_type_symbol
  _atom_site_label
  _atom_site_symmetry_multiplicity
  _atom_site_fract_x
  _atom_site_fract_y
  _atom_site_fract_z
  _atom_site_occupancy
  Al  Al1       1.0  0.69500  0.14200  0.03540  1.0000
  Al  Al2       1.0  0.30200  0.35800  0.46500  1.0000
  Al  Al3       1.0  0.69800  0.64200  0.53500  1.0000
  Al  Al4       1.0  0.30500  0.85800  0.96500  1.0000
  Cl  Cl1       1.0  0.84300  0.29000  0.02390  1.0000
  Cl  Cl2       1.0  0.41400  0.27000  0.05060  1.0000
  Cl  Cl3       1.0  0.33700  0.95500  0.18000  1.0000
  Cl  Cl4       1.0  0.89700  0.95600  0.22500  1.0000
  Cl  Cl5       1.0  0.12800  0.54400  0.27500  1.0000
  Cl  Cl6       1.0  0.61100  0.54500  0.32000  1.0000
  Cl  Cl7       1.0  0.13300  0.23000  0.44900  1.0000
  Cl  Cl8       1.0  0.61000  0.21000  0.47600  1.0000
  Cl  Cl9       1.0  0.39000  0.79000  0.52400  1.0000
  Cl  Cl10      1.0  0.86700  0.77000  0.55100  1.0000
  Cl  Cl11      1.0  0.38900  0.45500  0.68000  1.0000
  Cl  Cl12      1.0  0.87200  0.45600  0.72500  1.0000
  Cl  Cl13      1.0  0.10300  0.04380  0.77500  1.0000
  Cl  Cl14      1.0  0.66300  0.04500  0.82000  1.0000
  Cl  Cl15      1.0  0.58600  0.73000  0.94900  1.0000
  Cl  Cl16      1.0  0.15700  0.71000  0.97600  1.0000
  Mg  Mg1       1.0  0.24500  0.75000  0.25000  1.0000
  Mg  Mg2       1.0  0.75500  0.25000  0.75000  1.0000
