data_image0
_chemical_formula_structural       Fe8O16Pd4
_chemical_formula_sum              "Fe8 O16 Pd4"
_cell_length_a       5.33083
_cell_length_b       5.31898
_cell_length_c       10.2716
_cell_angle_alpha    90
_cell_angle_beta     90
_cell_angle_gamma    90

_space_group_name_H-M_alt    "P 1"
_space_group_IT_number       1

loop_
  _space_group_symop_operation_xyz
  'x, y, z'

loop_
  _atom_site_type_symbol
  _atom_site_label
  _atom_site_symmetry_multiplicity
  _atom_site_fract_x
  _atom_site_fract_y
  _atom_site_fract_z
  _atom_site_occupancy
  Fe  Fe1       1.0  0.50000  0.00291  0.16600  1.0000
  Fe  Fe2       1.0  0.00032  0.50300  0.16600  1.0000
  Fe  Fe3       1.0  0.00000  0.00291  0.33400  1.0000
  Fe  Fe4       1.0  0.50000  0.50300  0.33400  1.0000
  Fe  Fe5       1.0  0.50000  0.49700  0.66600  1.0000
  Fe  Fe6       1.0  0.00032  0.99700  0.66600  1.0000
  Fe  Fe7       1.0  0.00000  0.49700  0.83400  1.0000
  Fe  Fe8       1.0  0.50000  0.99700  0.83400  1.0000
  O   O1        1.0  0.15600  0.34500  0.00042  1.0000
  O   O2        1.0  0.34400  0.84500  0.00042  1.0000
  O   O3        1.0  0.76800  0.25300  0.25000  1.0000
  O   O4        1.0  0.73200  0.75300  0.25000  1.0000
  O   O5        1.0  0.26800  0.25300  0.25000  1.0000
  O   O6        1.0  0.23200  0.75300  0.25000  1.0000
  O   O7        1.0  0.65600  0.34500  0.50000  1.0000
  O   O8        1.0  0.84400  0.84500  0.50000  1.0000
  O   O9        1.0  0.15600  0.15500  0.50000  1.0000
  O   O10       1.0  0.34400  0.65500  0.50000  1.0000
  O   O11       1.0  0.76800  0.24700  0.75000  1.0000
  O   O12       1.0  0.73200  0.74700  0.75000  1.0000
  O   O13       1.0  0.26800  0.24700  0.75000  1.0000
  O   O14       1.0  0.23200  0.74700  0.75000  1.0000
  O   O15       1.0  0.65600  0.15500  0.00000  1.0000
  O   O16       1.0  0.84400  0.65500  0.00000  1.0000
  Pd  Pd1       1.0  0.00000  0.00000  0.00000  1.0000
  Pd  Pd2       1.0  0.50000  0.50000  0.00000  1.0000
  Pd  Pd3       1.0  0.50000  0.00000  0.50000  1.0000
  Pd  Pd4       1.0  0.00000  0.50000  0.50000  1.0000
