data_image0
_chemical_formula_structural       Hg2NiO3
_chemical_formula_sum              "Hg2 Ni1 O3"
_cell_length_a       3.2962
_cell_length_b       3.76027
_cell_length_c       6.72278
_cell_angle_alpha    106.24
_cell_angle_beta     104.191
_cell_angle_gamma    90

_space_group_name_H-M_alt    "P 1"
_space_group_IT_number       1

loop_
  _space_group_symop_operation_xyz
  'x, y, z'

loop_
  _atom_site_type_symbol
  _atom_site_label
  _atom_site_symmetry_multiplicity
  _atom_site_fract_x
  _atom_site_fract_y
  _atom_site_fract_z
  _atom_site_occupancy
  Hg  Hg1       1.0  0.65200  0.65200  0.30300  1.0000
  Hg  Hg2       1.0  0.34800  0.34800  0.69700  1.0000
  Ni  Ni1       1.0  0.00000  0.00000  0.00000  1.0000
  O   O1        1.0  0.00000  0.50000  0.00000  1.0000
  O   O2        1.0  0.15600  0.15600  0.31300  1.0000
  O   O3        1.0  0.84400  0.84400  0.68700  1.0000
