data_image0
_chemical_formula_structural       CCr2LaSi2
_chemical_formula_sum              "C1 Cr2 La1 Si2"
_cell_length_a       4.01563
_cell_length_b       4.01563
_cell_length_c       5.45303
_cell_angle_alpha    90
_cell_angle_beta     90
_cell_angle_gamma    90

_space_group_name_H-M_alt    "P 1"
_space_group_IT_number       1

loop_
  _space_group_symop_operation_xyz
  'x, y, z'

loop_
  _atom_site_type_symbol
  _atom_site_label
  _atom_site_symmetry_multiplicity
  _atom_site_fract_x
  _atom_site_fract_y
  _atom_site_fract_z
  _atom_site_occupancy
  C   C1        1.0  0.00000  0.00000  0.50000  1.0000
  Cr  Cr1       1.0  0.50000  0.00000  0.50000  1.0000
  Cr  Cr2       1.0  0.00000  0.50000  0.50000  1.0000
  La  La1       1.0  0.00000  0.00000  0.00000  1.0000
  Si  Si1       1.0  0.50000  0.50000  0.23800  1.0000
  Si  Si2       1.0  0.50000  0.50000  0.76200  1.0000
