data_image0
_chemical_formula_structural       Fe2Ni2O4
_chemical_formula_sum              "Fe2 Ni2 O4"
_cell_length_a       2.93412
_cell_length_b       4.22837
_cell_length_c       6.16975
_cell_angle_alpha    89.9788
_cell_angle_beta     87.4416
_cell_angle_gamma    93.2664

_space_group_name_H-M_alt    "P 1"
_space_group_IT_number       1

loop_
  _space_group_symop_operation_xyz
  'x, y, z'

loop_
  _atom_site_type_symbol
  _atom_site_label
  _atom_site_symmetry_multiplicity
  _atom_site_fract_x
  _atom_site_fract_y
  _atom_site_fract_z
  _atom_site_occupancy
  Fe  Fe1       1.0  0.25500  0.75000  0.37000  1.0000
  Fe  Fe2       1.0  0.74500  0.25000  0.63000  1.0000
  Ni  Ni1       1.0  0.74700  0.24900  0.12300  1.0000
  Ni  Ni2       1.0  0.25200  0.75100  0.87800  1.0000
  O   O1        1.0  0.74000  0.74900  0.11300  1.0000
  O   O2        1.0  0.23700  0.24900  0.36500  1.0000
  O   O3        1.0  0.76500  0.75100  0.63500  1.0000
  O   O4        1.0  0.25800  0.25200  0.88700  1.0000
