data_image0
_chemical_formula_structural       F4O4Yb4
_chemical_formula_sum              "F4 O4 Yb4"
_cell_length_a       5.72571
_cell_length_b       4.47246
_cell_length_c       5.85907
_cell_angle_alpha    90
_cell_angle_beta     96.7479
_cell_angle_gamma    90

_space_group_name_H-M_alt    "P 1"
_space_group_IT_number       1

loop_
  _space_group_symop_operation_xyz
  'x, y, z'

loop_
  _atom_site_type_symbol
  _atom_site_label
  _atom_site_symmetry_multiplicity
  _atom_site_fract_x
  _atom_site_fract_y
  _atom_site_fract_z
  _atom_site_occupancy
  F   F1        1.0  0.95000  0.76300  0.11700  1.0000
  F   F2        1.0  0.04990  0.26300  0.38300  1.0000
  F   F3        1.0  0.95000  0.73700  0.61700  1.0000
  F   F4        1.0  0.04990  0.23700  0.88300  1.0000
  O   O1        1.0  0.46300  0.65700  0.01480  1.0000
  O   O2        1.0  0.53700  0.15700  0.48500  1.0000
  O   O3        1.0  0.46300  0.84300  0.51500  1.0000
  O   O4        1.0  0.53700  0.34300  0.98500  1.0000
  Yb  Yb1       1.0  0.26700  0.03010  0.17100  1.0000
  Yb  Yb2       1.0  0.73300  0.53000  0.32900  1.0000
  Yb  Yb3       1.0  0.26700  0.47000  0.67100  1.0000
  Yb  Yb4       1.0  0.73300  0.97000  0.82900  1.0000
