data_image0
_chemical_formula_structural       O2PdTl2
_chemical_formula_sum              "O2 Pd1 Tl2"
_cell_length_a       4.18363
_cell_length_b       3.17147
_cell_length_c       7.83683
_cell_angle_alpha    101.674
_cell_angle_beta     105.481
_cell_angle_gamma    90

_space_group_name_H-M_alt    "P 1"
_space_group_IT_number       1

loop_
  _space_group_symop_operation_xyz
  'x, y, z'

loop_
  _atom_site_type_symbol
  _atom_site_label
  _atom_site_symmetry_multiplicity
  _atom_site_fract_x
  _atom_site_fract_y
  _atom_site_fract_z
  _atom_site_occupancy
  O   O1        1.0  0.08760  0.58800  0.17500  1.0000
  O   O2        1.0  0.91200  0.41200  0.82500  1.0000
  Pd  Pd1       1.0  0.00000  0.00000  0.00000  1.0000
  Tl  Tl1       1.0  0.66800  0.66800  0.33500  1.0000
  Tl  Tl2       1.0  0.33200  0.33200  0.66500  1.0000
