data_image0
_chemical_formula_structural       I4O4Sc4
_chemical_formula_sum              "I4 O4 Sc4"
_cell_length_a       3.8633
_cell_length_b       7.21916
_cell_length_c       9.87699
_cell_angle_alpha    93.4383
_cell_angle_beta     101.278
_cell_angle_gamma    90

_space_group_name_H-M_alt    "P 1"
_space_group_IT_number       1

loop_
  _space_group_symop_operation_xyz
  'x, y, z'

loop_
  _atom_site_type_symbol
  _atom_site_label
  _atom_site_symmetry_multiplicity
  _atom_site_fract_x
  _atom_site_fract_y
  _atom_site_fract_z
  _atom_site_occupancy
  I   I1        1.0  0.58300  0.84400  0.16700  1.0000
  I   I2        1.0  0.10200  0.35200  0.20300  1.0000
  I   I3        1.0  0.89800  0.64800  0.79700  1.0000
  I   I4        1.0  0.41700  0.15600  0.83300  1.0000
  O   O1        1.0  0.24400  0.12000  0.48900  1.0000
  O   O2        1.0  0.24500  0.62800  0.48900  1.0000
  O   O3        1.0  0.75500  0.37200  0.51100  1.0000
  O   O4        1.0  0.75600  0.88000  0.51100  1.0000
  Sc  Sc1       1.0  0.69900  0.11800  0.39900  1.0000
  Sc  Sc2       1.0  0.70100  0.61600  0.40200  1.0000
  Sc  Sc3       1.0  0.29900  0.38400  0.59800  1.0000
  Sc  Sc4       1.0  0.30100  0.88200  0.60100  1.0000
