data_image0
_chemical_formula_structural       Ca2NiO3
_chemical_formula_sum              "Ca2 Ni1 O3"
_cell_length_a       3.25924
_cell_length_b       3.67164
_cell_length_c       6.45461
_cell_angle_alpha    106.524
_cell_angle_beta     104.624
_cell_angle_gamma    90

_space_group_name_H-M_alt    "P 1"
_space_group_IT_number       1

loop_
  _space_group_symop_operation_xyz
  'x, y, z'

loop_
  _atom_site_type_symbol
  _atom_site_label
  _atom_site_symmetry_multiplicity
  _atom_site_fract_x
  _atom_site_fract_y
  _atom_site_fract_z
  _atom_site_occupancy
  Ca  Ca1       1.0  0.64900  0.64900  0.29700  1.0000
  Ca  Ca2       1.0  0.35100  0.35100  0.70300  1.0000
  Ni  Ni1       1.0  0.00000  0.00000  0.00000  1.0000
  O   O1        1.0  0.00000  0.50000  0.00000  1.0000
  O   O2        1.0  0.15900  0.15900  0.31800  1.0000
  O   O3        1.0  0.84100  0.84100  0.68200  1.0000
