data_image0
_chemical_formula_structural       F2Ir2O2
_chemical_formula_sum              "F2 Ir2 O2"
_cell_length_a       4.06133
_cell_length_b       3.17517
_cell_length_c       5.53005
_cell_angle_alpha    90
_cell_angle_beta     90
_cell_angle_gamma    90

_space_group_name_H-M_alt    "P 1"
_space_group_IT_number       1

loop_
  _space_group_symop_operation_xyz
  'x, y, z'

loop_
  _atom_site_type_symbol
  _atom_site_label
  _atom_site_symmetry_multiplicity
  _atom_site_fract_x
  _atom_site_fract_y
  _atom_site_fract_z
  _atom_site_occupancy
  F   F1        1.0  0.00000  0.00000  0.39900  1.0000
  F   F2        1.0  0.50000  0.50000  0.60100  1.0000
  Ir  Ir1       1.0  0.00000  0.50000  0.16000  1.0000
  Ir  Ir2       1.0  0.50000  0.00000  0.84000  1.0000
  O   O1        1.0  0.50000  0.50000  0.07630  1.0000
  O   O2        1.0  0.00000  0.00000  0.92400  1.0000
