data_image0
_chemical_formula_structural       Mg4O2S2
_chemical_formula_sum              "Mg4 O2 S2"
_cell_length_a       3.51784
_cell_length_b       3.51788
_cell_length_c       11.4145
_cell_angle_alpha    90
_cell_angle_beta     90
_cell_angle_gamma    120

_space_group_name_H-M_alt    "P 1"
_space_group_IT_number       1

loop_
  _space_group_symop_operation_xyz
  'x, y, z'

loop_
  _atom_site_type_symbol
  _atom_site_label
  _atom_site_symmetry_multiplicity
  _atom_site_fract_x
  _atom_site_fract_y
  _atom_site_fract_z
  _atom_site_occupancy
  Mg  Mg1       1.0  0.33300  0.66700  0.26500  1.0000
  Mg  Mg2       1.0  0.00000  0.00000  0.49400  1.0000
  Mg  Mg3       1.0  0.66700  0.33300  0.76500  1.0000
  Mg  Mg4       1.0  0.00000  0.00000  0.99400  1.0000
  O   O1        1.0  0.00000  0.00000  0.32600  1.0000
  O   O2        1.0  0.00000  0.00000  0.82600  1.0000
  S   S1        1.0  0.66700  0.33300  0.10200  1.0000
  S   S2        1.0  0.33300  0.66700  0.60200  1.0000
