data_image0
_chemical_formula_structural       Ni2O4Pb2
_chemical_formula_sum              "Ni2 O4 Pb2"
_cell_length_a       3.59134
_cell_length_b       3.81548
_cell_length_c       8.50395
_cell_angle_alpha    90
_cell_angle_beta     77.8098
_cell_angle_gamma    90

_space_group_name_H-M_alt    "P 1"
_space_group_IT_number       1

loop_
  _space_group_symop_operation_xyz
  'x, y, z'

loop_
  _atom_site_type_symbol
  _atom_site_label
  _atom_site_symmetry_multiplicity
  _atom_site_fract_x
  _atom_site_fract_y
  _atom_site_fract_z
  _atom_site_occupancy
  Ni  Ni1       1.0  0.93900  0.25000  0.12200  1.0000
  Ni  Ni2       1.0  0.06090  0.75000  0.87800  1.0000
  O   O1        1.0  0.94700  0.75000  0.10600  1.0000
  O   O2        1.0  0.82400  0.25000  0.35200  1.0000
  O   O3        1.0  0.17600  0.75000  0.64800  1.0000
  O   O4        1.0  0.05280  0.25000  0.89400  1.0000
  Pb  Pb1       1.0  0.33100  0.75000  0.33800  1.0000
  Pb  Pb2       1.0  0.66900  0.25000  0.66200  1.0000
