data_image0
_chemical_formula_structural       Ag2Mg2O2S2
_chemical_formula_sum              "Ag2 Mg2 O2 S2"
_cell_length_a       3.2711
_cell_length_b       3.27117
_cell_length_c       13.3639
_cell_angle_alpha    90
_cell_angle_beta     90
_cell_angle_gamma    119.999

_space_group_name_H-M_alt    "P 1"
_space_group_IT_number       1

loop_
  _space_group_symop_operation_xyz
  'x, y, z'

loop_
  _atom_site_type_symbol
  _atom_site_label
  _atom_site_symmetry_multiplicity
  _atom_site_fract_x
  _atom_site_fract_y
  _atom_site_fract_z
  _atom_site_occupancy
  Ag  Ag1       1.0  0.00000  0.00000  0.48200  1.0000
  Ag  Ag2       1.0  0.00000  0.00000  0.98200  1.0000
  Mg  Mg1       1.0  0.33300  0.66700  0.27600  1.0000
  Mg  Mg2       1.0  0.66700  0.33300  0.77600  1.0000
  O   O1        1.0  0.00000  0.00000  0.31700  1.0000
  O   O2        1.0  0.00000  0.00000  0.81700  1.0000
  S   S1        1.0  0.66700  0.33300  0.11200  1.0000
  S   S2        1.0  0.33300  0.66700  0.61200  1.0000
