data_image0
_chemical_formula_structural       Cl2H8MgO12
_chemical_formula_sum              "Cl2 H8 Mg1 O12"
_cell_length_a       5.78215
_cell_length_b       6.69857
_cell_length_c       6.69857
_cell_angle_alpha    70.0123
_cell_angle_beta     107.855
_cell_angle_gamma    107.855

_space_group_name_H-M_alt    "P 1"
_space_group_IT_number       1

loop_
  _space_group_symop_operation_xyz
  'x, y, z'

loop_
  _atom_site_type_symbol
  _atom_site_label
  _atom_site_symmetry_multiplicity
  _atom_site_fract_x
  _atom_site_fract_y
  _atom_site_fract_z
  _atom_site_occupancy
  Cl  Cl1       1.0  0.39600  0.30200  0.30200  1.0000
  Cl  Cl2       1.0  0.60400  0.69800  0.69800  1.0000
  H   H1        1.0  0.73600  0.24500  0.03920  1.0000
  H   H2        1.0  0.73600  0.03920  0.24500  1.0000
  H   H3        1.0  0.86000  0.61600  0.28200  1.0000
  H   H4        1.0  0.14000  0.71800  0.38400  1.0000
  H   H5        1.0  0.86000  0.28200  0.61600  1.0000
  H   H6        1.0  0.14000  0.38400  0.71800  1.0000
  H   H7        1.0  0.26400  0.96100  0.75500  1.0000
  H   H8        1.0  0.26400  0.75500  0.96100  1.0000
  Mg  Mg1       1.0  0.00000  0.00000  0.00000  1.0000
  O   O1        1.0  0.80400  0.11600  0.11600  1.0000
  O   O2        1.0  0.34300  0.16000  0.16000  1.0000
  O   O3        1.0  0.29700  0.49300  0.18400  1.0000
  O   O4        1.0  0.00000  0.74200  0.25800  1.0000
  O   O5        1.0  0.67000  0.36600  0.36600  1.0000
  O   O6        1.0  0.29700  0.18400  0.49300  1.0000
  O   O7        1.0  0.70300  0.81600  0.50700  1.0000
  O   O8        1.0  0.33000  0.63400  0.63400  1.0000
  O   O9        1.0  0.00000  0.25800  0.74200  1.0000
  O   O10       1.0  0.70300  0.50700  0.81600  1.0000
  O   O11       1.0  0.65700  0.84000  0.84000  1.0000
  O   O12       1.0  0.19600  0.88400  0.88400  1.0000
