data_image0
_chemical_formula_structural       Ag2O2S2Zn2
_chemical_formula_sum              "Ag2 O2 S2 Zn2"
_cell_length_a       3.2629
_cell_length_b       3.26296
_cell_length_c       13.0885
_cell_angle_alpha    90
_cell_angle_beta     90
_cell_angle_gamma    119.999

_space_group_name_H-M_alt    "P 1"
_space_group_IT_number       1

loop_
  _space_group_symop_operation_xyz
  'x, y, z'

loop_
  _atom_site_type_symbol
  _atom_site_label
  _atom_site_symmetry_multiplicity
  _atom_site_fract_x
  _atom_site_fract_y
  _atom_site_fract_z
  _atom_site_occupancy
  Ag  Ag1       1.0  0.00000  0.00000  0.48500  1.0000
  Ag  Ag2       1.0  0.00000  0.00000  0.98500  1.0000
  O   O1        1.0  0.00000  0.00000  0.31800  1.0000
  O   O2        1.0  0.00000  0.00000  0.81800  1.0000
  S   S1        1.0  0.66700  0.33300  0.11700  1.0000
  S   S2        1.0  0.33300  0.66700  0.61700  1.0000
  Zn  Zn1       1.0  0.33300  0.66700  0.26700  1.0000
  Zn  Zn2       1.0  0.66700  0.33300  0.76700  1.0000
