data_image0
_chemical_formula_structural       Cu4Si4Ti4
_chemical_formula_sum              "Cu4 Si4 Ti4"
_cell_length_a       7.1413
_cell_length_b       6.19286
_cell_length_c       3.73045
_cell_angle_alpha    90
_cell_angle_beta     90
_cell_angle_gamma    90

_space_group_name_H-M_alt    "P 1"
_space_group_IT_number       1

loop_
  _space_group_symop_operation_xyz
  'x, y, z'

loop_
  _atom_site_type_symbol
  _atom_site_label
  _atom_site_symmetry_multiplicity
  _atom_site_fract_x
  _atom_site_fract_y
  _atom_site_fract_z
  _atom_site_occupancy
  Cu  Cu1       1.0  0.56600  0.15300  0.25000  1.0000
  Cu  Cu2       1.0  0.93400  0.65300  0.25000  1.0000
  Cu  Cu3       1.0  0.06640  0.34700  0.75000  1.0000
  Cu  Cu4       1.0  0.43400  0.84700  0.75000  1.0000
  Si  Si1       1.0  0.88000  0.26600  0.25000  1.0000
  Si  Si2       1.0  0.62000  0.76600  0.25000  1.0000
  Si  Si3       1.0  0.38000  0.23400  0.75000  1.0000
  Si  Si4       1.0  0.12000  0.73400  0.75000  1.0000
  Ti  Ti1       1.0  0.18100  0.02020  0.25000  1.0000
  Ti  Ti2       1.0  0.31900  0.52000  0.25000  1.0000
  Ti  Ti3       1.0  0.68100  0.48000  0.75000  1.0000
  Ti  Ti4       1.0  0.81900  0.98000  0.75000  1.0000
