data_image0
_chemical_formula_structural       Co2Ni2O4
_chemical_formula_sum              "Co2 Ni2 O4"
_cell_length_a       2.88592
_cell_length_b       3.69443
_cell_length_c       7.54149
_cell_angle_alpha    90
_cell_angle_beta     78.9692
_cell_angle_gamma    90

_space_group_name_H-M_alt    "P 1"
_space_group_IT_number       1

loop_
  _space_group_symop_operation_xyz
  'x, y, z'

loop_
  _atom_site_type_symbol
  _atom_site_label
  _atom_site_symmetry_multiplicity
  _atom_site_fract_x
  _atom_site_fract_y
  _atom_site_fract_z
  _atom_site_occupancy
  Co  Co1       1.0  0.32400  0.75000  0.35200  1.0000
  Co  Co2       1.0  0.67600  0.25000  0.64800  1.0000
  Ni  Ni1       1.0  0.93500  0.25000  0.12900  1.0000
  Ni  Ni2       1.0  0.06460  0.75000  0.87100  1.0000
  O   O1        1.0  0.93500  0.75000  0.13100  1.0000
  O   O2        1.0  0.81000  0.25000  0.38100  1.0000
  O   O3        1.0  0.19000  0.75000  0.61900  1.0000
  O   O4        1.0  0.06540  0.25000  0.86900  1.0000
