data_image0
_chemical_formula_structural       O2Pb2S2Sr2
_chemical_formula_sum              "O2 Pb2 S2 Sr2"
_cell_length_a       4.07087
_cell_length_b       4.07126
_cell_length_c       13.8534
_cell_angle_alpha    90
_cell_angle_beta     90
_cell_angle_gamma    119.993

_space_group_name_H-M_alt    "P 1"
_space_group_IT_number       1

loop_
  _space_group_symop_operation_xyz
  'x, y, z'

loop_
  _atom_site_type_symbol
  _atom_site_label
  _atom_site_symmetry_multiplicity
  _atom_site_fract_x
  _atom_site_fract_y
  _atom_site_fract_z
  _atom_site_occupancy
  O   O1        1.0  0.00000  0.00000  0.32400  1.0000
  O   O2        1.0  0.00000  0.00027  0.82400  1.0000
  Pb  Pb1       1.0  0.00000  0.00023  0.49400  1.0000
  Pb  Pb2       1.0  0.00000  0.00000  0.99400  1.0000
  S   S1        1.0  0.66700  0.33300  0.11100  1.0000
  S   S2        1.0  0.33300  0.66700  0.61100  1.0000
  Sr  Sr1       1.0  0.33300  0.66600  0.25900  1.0000
  Sr  Sr2       1.0  0.66700  0.33400  0.75900  1.0000
