data_image0
_chemical_formula_structural       In8O16Pd4
_chemical_formula_sum              "In8 O16 Pd4"
_cell_length_a       5.52603
_cell_length_b       5.51673
_cell_length_c       11.3274
_cell_angle_alpha    90
_cell_angle_beta     90
_cell_angle_gamma    90

_space_group_name_H-M_alt    "P 1"
_space_group_IT_number       1

loop_
  _space_group_symop_operation_xyz
  'x, y, z'

loop_
  _atom_site_type_symbol
  _atom_site_label
  _atom_site_symmetry_multiplicity
  _atom_site_fract_x
  _atom_site_fract_y
  _atom_site_fract_z
  _atom_site_occupancy
  In  In1       1.0  0.49700  0.01360  0.16100  1.0000
  In  In2       1.0  0.00279  0.51400  0.16100  1.0000
  In  In3       1.0  0.99700  0.01360  0.33900  1.0000
  In  In4       1.0  0.50300  0.51400  0.33900  1.0000
  In  In5       1.0  0.49700  0.48600  0.66100  1.0000
  In  In6       1.0  0.00279  0.98600  0.66100  1.0000
  In  In7       1.0  0.99700  0.48600  0.83900  1.0000
  In  In8       1.0  0.50300  0.98600  0.83900  1.0000
  O   O1        1.0  0.16700  0.33400  0.00250  1.0000
  O   O2        1.0  0.33300  0.83400  0.00250  1.0000
  O   O3        1.0  0.76100  0.26400  0.24800  1.0000
  O   O4        1.0  0.73900  0.76400  0.24800  1.0000
  O   O5        1.0  0.26100  0.26400  0.25200  1.0000
  O   O6        1.0  0.23900  0.76400  0.25200  1.0000
  O   O7        1.0  0.66700  0.33400  0.49700  1.0000
  O   O8        1.0  0.83300  0.83400  0.49700  1.0000
  O   O9        1.0  0.16700  0.16600  0.50300  1.0000
  O   O10       1.0  0.33300  0.66600  0.50300  1.0000
  O   O11       1.0  0.76100  0.23600  0.74800  1.0000
  O   O12       1.0  0.73900  0.73600  0.74800  1.0000
  O   O13       1.0  0.26100  0.23600  0.75200  1.0000
  O   O14       1.0  0.23900  0.73600  0.75200  1.0000
  O   O15       1.0  0.66700  0.16600  0.99700  1.0000
  O   O16       1.0  0.83300  0.66600  0.99700  1.0000
  Pd  Pd1       1.0  0.00000  0.00000  0.00000  1.0000
  Pd  Pd2       1.0  0.50000  0.50000  0.00000  1.0000
  Pd  Pd3       1.0  0.50000  0.00000  0.50000  1.0000
  Pd  Pd4       1.0  0.00000  0.50000  0.50000  1.0000
