data_image0
_chemical_formula_structural       Ce2Cu18Mg4
_chemical_formula_sum              "Ce2 Cu18 Mg4"
_cell_length_a       5.0606
_cell_length_b       5.06056
_cell_length_c       16.1453
_cell_angle_alpha    90
_cell_angle_beta     90
_cell_angle_gamma    120

_space_group_name_H-M_alt    "P 1"
_space_group_IT_number       1

loop_
  _space_group_symop_operation_xyz
  'x, y, z'

loop_
  _atom_site_type_symbol
  _atom_site_label
  _atom_site_symmetry_multiplicity
  _atom_site_fract_x
  _atom_site_fract_y
  _atom_site_fract_z
  _atom_site_occupancy
  Ce  Ce1       1.0  0.66700  0.33300  0.25000  1.0000
  Ce  Ce2       1.0  0.33300  0.66700  0.75000  1.0000
  Cu  Cu1       1.0  0.00000  0.00000  0.00000  1.0000
  Cu  Cu2       1.0  0.16800  0.33700  0.12200  1.0000
  Cu  Cu3       1.0  0.16800  0.83200  0.12200  1.0000
  Cu  Cu4       1.0  0.66300  0.83200  0.12200  1.0000
  Cu  Cu5       1.0  0.00001  0.00001  0.25000  1.0000
  Cu  Cu6       1.0  0.33300  0.66700  0.25000  1.0000
  Cu  Cu7       1.0  0.16800  0.83200  0.37800  1.0000
  Cu  Cu8       1.0  0.66300  0.83200  0.37800  1.0000
  Cu  Cu9       1.0  0.16800  0.33700  0.37800  1.0000
  Cu  Cu10      1.0  0.00000  0.00000  0.50000  1.0000
  Cu  Cu11      1.0  0.83200  0.66300  0.62200  1.0000
  Cu  Cu12      1.0  0.33700  0.16800  0.62200  1.0000
  Cu  Cu13      1.0  0.83200  0.16800  0.62200  1.0000
  Cu  Cu14      1.0  0.00000  0.00000  0.75000  1.0000
  Cu  Cu15      1.0  0.66700  0.33300  0.75000  1.0000
  Cu  Cu16      1.0  0.33700  0.16800  0.87800  1.0000
  Cu  Cu17      1.0  0.83200  0.16800  0.87800  1.0000
  Cu  Cu18      1.0  0.83200  0.66300  0.87800  1.0000
  Mg  Mg1       1.0  0.66700  0.33300  0.03160  1.0000
  Mg  Mg2       1.0  0.66700  0.33300  0.46800  1.0000
  Mg  Mg3       1.0  0.33300  0.66700  0.53200  1.0000
  Mg  Mg4       1.0  0.33300  0.66700  0.96800  1.0000
