data_image0
_chemical_formula_structural       Ca8O4Se4
_chemical_formula_sum              "Ca8 O4 Se4"
_cell_length_a       6.42767
_cell_length_b       3.92387
_cell_length_c       14.3589
_cell_angle_alpha    90
_cell_angle_beta     90
_cell_angle_gamma    90

_space_group_name_H-M_alt    "P 1"
_space_group_IT_number       1

loop_
  _space_group_symop_operation_xyz
  'x, y, z'

loop_
  _atom_site_type_symbol
  _atom_site_label
  _atom_site_symmetry_multiplicity
  _atom_site_fract_x
  _atom_site_fract_y
  _atom_site_fract_z
  _atom_site_occupancy
  Ca  Ca1       1.0  0.23700  0.75000  0.07640  1.0000
  Ca  Ca2       1.0  0.61200  0.25000  0.20400  1.0000
  Ca  Ca3       1.0  0.11200  0.25000  0.29600  1.0000
  Ca  Ca4       1.0  0.73700  0.75000  0.42400  1.0000
  Ca  Ca5       1.0  0.26300  0.25000  0.57600  1.0000
  Ca  Ca6       1.0  0.88800  0.75000  0.70400  1.0000
  Ca  Ca7       1.0  0.38800  0.75000  0.79600  1.0000
  Ca  Ca8       1.0  0.76300  0.25000  0.92400  1.0000
  O   O1        1.0  0.28200  0.25000  0.16300  1.0000
  O   O2        1.0  0.78200  0.25000  0.33700  1.0000
  O   O3        1.0  0.21800  0.75000  0.66300  1.0000
  O   O4        1.0  0.71800  0.75000  0.83700  1.0000
  Se  Se1       1.0  0.77000  0.75000  0.08400  1.0000
  Se  Se2       1.0  0.27000  0.75000  0.41600  1.0000
  Se  Se3       1.0  0.73000  0.25000  0.58400  1.0000
  Se  Se4       1.0  0.23000  0.25000  0.91600  1.0000
