data_image0
_chemical_formula_structural       Ba4O4Se4Sr4
_chemical_formula_sum              "Ba4 O4 Se4 Sr4"
_cell_length_a       6.80831
_cell_length_b       4.41432
_cell_length_c       16.1467
_cell_angle_alpha    90
_cell_angle_beta     90
_cell_angle_gamma    90

_space_group_name_H-M_alt    "P 1"
_space_group_IT_number       1

loop_
  _space_group_symop_operation_xyz
  'x, y, z'

loop_
  _atom_site_type_symbol
  _atom_site_label
  _atom_site_symmetry_multiplicity
  _atom_site_fract_x
  _atom_site_fract_y
  _atom_site_fract_z
  _atom_site_occupancy
  Ba  Ba1       1.0  0.23600  0.75000  0.08500  1.0000
  Ba  Ba2       1.0  0.73600  0.75000  0.41500  1.0000
  Ba  Ba3       1.0  0.26400  0.25000  0.58500  1.0000
  Ba  Ba4       1.0  0.76400  0.25000  0.91500  1.0000
  O   O1        1.0  0.29700  0.25000  0.17600  1.0000
  O   O2        1.0  0.79700  0.25000  0.32400  1.0000
  O   O3        1.0  0.20300  0.75000  0.67600  1.0000
  O   O4        1.0  0.70300  0.75000  0.82400  1.0000
  Se  Se1       1.0  0.74900  0.75000  0.07560  1.0000
  Se  Se2       1.0  0.24900  0.75000  0.42400  1.0000
  Se  Se3       1.0  0.75100  0.25000  0.57600  1.0000
  Se  Se4       1.0  0.25100  0.25000  0.92400  1.0000
  Sr  Sr1       1.0  0.64500  0.25000  0.19200  1.0000
  Sr  Sr2       1.0  0.14500  0.25000  0.30800  1.0000
  Sr  Sr3       1.0  0.85500  0.75000  0.69200  1.0000
  Sr  Sr4       1.0  0.35500  0.75000  0.80800  1.0000
