data_image0
_chemical_formula_structural       O4Se4Zn8
_chemical_formula_sum              "O4 Se4 Zn8"
_cell_length_a       5.67262
_cell_length_b       3.54396
_cell_length_c       12.952
_cell_angle_alpha    90
_cell_angle_beta     90
_cell_angle_gamma    90

_space_group_name_H-M_alt    "P 1"
_space_group_IT_number       1

loop_
  _space_group_symop_operation_xyz
  'x, y, z'

loop_
  _atom_site_type_symbol
  _atom_site_label
  _atom_site_symmetry_multiplicity
  _atom_site_fract_x
  _atom_site_fract_y
  _atom_site_fract_z
  _atom_site_occupancy
  O   O1        1.0  0.27500  0.25000  0.17700  1.0000
  O   O2        1.0  0.77500  0.25000  0.32300  1.0000
  O   O3        1.0  0.22500  0.75000  0.67700  1.0000
  O   O4        1.0  0.72500  0.75000  0.82300  1.0000
  Se  Se1       1.0  0.76300  0.75000  0.07050  1.0000
  Se  Se2       1.0  0.26300  0.75000  0.43000  1.0000
  Se  Se3       1.0  0.73700  0.25000  0.57000  1.0000
  Se  Se4       1.0  0.23700  0.25000  0.93000  1.0000
  Zn  Zn1       1.0  0.19000  0.75000  0.10200  1.0000
  Zn  Zn2       1.0  0.62700  0.25000  0.18500  1.0000
  Zn  Zn3       1.0  0.12700  0.25000  0.31500  1.0000
  Zn  Zn4       1.0  0.69000  0.75000  0.39800  1.0000
  Zn  Zn5       1.0  0.31000  0.25000  0.60200  1.0000
  Zn  Zn6       1.0  0.87300  0.75000  0.68500  1.0000
  Zn  Zn7       1.0  0.37300  0.75000  0.81500  1.0000
  Zn  Zn8       1.0  0.81000  0.25000  0.89800  1.0000
